MODEL 1
REMARK VINA RESULT:      -8.4      0.000      0.000
REMARK  7 active torsions:
REMARK  status: ('A' for Active; 'I' for Inactive)
REMARK    1  A    between atoms: C_2  and  C_3 
REMARK    2  A    between atoms: C_3  and  N_4 
REMARK    3  A    between atoms: C_3  and  C_22 
REMARK       I    between atoms: N_4  and  C_5 
REMARK       I    between atoms: C_5  and  N_6 
REMARK    4  A    between atoms: N_6  and  C_7 
REMARK    5  A    between atoms: C_7  and  C_8 
REMARK    6  A    between atoms: C_11  and  N_12 
REMARK       I    between atoms: N_12  and  C_13 
REMARK       I    between atoms: C_13  and  N_14 
REMARK    7  A    between atoms: N_14  and  C_15 
ROOT
HETATM    1  N   UNL     1     -40.922  56.058 -52.999  1.00  0.00    -0.331 N 
HETATM    2  C   UNL     1     -41.097  57.394 -53.241  1.00  0.00     0.317 C 
HETATM    3  N   UNL     1     -40.950  58.131 -52.100  1.00  0.00    -0.339 N 
HETATM    4  O   UNL     1     -41.364  57.863 -54.339  1.00  0.00    -0.247 OA
HETATM    5  H   UNL     1     -41.063  55.789 -52.038  1.00  0.00     0.165 HD
HETATM    6  H   UNL     1     -40.353  57.737 -51.387  1.00  0.00     0.164 HD
ENDROOT
BRANCH   1   7
HETATM    7  C   UNL     1     -41.217  55.044 -54.010  1.00  0.00     0.159 C 
BRANCH   7   8
HETATM    8  C   UNL     1     -42.722  55.011 -54.390  1.00  0.00     0.008 C 
HETATM    9  C   UNL     1     -43.568  54.502 -53.215  1.00  0.00     0.012 C 
HETATM   10  C   UNL     1     -43.039  54.179 -55.641  1.00  0.00     0.012 C 
ENDBRANCH   7   8
BRANCH   7  11
HETATM   11  C   UNL     1     -40.710  53.697 -53.553  1.00  0.00     0.128 A 
HETATM   12  N   UNL     1     -40.430  53.301 -52.326  1.00  0.00    -0.231 NA
HETATM   13  C   UNL     1     -40.073  51.979 -52.431  1.00  0.00     0.085 A 
HETATM   14  C   UNL     1     -40.137  51.549 -53.750  1.00  0.00     0.062 A 
HETATM   15  C   UNL     1     -39.682  51.074 -51.434  1.00  0.00     0.034 A 
HETATM   16  N   UNL     1     -40.547  52.657 -54.442  1.00  0.00    -0.341 N 
HETATM   17  C   UNL     1     -39.828  50.249 -54.150  1.00  0.00     0.032 A 
HETATM   18  H   UNL     1     -40.692  52.733 -55.444  1.00  0.00     0.167 HD
HETATM   19  C   UNL     1     -39.441  49.358 -53.141  1.00  0.00     0.002 A 
HETATM   20  C   UNL     1     -39.369  49.759 -51.806  1.00  0.00     0.002 A 
ENDBRANCH   7  11
ENDBRANCH   1   7
BRANCH   3  21
HETATM   21  C   UNL     1     -41.068  59.571 -52.120  1.00  0.00     0.162 C 
BRANCH  21  22
HETATM   22  C   UNL     1     -42.331  59.993 -51.416  1.00  0.00    -0.040 A 
HETATM   23  C   UNL     1     -43.523  59.275 -51.560  1.00  0.00     0.011 A 
HETATM   24  C   UNL     1     -44.696  59.704 -50.925  1.00  0.00     0.030 A 
HETATM   25  C   UNL     1     -44.702  60.868 -50.155  1.00  0.00     0.036 A 
HETATM   26  C   UNL     1     -43.502  61.565 -49.981  1.00  0.00     0.030 A 
HETATM   27  C   UNL     1     -42.330  61.140 -50.613  1.00  0.00     0.011 A 
BRANCH  25  28
HETATM   28  N   UNL     1     -45.831  61.382 -49.492  1.00  0.00    -0.309 N 
HETATM   29  C   UNL     1     -46.214  61.405 -48.185  1.00  0.00     0.321 C 
HETATM   30  N   UNL     1     -45.555  60.578 -47.328  1.00  0.00    -0.339 N 
HETATM   31  O   UNL     1     -47.163  62.115 -47.860  1.00  0.00    -0.247 OA
HETATM   32  H   UNL     1     -45.197  59.749 -47.779  1.00  0.00     0.164 HD
HETATM   33  H   UNL     1     -46.512  61.860 -50.068  1.00  0.00     0.170 HD
BRANCH  30  34
HETATM   34  C   UNL     1     -45.914  60.411 -45.923  1.00  0.00     0.078 C 
HETATM   35  C   UNL     1     -46.601  59.078 -45.632  1.00  0.00     0.032 C 
HETATM   36  C   UNL     1     -44.717  60.639 -45.002  1.00  0.00     0.032 C 
ENDBRANCH  30  34
ENDBRANCH  25  28
ENDBRANCH  21  22
ENDBRANCH   3  21
TORSDOF 7
ENDMDL
MODEL 2
REMARK VINA RESULT:      -8.2      5.438      8.620
REMARK  7 active torsions:
REMARK  status: ('A' for Active; 'I' for Inactive)
REMARK    1  A    between atoms: C_2  and  C_3 
REMARK    2  A    between atoms: C_3  and  N_4 
REMARK    3  A    between atoms: C_3  and  C_22 
REMARK       I    between atoms: N_4  and  C_5 
REMARK       I    between atoms: C_5  and  N_6 
REMARK    4  A    between atoms: N_6  and  C_7 
REMARK    5  A    between atoms: C_7  and  C_8 
REMARK    6  A    between atoms: C_11  and  N_12 
REMARK       I    between atoms: N_12  and  C_13 
REMARK       I    between atoms: C_13  and  N_14 
REMARK    7  A    between atoms: N_14  and  C_15 
ROOT
HETATM    1  N   UNL     1     -41.545  55.824 -54.947  1.00  0.00    -0.331 N 
HETATM    2  C   UNL     1     -42.416  55.497 -55.951  1.00  0.00     0.317 C 
HETATM    3  N   UNL     1     -42.117  56.160 -57.106  1.00  0.00    -0.339 N 
HETATM    4  O   UNL     1     -43.351  54.717 -55.821  1.00  0.00    -0.247 OA
HETATM    5  H   UNL     1     -41.074  56.704 -55.077  1.00  0.00     0.165 HD
HETATM    6  H   UNL     1     -41.152  56.428 -57.231  1.00  0.00     0.164 HD
ENDROOT
BRANCH   1   7
HETATM    7  C   UNL     1     -41.764  55.400 -53.565  1.00  0.00     0.159 C 
BRANCH   7   8
HETATM    8  C   UNL     1     -41.290  56.466 -52.539  1.00  0.00     0.008 C 
HETATM    9  C   UNL     1     -42.357  56.693 -51.460  1.00  0.00     0.012 C 
HETATM   10  C   UNL     1     -40.905  57.815 -53.164  1.00  0.00     0.012 C 
ENDBRANCH   7   8
BRANCH   7  11
HETATM   11  C   UNL     1     -41.123  54.054 -53.330  1.00  0.00     0.128 A 
HETATM   12  N   UNL     1     -40.604  53.578 -52.212  1.00  0.00    -0.231 NA
HETATM   13  C   UNL     1     -40.214  52.292 -52.498  1.00  0.00     0.085 A 
HETATM   14  C   UNL     1     -40.500  51.967 -53.818  1.00  0.00     0.062 A 
HETATM   15  C   UNL     1     -39.608  51.335 -51.673  1.00  0.00     0.034 A 
HETATM   16  N   UNL     1     -41.078  53.100 -54.323  1.00  0.00    -0.341 N 
HETATM   17  C   UNL     1     -40.211  50.724 -54.382  1.00  0.00     0.032 A 
HETATM   18  H   UNL     1     -41.407  53.247 -55.272  1.00  0.00     0.167 HD
HETATM   19  C   UNL     1     -39.607  49.779 -53.543  1.00  0.00     0.002 A 
HETATM   20  C   UNL     1     -39.309  50.076 -52.211  1.00  0.00     0.002 A 
ENDBRANCH   7  11
ENDBRANCH   1   7
BRANCH   3  21
HETATM   21  C   UNL     1     -42.890  55.954 -58.309  1.00  0.00     0.162 C 
BRANCH  21  22
HETATM   22  C   UNL     1     -42.961  57.233 -59.102  1.00  0.00    -0.040 A 
HETATM   23  C   UNL     1     -41.963  57.581 -60.017  1.00  0.00     0.011 A 
HETATM   24  C   UNL     1     -42.029  58.792 -60.719  1.00  0.00     0.030 A 
HETATM   25  C   UNL     1     -43.081  59.683 -60.500  1.00  0.00     0.036 A 
HETATM   26  C   UNL     1     -44.098  59.318 -59.612  1.00  0.00     0.030 A 
HETATM   27  C   UNL     1     -44.035  58.110 -58.911  1.00  0.00     0.011 A 
BRANCH  25  28
HETATM   28  N   UNL     1     -43.225  60.924 -61.146  1.00  0.00    -0.309 N 
HETATM   29  C   UNL     1     -42.365  61.951 -61.396  1.00  0.00     0.321 C 
HETATM   30  N   UNL     1     -41.194  61.964 -60.703  1.00  0.00    -0.339 N 
HETATM   31  O   UNL     1     -42.711  62.835 -62.175  1.00  0.00    -0.247 OA
HETATM   32  H   UNL     1     -41.264  61.516 -59.801  1.00  0.00     0.164 HD
HETATM   33  H   UNL     1     -44.136  61.122 -61.542  1.00  0.00     0.170 HD
BRANCH  30  34
HETATM   34  C   UNL     1     -40.216  63.045 -60.780  1.00  0.00     0.078 C 
HETATM   35  C   UNL     1     -39.369  63.181 -59.516  1.00  0.00     0.032 C 
HETATM   36  C   UNL     1     -39.347  62.935 -62.030  1.00  0.00     0.032 C 
ENDBRANCH  30  34
ENDBRANCH  25  28
ENDBRANCH  21  22
ENDBRANCH   3  21
TORSDOF 7
ENDMDL
MODEL 3
REMARK VINA RESULT:      -8.1      3.612     10.495
REMARK  7 active torsions:
REMARK  status: ('A' for Active; 'I' for Inactive)
REMARK    1  A    between atoms: C_2  and  C_3 
REMARK    2  A    between atoms: C_3  and  N_4 
REMARK    3  A    between atoms: C_3  and  C_22 
REMARK       I    between atoms: N_4  and  C_5 
REMARK       I    between atoms: C_5  and  N_6 
REMARK    4  A    between atoms: N_6  and  C_7 
REMARK    5  A    between atoms: C_7  and  C_8 
REMARK    6  A    between atoms: C_11  and  N_12 
REMARK       I    between atoms: N_12  and  C_13 
REMARK       I    between atoms: C_13  and  N_14 
REMARK    7  A    between atoms: N_14  and  C_15 
ROOT
HETATM    1  N   UNL     1     -44.438  59.546 -50.582  1.00  0.00    -0.331 N 
HETATM    2  C   UNL     1     -44.655  58.231 -50.894  1.00  0.00     0.317 C 
HETATM    3  N   UNL     1     -43.501  57.615 -51.284  1.00  0.00    -0.339 N 
HETATM    4  O   UNL     1     -45.749  57.684 -50.840  1.00  0.00    -0.247 OA
HETATM    5  H   UNL     1     -43.610  59.940 -50.998  1.00  0.00     0.165 HD
HETATM    6  H   UNL     1     -42.643  57.995 -50.914  1.00  0.00     0.164 HD
ENDROOT
BRANCH   1   7
HETATM    7  C   UNL     1     -45.540  60.471 -50.323  1.00  0.00     0.159 C 
BRANCH   7   8
HETATM    8  C   UNL     1     -45.751  61.477 -51.488  1.00  0.00     0.008 C 
HETATM    9  C   UNL     1     -47.005  61.117 -52.296  1.00  0.00     0.012 C 
HETATM   10  C   UNL     1     -44.553  61.601 -52.440  1.00  0.00     0.012 C 
ENDBRANCH   7   8
BRANCH   7  11
HETATM   11  C   UNL     1     -45.334  61.164 -48.998  1.00  0.00     0.128 A 
HETATM   12  N   UNL     1     -45.404  62.455 -48.730  1.00  0.00    -0.231 NA
HETATM   13  C   UNL     1     -45.206  62.567 -47.375  1.00  0.00     0.085 A 
HETATM   14  C   UNL     1     -45.011  61.320 -46.796  1.00  0.00     0.062 A 
HETATM   15  C   UNL     1     -45.182  63.710 -46.565  1.00  0.00     0.034 A 
HETATM   16  N   UNL     1     -45.100  60.447 -47.845  1.00  0.00    -0.341 N 
HETATM   17  C   UNL     1     -44.786  61.135 -45.431  1.00  0.00     0.032 A 
HETATM   18  H   UNL     1     -44.993  59.438 -47.812  1.00  0.00     0.167 HD
HETATM   19  C   UNL     1     -44.767  62.287 -44.636  1.00  0.00     0.002 A 
HETATM   20  C   UNL     1     -44.961  63.554 -45.189  1.00  0.00     0.002 A 
ENDBRANCH   7  11
ENDBRANCH   1   7
BRANCH   3  21
HETATM   21  C   UNL     1     -43.484  56.214 -51.640  1.00  0.00     0.162 C 
BRANCH  21  22
HETATM   22  C   UNL     1     -43.250  56.061 -53.120  1.00  0.00    -0.040 A 
HETATM   23  C   UNL     1     -43.465  54.843 -53.772  1.00  0.00     0.011 A 
HETATM   24  C   UNL     1     -43.207  54.713 -55.143  1.00  0.00     0.030 A 
HETATM   25  C   UNL     1     -42.710  55.791 -55.878  1.00  0.00     0.036 A 
HETATM   26  C   UNL     1     -42.531  57.018 -55.234  1.00  0.00     0.030 A 
HETATM   27  C   UNL     1     -42.787  57.152 -53.866  1.00  0.00     0.011 A 
BRANCH  25  28
HETATM   28  N   UNL     1     -42.412  55.751 -57.252  1.00  0.00    -0.309 N 
HETATM   29  C   UNL     1     -43.086  56.155 -58.365  1.00  0.00     0.321 C 
HETATM   30  N   UNL     1     -44.411  56.431 -58.225  1.00  0.00    -0.339 N 
HETATM   31  O   UNL     1     -42.489  56.188 -59.438  1.00  0.00    -0.247 OA
HETATM   32  H   UNL     1     -44.847  55.903 -57.482  1.00  0.00     0.164 HD
HETATM   33  H   UNL     1     -41.508  55.370 -57.506  1.00  0.00     0.170 HD
BRANCH  30  34
HETATM   34  C   UNL     1     -45.292  56.774 -59.336  1.00  0.00     0.078 C 
HETATM   35  C   UNL     1     -45.752  55.557 -60.137  1.00  0.00     0.032 C 
HETATM   36  C   UNL     1     -46.474  57.626 -58.881  1.00  0.00     0.032 C 
ENDBRANCH  30  34
ENDBRANCH  25  28
ENDBRANCH  21  22
ENDBRANCH   3  21
TORSDOF 7
ENDMDL
MODEL 4
REMARK VINA RESULT:      -8.0      4.237      7.587
REMARK  7 active torsions:
REMARK  status: ('A' for Active; 'I' for Inactive)
REMARK    1  A    between atoms: C_2  and  C_3 
REMARK    2  A    between atoms: C_3  and  N_4 
REMARK    3  A    between atoms: C_3  and  C_22 
REMARK       I    between atoms: N_4  and  C_5 
REMARK       I    between atoms: C_5  and  N_6 
REMARK    4  A    between atoms: N_6  and  C_7 
REMARK    5  A    between atoms: C_7  and  C_8 
REMARK    6  A    between atoms: C_11  and  N_12 
REMARK       I    between atoms: N_12  and  C_13 
REMARK       I    between atoms: C_13  and  N_14 
REMARK    7  A    between atoms: N_14  and  C_15 
ROOT
HETATM    1  N   UNL     1     -41.655  55.476 -51.194  1.00  0.00    -0.331 N 
HETATM    2  C   UNL     1     -42.949  55.723 -51.566  1.00  0.00     0.317 C 
HETATM    3  N   UNL     1     -43.075  56.952 -52.145  1.00  0.00    -0.339 N 
HETATM    4  O   UNL     1     -43.875  54.941 -51.388  1.00  0.00    -0.247 OA
HETATM    5  H   UNL     1     -41.094  56.304 -51.071  1.00  0.00     0.165 HD
HETATM    6  H   UNL     1     -42.254  57.317 -52.604  1.00  0.00     0.164 HD
ENDROOT
BRANCH   1   7
HETATM    7  C   UNL     1     -41.292  54.316 -50.381  1.00  0.00     0.159 C 
BRANCH   7   8
HETATM    8  C   UNL     1     -40.226  54.661 -49.305  1.00  0.00     0.008 C 
HETATM    9  C   UNL     1     -38.815  54.344 -49.818  1.00  0.00     0.012 C 
HETATM   10  C   UNL     1     -40.444  53.963 -47.955  1.00  0.00     0.012 C 
ENDBRANCH   7   8
BRANCH   7  11
HETATM   11  C   UNL     1     -40.861  53.176 -51.271  1.00  0.00     0.128 A 
HETATM   12  N   UNL     1     -40.737  53.166 -52.585  1.00  0.00    -0.231 NA
HETATM   13  C   UNL     1     -40.254  51.921 -52.907  1.00  0.00     0.085 A 
HETATM   14  C   UNL     1     -40.074  51.147 -51.767  1.00  0.00     0.062 A 
HETATM   15  C   UNL     1     -39.939  51.377 -54.159  1.00  0.00     0.034 A 
HETATM   16  N   UNL     1     -40.463  51.967 -50.742  1.00  0.00    -0.341 N 
HETATM   17  C   UNL     1     -39.594  49.838 -51.795  1.00  0.00     0.032 A 
HETATM   18  H   UNL     1     -40.487  51.741 -49.753  1.00  0.00     0.167 HD
HETATM   19  C   UNL     1     -39.283  49.311 -53.055  1.00  0.00     0.002 A 
HETATM   20  C   UNL     1     -39.451  50.064 -54.219  1.00  0.00     0.002 A 
ENDBRANCH   7  11
ENDBRANCH   1   7
BRANCH   3  21
HETATM   21  C   UNL     1     -44.351  57.419 -52.639  1.00  0.00     0.162 C 
BRANCH  21  22
HETATM   22  C   UNL     1     -44.270  57.666 -54.122  1.00  0.00    -0.040 A 
HETATM   23  C   UNL     1     -45.202  58.475 -54.781  1.00  0.00     0.011 A 
HETATM   24  C   UNL     1     -45.129  58.664 -56.167  1.00  0.00     0.030 A 
HETATM   25  C   UNL     1     -44.138  58.030 -56.919  1.00  0.00     0.036 A 
HETATM   26  C   UNL     1     -43.185  57.252 -56.256  1.00  0.00     0.030 A 
HETATM   27  C   UNL     1     -43.254  57.062 -54.873  1.00  0.00     0.011 A 
BRANCH  25  28
HETATM   28  N   UNL     1     -43.994  58.150 -58.313  1.00  0.00    -0.309 N 
HETATM   29  C   UNL     1     -44.624  57.563 -59.370  1.00  0.00     0.321 C 
HETATM   30  N   UNL     1     -45.374  56.457 -59.112  1.00  0.00    -0.339 N 
HETATM   31  O   UNL     1     -44.436  58.017 -60.496  1.00  0.00    -0.247 OA
HETATM   32  H   UNL     1     -45.044  55.936 -58.313  1.00  0.00     0.164 HD
HETATM   33  H   UNL     1     -43.305  58.817 -58.639  1.00  0.00     0.170 HD
BRANCH  30  34
HETATM   34  C   UNL     1     -46.024  55.658 -60.145  1.00  0.00     0.078 C 
HETATM   35  C   UNL     1     -47.100  56.427 -60.911  1.00  0.00     0.032 C 
HETATM   36  C   UNL     1     -45.010  55.020 -61.091  1.00  0.00     0.032 C 
ENDBRANCH  30  34
ENDBRANCH  25  28
ENDBRANCH  21  22
ENDBRANCH   3  21
TORSDOF 7
ENDMDL
MODEL 5
REMARK VINA RESULT:      -7.8     16.971     20.567
REMARK  7 active torsions:
REMARK  status: ('A' for Active; 'I' for Inactive)
REMARK    1  A    between atoms: C_2  and  C_3 
REMARK    2  A    between atoms: C_3  and  N_4 
REMARK    3  A    between atoms: C_3  and  C_22 
REMARK       I    between atoms: N_4  and  C_5 
REMARK       I    between atoms: C_5  and  N_6 
REMARK    4  A    between atoms: N_6  and  C_7 
REMARK    5  A    between atoms: C_7  and  C_8 
REMARK    6  A    between atoms: C_11  and  N_12 
REMARK       I    between atoms: N_12  and  C_13 
REMARK       I    between atoms: C_13  and  N_14 
REMARK    7  A    between atoms: N_14  and  C_15 
ROOT
HETATM    1  N   UNL     1     -34.536  41.224 -54.052  1.00  0.00    -0.331 N 
HETATM    2  C   UNL     1     -35.840  41.205 -54.466  1.00  0.00     0.317 C 
HETATM    3  N   UNL     1     -36.110  42.241 -55.313  1.00  0.00    -0.339 N 
HETATM    4  O   UNL     1     -36.662  40.370 -54.108  1.00  0.00    -0.247 OA
HETATM    5  H   UNL     1     -34.090  42.124 -54.127  1.00  0.00     0.165 HD
HETATM    6  H   UNL     1     -35.331  42.596 -55.848  1.00  0.00     0.164 HD
ENDROOT
BRANCH   1   7
HETATM    7  C   UNL     1     -34.047  40.341 -52.995  1.00  0.00     0.159 C 
BRANCH   7   8
HETATM    8  C   UNL     1     -33.713  41.112 -51.689  1.00  0.00     0.008 C 
HETATM    9  C   UNL     1     -33.906  40.212 -50.462  1.00  0.00     0.012 C 
HETATM   10  C   UNL     1     -34.516  42.408 -51.500  1.00  0.00     0.012 C 
ENDBRANCH   7   8
BRANCH   7  11
HETATM   11  C   UNL     1     -32.876  39.532 -53.498  1.00  0.00     0.128 A 
HETATM   12  N   UNL     1     -32.454  38.353 -53.078  1.00  0.00    -0.231 NA
HETATM   13  C   UNL     1     -31.404  38.017 -53.897  1.00  0.00     0.085 A 
HETATM   14  C   UNL     1     -31.174  39.007 -54.843  1.00  0.00     0.062 A 
HETATM   15  C   UNL     1     -30.596  36.872 -53.894  1.00  0.00     0.034 A 
HETATM   16  N   UNL     1     -32.122  39.956 -54.571  1.00  0.00    -0.341 N 
HETATM   17  C   UNL     1     -30.166  38.930 -55.805  1.00  0.00     0.032 A 
HETATM   18  H   UNL     1     -32.256  40.842 -55.048  1.00  0.00     0.167 HD
HETATM   19  C   UNL     1     -29.370  37.779 -55.789  1.00  0.00     0.002 A 
HETATM   20  C   UNL     1     -29.578  36.765 -54.851  1.00  0.00     0.002 A 
ENDBRANCH   7  11
ENDBRANCH   1   7
BRANCH   3  21
HETATM   21  C   UNL     1     -37.422  42.409 -55.896  1.00  0.00     0.162 C 
BRANCH  21  22
HETATM   22  C   UNL     1     -37.541  41.574 -57.144  1.00  0.00    -0.040 A 
HETATM   23  C   UNL     1     -38.101  40.294 -57.116  1.00  0.00     0.011 A 
HETATM   24  C   UNL     1     -38.171  39.519 -58.282  1.00  0.00     0.030 A 
HETATM   25  C   UNL     1     -37.662  40.004 -59.488  1.00  0.00     0.036 A 
HETATM   26  C   UNL     1     -37.136  41.299 -59.523  1.00  0.00     0.030 A 
HETATM   27  C   UNL     1     -37.065  42.074 -58.363  1.00  0.00     0.011 A 
BRANCH  25  28
HETATM   28  N   UNL     1     -37.676  39.297 -60.703  1.00  0.00    -0.309 N 
HETATM   29  C   UNL     1     -38.640  38.593 -61.362  1.00  0.00     0.321 C 
HETATM   30  N   UNL     1     -39.755  38.255 -60.657  1.00  0.00    -0.339 N 
HETATM   31  O   UNL     1     -38.432  38.250 -62.523  1.00  0.00    -0.247 OA
HETATM   32  H   UNL     1     -39.579  38.149 -59.669  1.00  0.00     0.164 HD
HETATM   33  H   UNL     1     -36.818  39.306 -61.241  1.00  0.00     0.170 HD
BRANCH  30  34
HETATM   34  C   UNL     1     -40.827  37.419 -61.187  1.00  0.00     0.078 C 
HETATM   35  C   UNL     1     -41.593  36.665 -60.101  1.00  0.00     0.032 C 
HETATM   36  C   UNL     1     -41.769  38.210 -62.091  1.00  0.00     0.032 C 
ENDBRANCH  30  34
ENDBRANCH  25  28
ENDBRANCH  21  22
ENDBRANCH   3  21
TORSDOF 7
ENDMDL
MODEL 6
REMARK VINA RESULT:      -7.6      4.390      7.848
REMARK  7 active torsions:
REMARK  status: ('A' for Active; 'I' for Inactive)
REMARK    1  A    between atoms: C_2  and  C_3 
REMARK    2  A    between atoms: C_3  and  N_4 
REMARK    3  A    between atoms: C_3  and  C_22 
REMARK       I    between atoms: N_4  and  C_5 
REMARK       I    between atoms: C_5  and  N_6 
REMARK    4  A    between atoms: N_6  and  C_7 
REMARK    5  A    between atoms: C_7  and  C_8 
REMARK    6  A    between atoms: C_11  and  N_12 
REMARK       I    between atoms: N_12  and  C_13 
REMARK       I    between atoms: C_13  and  N_14 
REMARK    7  A    between atoms: N_14  and  C_15 
ROOT
HETATM    1  N   UNL     1     -42.761  60.895 -56.670  1.00  0.00    -0.331 N 
HETATM    2  C   UNL     1     -42.388  60.671 -55.373  1.00  0.00     0.317 C 
HETATM    3  N   UNL     1     -43.186  61.352 -54.500  1.00  0.00    -0.339 N 
HETATM    4  O   UNL     1     -41.448  59.958 -55.042  1.00  0.00    -0.247 OA
HETATM    5  H   UNL     1     -43.287  61.742 -56.810  1.00  0.00     0.165 HD
HETATM    6  H   UNL     1     -44.124  61.551 -54.813  1.00  0.00     0.164 HD
ENDROOT
BRANCH   1   7
HETATM    7  C   UNL     1     -41.950  60.438 -57.798  1.00  0.00     0.159 C 
BRANCH   7   8
HETATM    8  C   UNL     1     -41.745  61.548 -58.865  1.00  0.00     0.008 C 
HETATM    9  C   UNL     1     -40.359  62.189 -58.724  1.00  0.00     0.012 C 
HETATM   10  C   UNL     1     -42.817  62.648 -58.845  1.00  0.00     0.012 C 
ENDBRANCH   7   8
BRANCH   7  11
HETATM   11  C   UNL     1     -42.543  59.180 -58.385  1.00  0.00     0.128 A 
HETATM   12  N   UNL     1     -41.929  58.054 -58.697  1.00  0.00    -0.231 NA
HETATM   13  C   UNL     1     -42.912  57.198 -59.130  1.00  0.00     0.085 A 
HETATM   14  C   UNL     1     -44.159  57.808 -59.081  1.00  0.00     0.062 A 
HETATM   15  C   UNL     1     -42.814  55.875 -59.579  1.00  0.00     0.034 A 
HETATM   16  N   UNL     1     -43.899  59.063 -58.602  1.00  0.00    -0.341 N 
HETATM   17  C   UNL     1     -45.340  57.171 -59.463  1.00  0.00     0.032 A 
HETATM   18  H   UNL     1     -44.569  59.810 -58.446  1.00  0.00     0.167 HD
HETATM   19  C   UNL     1     -45.224  55.848 -59.908  1.00  0.00     0.002 A 
HETATM   20  C   UNL     1     -43.985  55.208 -59.966  1.00  0.00     0.002 A 
ENDBRANCH   7  11
ENDBRANCH   1   7
BRANCH   3  21
HETATM   21  C   UNL     1     -42.993  61.247 -53.071  1.00  0.00     0.162 C 
BRANCH  21  22
HETATM   22  C   UNL     1     -43.236  59.831 -52.621  1.00  0.00    -0.040 A 
HETATM   23  C   UNL     1     -42.335  59.166 -51.783  1.00  0.00     0.011 A 
HETATM   24  C   UNL     1     -42.562  57.835 -51.405  1.00  0.00     0.030 A 
HETATM   25  C   UNL     1     -43.679  57.143 -51.876  1.00  0.00     0.036 A 
HETATM   26  C   UNL     1     -44.598  57.820 -52.683  1.00  0.00     0.030 A 
HETATM   27  C   UNL     1     -44.375  59.147 -53.062  1.00  0.00     0.011 A 
BRANCH  25  28
HETATM   28  N   UNL     1     -43.982  55.807 -51.560  1.00  0.00    -0.309 N 
HETATM   29  C   UNL     1     -43.337  54.627 -51.782  1.00  0.00     0.321 C 
HETATM   30  N   UNL     1     -42.325  54.632 -52.692  1.00  0.00    -0.339 N 
HETATM   31  O   UNL     1     -43.735  53.618 -51.205  1.00  0.00    -0.247 OA
HETATM   32  H   UNL     1     -42.443  55.334 -53.407  1.00  0.00     0.164 HD
HETATM   33  H   UNL     1     -44.837  55.649 -51.042  1.00  0.00     0.170 HD
BRANCH  30  34
HETATM   34  C   UNL     1     -41.607  53.434 -53.115  1.00  0.00     0.078 C 
HETATM   35  C   UNL     1     -41.202  53.464 -54.588  1.00  0.00     0.032 C 
HETATM   36  C   UNL     1     -40.413  53.140 -52.210  1.00  0.00     0.032 C 
ENDBRANCH  30  34
ENDBRANCH  25  28
ENDBRANCH  21  22
ENDBRANCH   3  21
TORSDOF 7
ENDMDL
MODEL 7
REMARK VINA RESULT:      -7.6     17.463     20.376
REMARK  7 active torsions:
REMARK  status: ('A' for Active; 'I' for Inactive)
REMARK    1  A    between atoms: C_2  and  C_3 
REMARK    2  A    between atoms: C_3  and  N_4 
REMARK    3  A    between atoms: C_3  and  C_22 
REMARK       I    between atoms: N_4  and  C_5 
REMARK       I    between atoms: C_5  and  N_6 
REMARK    4  A    between atoms: N_6  and  C_7 
REMARK    5  A    between atoms: C_7  and  C_8 
REMARK    6  A    between atoms: C_11  and  N_12 
REMARK       I    between atoms: N_12  and  C_13 
REMARK       I    between atoms: C_13  and  N_14 
REMARK    7  A    between atoms: N_14  and  C_15 
ROOT
HETATM    1  N   UNL     1     -34.547  40.777 -53.588  1.00  0.00    -0.331 N 
HETATM    2  C   UNL     1     -35.406  41.664 -54.180  1.00  0.00     0.317 C 
HETATM    3  N   UNL     1     -35.471  41.468 -55.530  1.00  0.00    -0.339 N 
HETATM    4  O   UNL     1     -36.025  42.528 -53.573  1.00  0.00    -0.247 OA
HETATM    5  H   UNL     1     -33.863  40.382 -54.214  1.00  0.00     0.165 HD
HETATM    6  H   UNL     1     -35.277  40.534 -55.857  1.00  0.00     0.164 HD
ENDROOT
BRANCH   1   7
HETATM    7  C   UNL     1     -34.153  40.901 -52.186  1.00  0.00     0.159 C 
BRANCH   7   8
HETATM    8  C   UNL     1     -32.622  40.729 -51.986  1.00  0.00     0.008 C 
HETATM    9  C   UNL     1     -32.012  39.913 -53.133  1.00  0.00     0.012 C 
HETATM   10  C   UNL     1     -32.229  40.092 -50.645  1.00  0.00     0.012 C 
ENDBRANCH   7   8
BRANCH   7  11
HETATM   11  C   UNL     1     -34.953  39.943 -51.338  1.00  0.00     0.128 A 
HETATM   12  N   UNL     1     -34.963  38.624 -51.381  1.00  0.00    -0.231 NA
HETATM   13  C   UNL     1     -35.799  38.221 -50.368  1.00  0.00     0.085 A 
HETATM   14  C   UNL     1     -36.313  39.315 -49.683  1.00  0.00     0.062 A 
HETATM   15  C   UNL     1     -36.165  36.930 -49.967  1.00  0.00     0.034 A 
HETATM   16  N   UNL     1     -35.760  40.395 -50.316  1.00  0.00    -0.341 N 
HETATM   17  C   UNL     1     -37.192  39.203 -48.605  1.00  0.00     0.032 A 
HETATM   18  H   UNL     1     -35.917  41.375 -50.104  1.00  0.00     0.167 HD
HETATM   19  C   UNL     1     -37.546  37.904 -48.218  1.00  0.00     0.002 A 
HETATM   20  C   UNL     1     -37.043  36.785 -48.884  1.00  0.00     0.002 A 
ENDBRANCH   7  11
ENDBRANCH   1   7
BRANCH   3  21
HETATM   21  C   UNL     1     -36.335  42.276 -56.361  1.00  0.00     0.162 C 
BRANCH  21  22
HETATM   22  C   UNL     1     -36.535  41.608 -57.696  1.00  0.00    -0.040 A 
HETATM   23  C   UNL     1     -37.162  42.269 -58.757  1.00  0.00     0.011 A 
HETATM   24  C   UNL     1     -37.370  41.619 -59.981  1.00  0.00     0.030 A 
HETATM   25  C   UNL     1     -36.976  40.291 -60.155  1.00  0.00     0.036 A 
HETATM   26  C   UNL     1     -36.316  39.642 -59.106  1.00  0.00     0.030 A 
HETATM   27  C   UNL     1     -36.107  40.289 -57.885  1.00  0.00     0.011 A 
BRANCH  25  28
HETATM   28  N   UNL     1     -37.153  39.553 -61.339  1.00  0.00    -0.309 N 
HETATM   29  C   UNL     1     -38.165  38.768 -61.806  1.00  0.00     0.321 C 
HETATM   30  N   UNL     1     -39.109  38.371 -60.910  1.00  0.00    -0.339 N 
HETATM   31  O   UNL     1     -38.140  38.411 -62.981  1.00  0.00    -0.247 OA
HETATM   32  H   UNL     1     -38.754  38.302 -59.968  1.00  0.00     0.164 HD
HETATM   33  H   UNL     1     -36.407  39.610 -62.021  1.00  0.00     0.170 HD
BRANCH  30  34
HETATM   34  C   UNL     1     -40.194  37.449 -61.229  1.00  0.00     0.078 C 
HETATM   35  C   UNL     1     -40.747  36.724 -60.003  1.00  0.00     0.032 C 
HETATM   36  C   UNL     1     -41.303  38.132 -62.026  1.00  0.00     0.032 C 
ENDBRANCH  30  34
ENDBRANCH  25  28
ENDBRANCH  21  22
ENDBRANCH   3  21
TORSDOF 7
ENDMDL
MODEL 8
REMARK VINA RESULT:      -7.6      2.731      4.001
REMARK  7 active torsions:
REMARK  status: ('A' for Active; 'I' for Inactive)
REMARK    1  A    between atoms: C_2  and  C_3 
REMARK    2  A    between atoms: C_3  and  N_4 
REMARK    3  A    between atoms: C_3  and  C_22 
REMARK       I    between atoms: N_4  and  C_5 
REMARK       I    between atoms: C_5  and  N_6 
REMARK    4  A    between atoms: N_6  and  C_7 
REMARK    5  A    between atoms: C_7  and  C_8 
REMARK    6  A    between atoms: C_11  and  N_12 
REMARK       I    between atoms: N_12  and  C_13 
REMARK       I    between atoms: C_13  and  N_14 
REMARK    7  A    between atoms: N_14  and  C_15 
ROOT
HETATM    1  N   UNL     1     -42.537  57.783 -52.570  1.00  0.00    -0.331 N 
HETATM    2  C   UNL     1     -42.038  58.981 -52.134  1.00  0.00     0.317 C 
HETATM    3  N   UNL     1     -42.775  59.481 -51.100  1.00  0.00    -0.339 N 
HETATM    4  O   UNL     1     -41.061  59.535 -52.622  1.00  0.00    -0.247 OA
HETATM    5  H   UNL     1     -43.505  57.629 -52.338  1.00  0.00     0.165 HD
HETATM    6  H   UNL     1     -43.260  58.806 -50.528  1.00  0.00     0.164 HD
ENDROOT
BRANCH   1   7
HETATM    7  C   UNL     1     -42.048  57.138 -53.787  1.00  0.00     0.159 C 
BRANCH   7   8
HETATM    8  C   UNL     1     -43.154  57.007 -54.870  1.00  0.00     0.008 C 
HETATM    9  C   UNL     1     -42.925  58.014 -56.005  1.00  0.00     0.012 C 
HETATM   10  C   UNL     1     -44.584  57.162 -54.334  1.00  0.00     0.012 C 
ENDBRANCH   7   8
BRANCH   7  11
HETATM   11  C   UNL     1     -41.415  55.810 -53.450  1.00  0.00     0.128 A 
HETATM   12  N   UNL     1     -41.131  55.318 -52.258  1.00  0.00    -0.231 NA
HETATM   13  C   UNL     1     -40.632  54.058 -52.482  1.00  0.00     0.085 A 
HETATM   14  C   UNL     1     -40.612  53.765 -53.839  1.00  0.00     0.062 A 
HETATM   15  C   UNL     1     -40.178  53.098 -51.567  1.00  0.00     0.034 A 
HETATM   16  N   UNL     1     -41.116  54.891 -54.432  1.00  0.00    -0.341 N 
HETATM   17  C   UNL     1     -40.155  52.552 -54.356  1.00  0.00     0.032 A 
HETATM   18  H   UNL     1     -41.239  55.057 -55.426  1.00  0.00     0.167 HD
HETATM   19  C   UNL     1     -39.706  51.604 -53.428  1.00  0.00     0.002 A 
HETATM   20  C   UNL     1     -39.716  51.869 -52.057  1.00  0.00     0.002 A 
ENDBRANCH   7  11
ENDBRANCH   1   7
BRANCH   3  21
HETATM   21  C   UNL     1     -42.418  60.729 -50.462  1.00  0.00     0.162 C 
BRANCH  21  22
HETATM   22  C   UNL     1     -43.656  61.548 -50.207  1.00  0.00    -0.040 A 
HETATM   23  C   UNL     1     -43.668  62.933 -50.398  1.00  0.00     0.011 A 
HETATM   24  C   UNL     1     -44.819  63.683 -50.121  1.00  0.00     0.030 A 
HETATM   25  C   UNL     1     -45.969  63.062 -49.628  1.00  0.00     0.036 A 
HETATM   26  C   UNL     1     -45.968  61.673 -49.472  1.00  0.00     0.030 A 
HETATM   27  C   UNL     1     -44.822  60.923 -49.747  1.00  0.00     0.011 A 
BRANCH  25  28
HETATM   28  N   UNL     1     -47.164  63.732 -49.311  1.00  0.00    -0.309 N 
HETATM   29  C   UNL     1     -48.318  63.957 -50.000  1.00  0.00     0.321 C 
HETATM   30  N   UNL     1     -48.292  63.742 -51.344  1.00  0.00    -0.339 N 
HETATM   31  O   UNL     1     -49.292  64.397 -49.394  1.00  0.00    -0.247 OA
HETATM   32  H   UNL     1     -47.378  63.881 -51.747  1.00  0.00     0.164 HD
HETATM   33  H   UNL     1     -47.228  64.121 -48.379  1.00  0.00     0.170 HD
BRANCH  30  34
HETATM   34  C   UNL     1     -49.411  64.035 -52.235  1.00  0.00     0.078 C 
HETATM   35  C   UNL     1     -48.980  64.687 -53.547  1.00  0.00     0.032 C 
HETATM   36  C   UNL     1     -50.278  62.802 -52.478  1.00  0.00     0.032 C 
ENDBRANCH  30  34
ENDBRANCH  25  28
ENDBRANCH  21  22
ENDBRANCH   3  21
TORSDOF 7
ENDMDL
MODEL 9
REMARK VINA RESULT:      -7.5      6.103      8.772
REMARK  7 active torsions:
REMARK  status: ('A' for Active; 'I' for Inactive)
REMARK    1  A    between atoms: C_2  and  C_3 
REMARK    2  A    between atoms: C_3  and  N_4 
REMARK    3  A    between atoms: C_3  and  C_22 
REMARK       I    between atoms: N_4  and  C_5 
REMARK       I    between atoms: C_5  and  N_6 
REMARK    4  A    between atoms: N_6  and  C_7 
REMARK    5  A    between atoms: C_7  and  C_8 
REMARK    6  A    between atoms: C_11  and  N_12 
REMARK       I    between atoms: N_12  and  C_13 
REMARK       I    between atoms: C_13  and  N_14 
REMARK    7  A    between atoms: N_14  and  C_15 
ROOT
HETATM    1  N   UNL     1     -41.467  56.010 -55.340  1.00  0.00    -0.331 N 
HETATM    2  C   UNL     1     -42.530  56.336 -56.140  1.00  0.00     0.317 C 
HETATM    3  N   UNL     1     -42.117  56.730 -57.380  1.00  0.00    -0.339 N 
HETATM    4  O   UNL     1     -43.699  56.291 -55.779  1.00  0.00    -0.247 OA
HETATM    5  H   UNL     1     -40.593  56.420 -55.625  1.00  0.00     0.165 HD
HETATM    6  H   UNL     1     -41.237  56.353 -57.700  1.00  0.00     0.164 HD
ENDROOT
BRANCH   1   7
HETATM    7  C   UNL     1     -41.628  55.746 -53.911  1.00  0.00     0.159 C 
BRANCH   7   8
HETATM    8  C   UNL     1     -41.033  56.879 -53.031  1.00  0.00     0.008 C 
HETATM    9  C   UNL     1     -41.866  57.073 -51.758  1.00  0.00     0.012 C 
HETATM   10  C   UNL     1     -40.886  58.227 -53.752  1.00  0.00     0.012 C 
ENDBRANCH   7   8
BRANCH   7  11
HETATM   11  C   UNL     1     -41.054  54.392 -53.569  1.00  0.00     0.128 A 
HETATM   12  N   UNL     1     -40.592  53.970 -52.406  1.00  0.00    -0.231 NA
HETATM   13  C   UNL     1     -40.249  52.653 -52.596  1.00  0.00     0.085 A 
HETATM   14  C   UNL     1     -40.508  52.254 -53.901  1.00  0.00     0.062 A 
HETATM   15  C   UNL     1     -39.711  51.728 -51.691  1.00  0.00     0.034 A 
HETATM   16  N   UNL     1     -41.020  53.374 -54.497  1.00  0.00    -0.341 N 
HETATM   17  C   UNL     1     -40.256  50.966 -54.374  1.00  0.00     0.032 A 
HETATM   18  H   UNL     1     -41.313  53.473 -55.464  1.00  0.00     0.167 HD
HETATM   19  C   UNL     1     -39.720  50.054 -53.456  1.00  0.00     0.002 A 
HETATM   20  C   UNL     1     -39.451  50.425 -52.137  1.00  0.00     0.002 A 
ENDBRANCH   7  11
ENDBRANCH   1   7
BRANCH   3  21
HETATM   21  C   UNL     1     -43.070  57.099 -58.403  1.00  0.00     0.162 C 
BRANCH  21  22
HETATM   22  C   UNL     1     -42.635  58.376 -59.074  1.00  0.00    -0.040 A 
HETATM   23  C   UNL     1     -42.272  58.405 -60.424  1.00  0.00     0.011 A 
HETATM   24  C   UNL     1     -41.836  59.595 -61.020  1.00  0.00     0.030 A 
HETATM   25  C   UNL     1     -41.735  60.769 -60.272  1.00  0.00     0.036 A 
HETATM   26  C   UNL     1     -42.133  60.748 -58.932  1.00  0.00     0.030 A 
HETATM   27  C   UNL     1     -42.569  59.563 -58.334  1.00  0.00     0.011 A 
BRANCH  25  28
HETATM   28  N   UNL     1     -41.298  62.006 -60.780  1.00  0.00    -0.309 N 
HETATM   29  C   UNL     1     -41.945  63.061 -61.352  1.00  0.00     0.321 C 
HETATM   30  N   UNL     1     -43.222  62.853 -61.774  1.00  0.00    -0.339 N 
HETATM   31  O   UNL     1     -41.331  64.112 -61.513  1.00  0.00    -0.247 OA
HETATM   32  H   UNL     1     -43.399  61.895 -62.036  1.00  0.00     0.164 HD
HETATM   33  H   UNL     1     -40.307  62.199 -60.703  1.00  0.00     0.170 HD
BRANCH  30  34
HETATM   34  C   UNL     1     -44.010  63.847 -62.495  1.00  0.00     0.078 C 
HETATM   35  C   UNL     1     -44.624  63.306 -63.785  1.00  0.00     0.032 C 
HETATM   36  C   UNL     1     -45.064  64.493 -61.599  1.00  0.00     0.032 C 
ENDBRANCH  30  34
ENDBRANCH  25  28
ENDBRANCH  21  22
ENDBRANCH   3  21
TORSDOF 7
ENDMDL
MODEL 10
REMARK VINA RESULT:      -7.5     18.133     20.571
REMARK  7 active torsions:
REMARK  status: ('A' for Active; 'I' for Inactive)
REMARK    1  A    between atoms: C_2  and  C_3 
REMARK    2  A    between atoms: C_3  and  N_4 
REMARK    3  A    between atoms: C_3  and  C_22 
REMARK       I    between atoms: N_4  and  C_5 
REMARK       I    between atoms: C_5  and  N_6 
REMARK    4  A    between atoms: N_6  and  C_7 
REMARK    5  A    between atoms: C_7  and  C_8 
REMARK    6  A    between atoms: C_11  and  N_12 
REMARK       I    between atoms: N_12  and  C_13 
REMARK       I    between atoms: C_13  and  N_14 
REMARK    7  A    between atoms: N_14  and  C_15 
ROOT
HETATM    1  N   UNL     1     -33.833  40.330 -54.821  1.00  0.00    -0.331 N 
HETATM    2  C   UNL     1     -34.470  40.214 -53.615  1.00  0.00     0.317 C 
HETATM    3  N   UNL     1     -34.125  41.230 -52.770  1.00  0.00    -0.339 N 
HETATM    4  O   UNL     1     -35.241  39.307 -53.331  1.00  0.00    -0.247 OA
HETATM    5  H   UNL     1     -32.993  40.885 -54.795  1.00  0.00     0.165 HD
HETATM    6  H   UNL     1     -33.843  42.096 -53.203  1.00  0.00     0.164 HD
ENDROOT
BRANCH   1   7
HETATM    7  C   UNL     1     -33.882  39.269 -55.826  1.00  0.00     0.159 C 
BRANCH   7   8
HETATM    8  C   UNL     1     -32.466  38.835 -56.294  1.00  0.00     0.008 C 
HETATM    9  C   UNL     1     -31.901  37.742 -55.378  1.00  0.00     0.012 C 
HETATM   10  C   UNL     1     -31.454  39.986 -56.395  1.00  0.00     0.012 C 
ENDBRANCH   7   8
BRANCH   7  11
HETATM   11  C   UNL     1     -34.763  39.688 -56.978  1.00  0.00     0.128 A 
HETATM   12  N   UNL     1     -35.222  38.947 -57.969  1.00  0.00    -0.231 NA
HETATM   13  C   UNL     1     -36.028  39.774 -58.714  1.00  0.00     0.085 A 
HETATM   14  C   UNL     1     -36.070  41.051 -58.168  1.00  0.00     0.062 A 
HETATM   15  C   UNL     1     -36.765  39.500 -59.874  1.00  0.00     0.034 A 
HETATM   16  N   UNL     1     -35.262  40.970 -57.067  1.00  0.00    -0.341 N 
HETATM   17  C   UNL     1     -36.812  42.096 -58.719  1.00  0.00     0.032 A 
HETATM   18  H   UNL     1     -35.033  41.718 -56.420  1.00  0.00     0.167 HD
HETATM   19  C   UNL     1     -37.543  41.805 -59.877  1.00  0.00     0.002 A 
HETATM   20  C   UNL     1     -37.523  40.530 -60.447  1.00  0.00     0.002 A 
ENDBRANCH   7  11
ENDBRANCH   1   7
BRANCH   3  21
HETATM   21  C   UNL     1     -34.694  41.326 -51.445  1.00  0.00     0.162 C 
BRANCH  21  22
HETATM   22  C   UNL     1     -33.969  40.399 -50.505  1.00  0.00    -0.040 A 
HETATM   23  C   UNL     1     -32.586  40.480 -50.321  1.00  0.00     0.011 A 
HETATM   24  C   UNL     1     -31.925  39.585 -49.468  1.00  0.00     0.030 A 
HETATM   25  C   UNL     1     -32.634  38.582 -48.805  1.00  0.00     0.036 A 
HETATM   26  C   UNL     1     -34.022  38.525 -48.960  1.00  0.00     0.030 A 
HETATM   27  C   UNL     1     -34.684  39.416 -49.810  1.00  0.00     0.011 A 
BRANCH  25  28
HETATM   28  N   UNL     1     -32.056  37.634 -47.942  1.00  0.00    -0.309 N 
HETATM   29  C   UNL     1     -31.575  37.703 -46.669  1.00  0.00     0.321 C 
HETATM   30  N   UNL     1     -31.344  38.943 -46.157  1.00  0.00    -0.339 N 
HETATM   31  O   UNL     1     -31.316  36.658 -46.077  1.00  0.00    -0.247 OA
HETATM   32  H   UNL     1     -31.118  39.625 -46.865  1.00  0.00     0.164 HD
HETATM   33  H   UNL     1     -31.987  36.687 -48.294  1.00  0.00     0.170 HD
BRANCH  30  34
HETATM   34  C   UNL     1     -30.735  39.182 -44.852  1.00  0.00     0.078 C 
HETATM   35  C   UNL     1     -29.999  40.519 -44.769  1.00  0.00     0.032 C 
HETATM   36  C   UNL     1     -31.745  39.025 -43.718  1.00  0.00     0.032 C 
ENDBRANCH  30  34
ENDBRANCH  25  28
ENDBRANCH  21  22
ENDBRANCH   3  21
TORSDOF 7
ENDMDL
