MODEL 1
REMARK VINA RESULT:      -8.9      0.000      0.000
REMARK  6 active torsions:
REMARK  status: ('A' for Active; 'I' for Inactive)
REMARK    1  A    between atoms: O_2  and  C_3 
REMARK    2  A    between atoms: C_3  and  C_4 
REMARK    3  A    between atoms: C_7  and  C_8 
REMARK    4  A    between atoms: C_8  and  O_9 
REMARK    5  A    between atoms: O_9  and  C_10 
REMARK    6  A    between atoms: C_13  and  C_14 
ROOT
HETATM    1  C   UNL     1     -43.012  57.795 -54.291  1.00  0.00     0.069 A 
HETATM    2  C   UNL     1     -41.725  57.944 -53.775  1.00  0.00     0.037 A 
HETATM    3  C   UNL     1     -41.337  57.245 -52.629  1.00  0.00     0.014 A 
HETATM    4  C   UNL     1     -42.245  56.401 -51.984  1.00  0.00    -0.035 A 
HETATM    5  C   UNL     1     -43.554  56.299 -52.467  1.00  0.00     0.014 A 
HETATM    6  C   UNL     1     -43.940  57.002 -53.613  1.00  0.00     0.037 A 
ENDROOT
BRANCH   1   7
HETATM    7  O   UNL     1     -43.259  58.470 -55.456  1.00  0.00    -0.347 OA
BRANCH   7   8
HETATM    8  C   UNL     1     -42.446  58.089 -56.569  1.00  0.00     0.214 C 
BRANCH   8   9
HETATM    9  C   UNL     1     -43.316  57.491 -57.654  1.00  0.00    -0.034 A 
HETATM   10  C   UNL     1     -42.942  56.289 -58.272  1.00  0.00     0.010 A 
HETATM   11  C   UNL     1     -43.744  55.718 -59.263  1.00  0.00     0.018 A 
HETATM   12  C   UNL     1     -44.940  56.334 -59.648  1.00  0.00     0.039 A 
HETATM   13  C   UNL     1     -45.325  57.530 -59.030  1.00  0.00     0.018 A 
HETATM   14  C   UNL     1     -44.520  58.101 -58.037  1.00  0.00     0.010 A 
BRANCH  12  15
HETATM   15  C   UNL     1     -45.753  55.678 -60.710  1.00  0.00     0.292 C 
HETATM   16  O   UNL     1     -45.270  55.032 -61.627  1.00  0.00    -0.259 OA
BRANCH  15  17
HETATM   17  O   UNL     1     -47.077  55.891 -60.504  1.00  0.00    -0.323 OA
HETATM   18  C   UNL     1     -47.735  56.533 -61.598  1.00  0.00     0.213 C 
ENDBRANCH  15  17
ENDBRANCH  12  15
ENDBRANCH   8   9
ENDBRANCH   7   8
ENDBRANCH   1   7
BRANCH   4  19
HETATM   19  C   UNL     1     -41.815  55.590 -50.848  1.00  0.00     0.029 C 
HETATM   20  C   UNL     1     -41.194  54.404 -50.903  1.00  0.00     0.045 A 
HETATM   21  C   UNL     1     -40.838  53.688 -49.625  1.00  0.00     0.257 A 
HETATM   22  C   UNL     1     -40.745  53.560 -52.012  1.00  0.00     0.006 A 
HETATM   23  O   UNL     1     -41.038  54.061 -48.484  1.00  0.00    -0.267 OA
HETATM   24  N   UNL     1     -40.234  52.510 -50.030  1.00  0.00    -0.322 N 
HETATM   25  C   UNL     1     -40.173  52.426 -51.419  1.00  0.00     0.046 A 
HETATM   26  H   UNL     1     -39.889  51.822 -49.380  1.00  0.00     0.169 HD
HETATM   27  C   UNL     1     -39.632  51.391 -52.154  1.00  0.00     0.030 A 
HETATM   28  C   UNL     1     -39.667  51.508 -53.545  1.00  0.00     0.002 A 
HETATM   29  C   UNL     1     -40.235  52.642 -54.156  1.00  0.00     0.001 A 
HETATM   30  C   UNL     1     -40.779  53.680 -53.389  1.00  0.00     0.015 A 
ENDBRANCH   4  19
TORSDOF 6
ENDMDL
MODEL 2
REMARK VINA RESULT:      -8.7      1.570      2.094
REMARK  6 active torsions:
REMARK  status: ('A' for Active; 'I' for Inactive)
REMARK    1  A    between atoms: O_2  and  C_3 
REMARK    2  A    between atoms: C_3  and  C_4 
REMARK    3  A    between atoms: C_7  and  C_8 
REMARK    4  A    between atoms: C_8  and  O_9 
REMARK    5  A    between atoms: O_9  and  C_10 
REMARK    6  A    between atoms: C_13  and  C_14 
ROOT
HETATM    1  C   UNL     1     -43.025  58.422 -52.787  1.00  0.00     0.069 A 
HETATM    2  C   UNL     1     -41.724  58.467 -52.285  1.00  0.00     0.037 A 
HETATM    3  C   UNL     1     -41.301  57.537 -51.331  1.00  0.00     0.014 A 
HETATM    4  C   UNL     1     -42.188  56.564 -50.862  1.00  0.00    -0.035 A 
HETATM    5  C   UNL     1     -43.509  56.558 -51.321  1.00  0.00     0.014 A 
HETATM    6  C   UNL     1     -43.930  57.491 -52.274  1.00  0.00     0.037 A 
ENDROOT
BRANCH   1   7
HETATM    7  O   UNL     1     -43.306  59.333 -53.769  1.00  0.00    -0.347 OA
BRANCH   7   8
HETATM    8  C   UNL     1     -42.259  59.557 -54.717  1.00  0.00     0.214 C 
BRANCH   8   9
HETATM    9  C   UNL     1     -42.435  58.628 -55.898  1.00  0.00    -0.034 A 
HETATM   10  C   UNL     1     -42.385  59.135 -57.205  1.00  0.00     0.010 A 
HETATM   11  C   UNL     1     -42.531  58.286 -58.305  1.00  0.00     0.018 A 
HETATM   12  C   UNL     1     -42.721  56.913 -58.119  1.00  0.00     0.039 A 
HETATM   13  C   UNL     1     -42.765  56.397 -56.817  1.00  0.00     0.018 A 
HETATM   14  C   UNL     1     -42.619  57.249 -55.717  1.00  0.00     0.010 A 
BRANCH  12  15
HETATM   15  C   UNL     1     -42.870  56.058 -59.330  1.00  0.00     0.292 C 
HETATM   16  O   UNL     1     -42.212  56.210 -60.347  1.00  0.00    -0.259 OA
BRANCH  15  17
HETATM   17  O   UNL     1     -43.814  55.104 -59.133  1.00  0.00    -0.323 OA
HETATM   18  C   UNL     1     -44.804  55.051 -60.161  1.00  0.00     0.213 C 
ENDBRANCH  15  17
ENDBRANCH  12  15
ENDBRANCH   8   9
ENDBRANCH   7   8
ENDBRANCH   1   7
BRANCH   4  19
HETATM   19  C   UNL     1     -41.723  55.529 -49.943  1.00  0.00     0.029 C 
HETATM   20  C   UNL     1     -41.153  54.363 -50.276  1.00  0.00     0.045 A 
HETATM   21  C   UNL     1     -40.750  53.392 -49.195  1.00  0.00     0.257 A 
HETATM   22  C   UNL     1     -40.803  53.750 -51.560  1.00  0.00     0.006 A 
HETATM   23  O   UNL     1     -40.867  53.531 -47.991  1.00  0.00    -0.267 OA
HETATM   24  N   UNL     1     -40.217  52.307 -49.868  1.00  0.00    -0.322 N 
HETATM   25  C   UNL     1     -40.242  52.505 -51.246  1.00  0.00     0.046 A 
HETATM   26  H   UNL     1     -39.861  51.492 -49.394  1.00  0.00     0.169 HD
HETATM   27  C   UNL     1     -39.786  51.627 -52.208  1.00  0.00     0.030 A 
HETATM   28  C   UNL     1     -39.898  52.025 -53.541  1.00  0.00     0.002 A 
HETATM   29  C   UNL     1     -40.457  53.274 -53.873  1.00  0.00     0.001 A 
HETATM   30  C   UNL     1     -40.915  54.148 -52.879  1.00  0.00     0.015 A 
ENDBRANCH   4  19
TORSDOF 6
ENDMDL
MODEL 3
REMARK VINA RESULT:      -8.6      3.110      6.308
REMARK  6 active torsions:
REMARK  status: ('A' for Active; 'I' for Inactive)
REMARK    1  A    between atoms: O_2  and  C_3 
REMARK    2  A    between atoms: C_3  and  C_4 
REMARK    3  A    between atoms: C_7  and  C_8 
REMARK    4  A    between atoms: C_8  and  O_9 
REMARK    5  A    between atoms: O_9  and  C_10 
REMARK    6  A    between atoms: C_13  and  C_14 
ROOT
HETATM    1  C   UNL     1     -42.894  56.156 -55.743  1.00  0.00     0.069 A 
HETATM    2  C   UNL     1     -43.562  54.958 -55.486  1.00  0.00     0.037 A 
HETATM    3  C   UNL     1     -42.882  53.877 -54.919  1.00  0.00     0.014 A 
HETATM    4  C   UNL     1     -41.521  53.986 -54.620  1.00  0.00    -0.035 A 
HETATM    5  C   UNL     1     -40.839  55.166 -54.934  1.00  0.00     0.014 A 
HETATM    6  C   UNL     1     -41.522  56.246 -55.504  1.00  0.00     0.037 A 
ENDROOT
BRANCH   1   7
HETATM    7  O   UNL     1     -43.674  57.170 -56.231  1.00  0.00    -0.347 OA
BRANCH   7   8
HETATM    8  C   UNL     1     -44.659  57.675 -55.325  1.00  0.00     0.214 C 
BRANCH   8   9
HETATM    9  C   UNL     1     -43.978  58.259 -54.106  1.00  0.00    -0.034 A 
HETATM   10  C   UNL     1     -43.157  59.389 -54.233  1.00  0.00     0.010 A 
HETATM   11  C   UNL     1     -42.535  59.947 -53.114  1.00  0.00     0.018 A 
HETATM   12  C   UNL     1     -42.728  59.390 -51.845  1.00  0.00     0.039 A 
HETATM   13  C   UNL     1     -43.553  58.266 -51.709  1.00  0.00     0.018 A 
HETATM   14  C   UNL     1     -44.175  57.708 -52.831  1.00  0.00     0.010 A 
BRANCH  12  15
HETATM   15  C   UNL     1     -42.039  60.029 -50.689  1.00  0.00     0.292 C 
HETATM   16  O   UNL     1     -42.316  61.142 -50.271  1.00  0.00    -0.259 OA
BRANCH  15  17
HETATM   17  O   UNL     1     -41.090  59.205 -50.179  1.00  0.00    -0.323 OA
HETATM   18  C   UNL     1     -39.753  59.644 -50.424  1.00  0.00     0.213 C 
ENDBRANCH  15  17
ENDBRANCH  12  15
ENDBRANCH   8   9
ENDBRANCH   7   8
ENDBRANCH   1   7
BRANCH   4  19
HETATM   19  C   UNL     1     -40.830  52.897 -53.934  1.00  0.00     0.029 C 
HETATM   20  C   UNL     1     -40.583  52.811 -52.620  1.00  0.00     0.045 A 
HETATM   21  C   UNL     1     -39.833  51.620 -52.078  1.00  0.00     0.257 A 
HETATM   22  C   UNL     1     -40.890  53.682 -51.484  1.00  0.00     0.006 A 
HETATM   23  O   UNL     1     -39.405  50.666 -52.701  1.00  0.00    -0.267 OA
HETATM   24  N   UNL     1     -39.736  51.847 -50.717  1.00  0.00    -0.322 N 
HETATM   25  C   UNL     1     -40.350  53.045 -50.359  1.00  0.00     0.046 A 
HETATM   26  H   UNL     1     -39.277  51.207 -50.088  1.00  0.00     0.169 HD
HETATM   27  C   UNL     1     -40.440  53.571 -49.087  1.00  0.00     0.030 A 
HETATM   28  C   UNL     1     -41.107  54.789 -48.945  1.00  0.00     0.002 A 
HETATM   29  C   UNL     1     -41.659  55.441 -50.064  1.00  0.00     0.001 A 
HETATM   30  C   UNL     1     -41.553  54.888 -51.347  1.00  0.00     0.015 A 
ENDBRANCH   4  19
TORSDOF 6
ENDMDL
MODEL 4
REMARK VINA RESULT:      -8.3      1.252      1.644
REMARK  6 active torsions:
REMARK  status: ('A' for Active; 'I' for Inactive)
REMARK    1  A    between atoms: O_2  and  C_3 
REMARK    2  A    between atoms: C_3  and  C_4 
REMARK    3  A    between atoms: C_7  and  C_8 
REMARK    4  A    between atoms: C_8  and  O_9 
REMARK    5  A    between atoms: O_9  and  C_10 
REMARK    6  A    between atoms: C_13  and  C_14 
ROOT
HETATM    1  C   UNL     1     -42.783  56.665 -55.645  1.00  0.00     0.069 A 
HETATM    2  C   UNL     1     -41.751  57.280 -54.935  1.00  0.00     0.037 A 
HETATM    3  C   UNL     1     -41.479  56.907 -53.616  1.00  0.00     0.014 A 
HETATM    4  C   UNL     1     -42.252  55.923 -52.995  1.00  0.00    -0.035 A 
HETATM    5  C   UNL     1     -43.325  55.351 -53.686  1.00  0.00     0.014 A 
HETATM    6  C   UNL     1     -43.596  55.727 -55.006  1.00  0.00     0.037 A 
ENDROOT
BRANCH   1   7
HETATM    7  O   UNL     1     -42.912  57.056 -56.950  1.00  0.00    -0.347 OA
BRANCH   7   8
HETATM    8  C   UNL     1     -43.068  55.995 -57.896  1.00  0.00     0.214 C 
BRANCH   8   9
HETATM    9  C   UNL     1     -44.228  56.302 -58.819  1.00  0.00    -0.034 A 
HETATM   10  C   UNL     1     -44.660  55.344 -59.748  1.00  0.00     0.010 A 
HETATM   11  C   UNL     1     -45.739  55.608 -60.594  1.00  0.00     0.018 A 
HETATM   12  C   UNL     1     -46.411  56.832 -60.522  1.00  0.00     0.039 A 
HETATM   13  C   UNL     1     -45.991  57.792 -59.592  1.00  0.00     0.018 A 
HETATM   14  C   UNL     1     -44.910  57.525 -58.745  1.00  0.00     0.010 A 
BRANCH  12  15
HETATM   15  C   UNL     1     -47.555  57.057 -61.451  1.00  0.00     0.292 C 
HETATM   16  O   UNL     1     -47.932  56.231 -62.267  1.00  0.00    -0.259 OA
BRANCH  15  17
HETATM   17  O   UNL     1     -48.105  58.280 -61.250  1.00  0.00    -0.323 OA
HETATM   18  C   UNL     1     -48.164  59.086 -62.428  1.00  0.00     0.213 C 
ENDBRANCH  15  17
ENDBRANCH  12  15
ENDBRANCH   8   9
ENDBRANCH   7   8
ENDBRANCH   1   7
BRANCH   4  19
HETATM   19  C   UNL     1     -41.909  55.457 -51.654  1.00  0.00     0.029 C 
HETATM   20  C   UNL     1     -41.266  54.323 -51.343  1.00  0.00     0.045 A 
HETATM   21  C   UNL     1     -41.010  53.983 -49.896  1.00  0.00     0.257 A 
HETATM   22  C   UNL     1     -40.709  53.235 -52.149  1.00  0.00     0.006 A 
HETATM   23  O   UNL     1     -41.313  54.635 -48.915  1.00  0.00    -0.267 OA
HETATM   24  N   UNL     1     -40.353  52.765 -49.926  1.00  0.00    -0.322 N 
HETATM   25  C   UNL     1     -40.172  52.320 -51.234  1.00  0.00     0.046 A 
HETATM   26  H   UNL     1     -40.054  52.285 -49.091  1.00  0.00     0.169 HD
HETATM   27  C   UNL     1     -39.553  51.150 -51.622  1.00  0.00     0.030 A 
HETATM   28  C   UNL     1     -39.469  50.895 -52.992  1.00  0.00     0.002 A 
HETATM   29  C   UNL     1     -40.001  51.805 -53.925  1.00  0.00     0.001 A 
HETATM   30  C   UNL     1     -40.627  52.987 -53.507  1.00  0.00     0.015 A 
ENDBRANCH   4  19
TORSDOF 6
ENDMDL
MODEL 5
REMARK VINA RESULT:      -8.2      1.952      2.967
REMARK  6 active torsions:
REMARK  status: ('A' for Active; 'I' for Inactive)
REMARK    1  A    between atoms: O_2  and  C_3 
REMARK    2  A    between atoms: C_3  and  C_4 
REMARK    3  A    between atoms: C_7  and  C_8 
REMARK    4  A    between atoms: C_8  and  O_9 
REMARK    5  A    between atoms: O_9  and  C_10 
REMARK    6  A    between atoms: C_13  and  C_14 
ROOT
HETATM    1  C   UNL     1     -42.846  58.970 -51.705  1.00  0.00     0.069 A 
HETATM    2  C   UNL     1     -43.660  57.838 -51.653  1.00  0.00     0.037 A 
HETATM    3  C   UNL     1     -43.173  56.640 -51.122  1.00  0.00     0.014 A 
HETATM    4  C   UNL     1     -41.860  56.567 -50.652  1.00  0.00    -0.035 A 
HETATM    5  C   UNL     1     -41.025  57.684 -50.761  1.00  0.00     0.014 A 
HETATM    6  C   UNL     1     -41.515  58.881 -51.295  1.00  0.00     0.037 A 
ENDROOT
BRANCH   1   7
HETATM    7  O   UNL     1     -43.449  60.105 -52.176  1.00  0.00    -0.347 OA
BRANCH   7   8
HETATM    8  C   UNL     1     -42.856  60.672 -53.348  1.00  0.00     0.214 C 
BRANCH   8   9
HETATM    9  C   UNL     1     -43.181  59.811 -54.550  1.00  0.00    -0.034 A 
HETATM   10  C   UNL     1     -42.149  59.202 -55.278  1.00  0.00     0.010 A 
HETATM   11  C   UNL     1     -42.436  58.392 -56.380  1.00  0.00     0.018 A 
HETATM   12  C   UNL     1     -43.761  58.170 -56.769  1.00  0.00     0.039 A 
HETATM   13  C   UNL     1     -44.798  58.768 -56.042  1.00  0.00     0.018 A 
HETATM   14  C   UNL     1     -44.509  59.579 -54.939  1.00  0.00     0.010 A 
BRANCH  12  15
HETATM   15  C   UNL     1     -44.005  57.297 -57.951  1.00  0.00     0.292 C 
HETATM   16  O   UNL     1     -45.041  57.313 -58.598  1.00  0.00    -0.259 OA
BRANCH  15  17
HETATM   17  O   UNL     1     -42.928  56.512 -58.201  1.00  0.00    -0.323 OA
HETATM   18  C   UNL     1     -42.965  55.869 -59.476  1.00  0.00     0.213 C 
ENDBRANCH  15  17
ENDBRANCH  12  15
ENDBRANCH   8   9
ENDBRANCH   7   8
ENDBRANCH   1   7
BRANCH   4  19
HETATM   19  C   UNL     1     -41.378  55.350 -50.003  1.00  0.00     0.029 C 
HETATM   20  C   UNL     1     -40.915  54.250 -50.612  1.00  0.00     0.045 A 
HETATM   21  C   UNL     1     -40.476  53.068 -49.785  1.00  0.00     0.257 A 
HETATM   22  C   UNL     1     -40.723  53.890 -52.018  1.00  0.00     0.006 A 
HETATM   23  O   UNL     1     -40.474  52.970 -48.572  1.00  0.00    -0.267 OA
HETATM   24  N   UNL     1     -40.076  52.116 -50.706  1.00  0.00    -0.322 N 
HETATM   25  C   UNL     1     -40.214  52.584 -52.010  1.00  0.00     0.046 A 
HETATM   26  H   UNL     1     -39.729  51.208 -50.437  1.00  0.00     0.169 HD
HETATM   27  C   UNL     1     -39.904  51.896 -53.165  1.00  0.00     0.030 A 
HETATM   28  C   UNL     1     -40.112  52.555 -54.377  1.00  0.00     0.002 A 
HETATM   29  C   UNL     1     -40.620  53.868 -54.403  1.00  0.00     0.001 A 
HETATM   30  C   UNL     1     -40.930  54.547 -53.218  1.00  0.00     0.015 A 
ENDBRANCH   4  19
TORSDOF 6
ENDMDL
MODEL 6
REMARK VINA RESULT:      -8.2      3.651      7.987
REMARK  6 active torsions:
REMARK  status: ('A' for Active; 'I' for Inactive)
REMARK    1  A    between atoms: O_2  and  C_3 
REMARK    2  A    between atoms: C_3  and  C_4 
REMARK    3  A    between atoms: C_7  and  C_8 
REMARK    4  A    between atoms: C_8  and  O_9 
REMARK    5  A    between atoms: O_9  and  C_10 
REMARK    6  A    between atoms: C_13  and  C_14 
ROOT
HETATM    1  C   UNL     1     -42.461  57.817 -51.923  1.00  0.00     0.069 A 
HETATM    2  C   UNL     1     -43.568  58.377 -52.560  1.00  0.00     0.037 A 
HETATM    3  C   UNL     1     -43.411  59.103 -53.744  1.00  0.00     0.014 A 
HETATM    4  C   UNL     1     -42.137  59.284 -54.289  1.00  0.00    -0.035 A 
HETATM    5  C   UNL     1     -41.021  58.774 -53.617  1.00  0.00     0.014 A 
HETATM    6  C   UNL     1     -41.181  58.050 -52.431  1.00  0.00     0.037 A 
ENDROOT
BRANCH   1   7
HETATM    7  O   UNL     1     -42.740  57.067 -50.813  1.00  0.00    -0.347 OA
BRANCH   7   8
HETATM    8  C   UNL     1     -43.452  55.851 -51.058  1.00  0.00     0.214 C 
BRANCH   8   9
HETATM    9  C   UNL     1     -42.496  54.795 -51.569  1.00  0.00    -0.034 A 
HETATM   10  C   UNL     1     -41.574  54.200 -50.696  1.00  0.00     0.010 A 
HETATM   11  C   UNL     1     -40.696  53.213 -51.151  1.00  0.00     0.018 A 
HETATM   12  C   UNL     1     -40.730  52.797 -52.487  1.00  0.00     0.039 A 
HETATM   13  C   UNL     1     -41.653  53.382 -53.363  1.00  0.00     0.018 A 
HETATM   14  C   UNL     1     -42.531  54.370 -52.906  1.00  0.00     0.010 A 
BRANCH  12  15
HETATM   15  C   UNL     1     -39.770  51.741 -52.914  1.00  0.00     0.292 C 
HETATM   16  O   UNL     1     -38.951  51.232 -52.164  1.00  0.00    -0.259 OA
BRANCH  15  17
HETATM   17  O   UNL     1     -39.944  51.433 -54.223  1.00  0.00    -0.323 OA
HETATM   18  C   UNL     1     -39.941  50.029 -54.490  1.00  0.00     0.213 C 
ENDBRANCH  15  17
ENDBRANCH  12  15
ENDBRANCH   8   9
ENDBRANCH   7   8
ENDBRANCH   1   7
BRANCH   4  19
HETATM   19  C   UNL     1     -41.977  59.953 -55.578  1.00  0.00     0.029 C 
HETATM   20  C   UNL     1     -42.097  59.392 -56.789  1.00  0.00     0.045 A 
HETATM   21  C   UNL     1     -41.877  60.228 -58.024  1.00  0.00     0.257 A 
HETATM   22  C   UNL     1     -42.413  58.034 -57.236  1.00  0.00     0.006 A 
HETATM   23  O   UNL     1     -41.599  61.411 -58.080  1.00  0.00    -0.267 OA
HETATM   24  N   UNL     1     -42.058  59.356 -59.083  1.00  0.00    -0.322 N 
HETATM   25  C   UNL     1     -42.372  58.075 -58.636  1.00  0.00     0.046 A 
HETATM   26  H   UNL     1     -41.971  59.641 -60.046  1.00  0.00     0.169 HD
HETATM   27  C   UNL     1     -42.620  56.970 -59.424  1.00  0.00     0.030 A 
HETATM   28  C   UNL     1     -42.925  55.775 -58.770  1.00  0.00     0.002 A 
HETATM   29  C   UNL     1     -42.973  55.716 -57.365  1.00  0.00     0.001 A 
HETATM   30  C   UNL     1     -42.716  56.851 -56.585  1.00  0.00     0.015 A 
ENDBRANCH   4  19
TORSDOF 6
ENDMDL
MODEL 7
REMARK VINA RESULT:      -8.0     15.271     19.423
REMARK  6 active torsions:
REMARK  status: ('A' for Active; 'I' for Inactive)
REMARK    1  A    between atoms: O_2  and  C_3 
REMARK    2  A    between atoms: C_3  and  C_4 
REMARK    3  A    between atoms: C_7  and  C_8 
REMARK    4  A    between atoms: C_8  and  O_9 
REMARK    5  A    between atoms: O_9  and  C_10 
REMARK    6  A    between atoms: C_13  and  C_14 
ROOT
HETATM    1  C   UNL     1     -36.568  41.472 -53.409  1.00  0.00     0.069 A 
HETATM    2  C   UNL     1     -35.524  42.018 -54.157  1.00  0.00     0.037 A 
HETATM    3  C   UNL     1     -35.677  42.239 -55.528  1.00  0.00     0.014 A 
HETATM    4  C   UNL     1     -36.874  41.899 -56.162  1.00  0.00    -0.035 A 
HETATM    5  C   UNL     1     -37.897  41.296 -55.423  1.00  0.00     0.014 A 
HETATM    6  C   UNL     1     -37.741  41.074 -54.051  1.00  0.00     0.037 A 
ENDROOT
BRANCH   1   7
HETATM    7  O   UNL     1     -36.334  41.368 -52.064  1.00  0.00    -0.347 OA
BRANCH   7   8
HETATM    8  C   UNL     1     -36.287  40.034 -51.552  1.00  0.00     0.214 C 
BRANCH   8   9
HETATM    9  C   UNL     1     -35.061  39.866 -50.680  1.00  0.00    -0.034 A 
HETATM   10  C   UNL     1     -35.052  38.908 -49.656  1.00  0.00     0.010 A 
HETATM   11  C   UNL     1     -33.921  38.732 -48.855  1.00  0.00     0.018 A 
HETATM   12  C   UNL     1     -32.776  39.506 -49.067  1.00  0.00     0.039 A 
HETATM   13  C   UNL     1     -32.774  40.461 -50.092  1.00  0.00     0.018 A 
HETATM   14  C   UNL     1     -33.907  40.635 -50.894  1.00  0.00     0.010 A 
BRANCH  12  15
HETATM   15  C   UNL     1     -31.601  39.274 -48.181  1.00  0.00     0.292 C 
HETATM   16  O   UNL     1     -30.482  39.699 -48.420  1.00  0.00    -0.259 OA
BRANCH  15  17
HETATM   17  O   UNL     1     -31.956  38.546 -47.093  1.00  0.00    -0.323 OA
HETATM   18  C   UNL     1     -30.866  37.856 -46.480  1.00  0.00     0.213 C 
ENDBRANCH  15  17
ENDBRANCH  12  15
ENDBRANCH   8   9
ENDBRANCH   7   8
ENDBRANCH   1   7
BRANCH   4  19
HETATM   19  C   UNL     1     -37.077  42.221 -57.572  1.00  0.00     0.029 C 
HETATM   20  C   UNL     1     -37.095  41.356 -58.595  1.00  0.00     0.045 A 
HETATM   21  C   UNL     1     -37.296  41.864 -60.000  1.00  0.00     0.257 A 
HETATM   22  C   UNL     1     -36.945  39.901 -58.677  1.00  0.00     0.006 A 
HETATM   23  O   UNL     1     -37.463  43.016 -60.356  1.00  0.00    -0.267 OA
HETATM   24  N   UNL     1     -37.247  40.736 -60.799  1.00  0.00    -0.322 N 
HETATM   25  C   UNL     1     -37.044  39.586 -60.039  1.00  0.00     0.046 A 
HETATM   26  H   UNL     1     -37.352  40.771 -61.801  1.00  0.00     0.169 HD
HETATM   27  C   UNL     1     -36.951  38.295 -60.516  1.00  0.00     0.030 A 
HETATM   28  C   UNL     1     -36.752  37.280 -59.579  1.00  0.00     0.002 A 
HETATM   29  C   UNL     1     -36.653  37.579 -58.207  1.00  0.00     0.001 A 
HETATM   30  C   UNL     1     -36.749  38.898 -57.746  1.00  0.00     0.015 A 
ENDBRANCH   4  19
TORSDOF 6
ENDMDL
MODEL 8
REMARK VINA RESULT:      -8.0     15.621     19.607
REMARK  6 active torsions:
REMARK  status: ('A' for Active; 'I' for Inactive)
REMARK    1  A    between atoms: O_2  and  C_3 
REMARK    2  A    between atoms: C_3  and  C_4 
REMARK    3  A    between atoms: C_7  and  C_8 
REMARK    4  A    between atoms: C_8  and  O_9 
REMARK    5  A    between atoms: O_9  and  C_10 
REMARK    6  A    between atoms: C_13  and  C_14 
ROOT
HETATM    1  C   UNL     1     -37.500  40.972 -57.369  1.00  0.00     0.069 A 
HETATM    2  C   UNL     1     -37.509  39.592 -57.572  1.00  0.00     0.037 A 
HETATM    3  C   UNL     1     -37.418  39.067 -58.863  1.00  0.00     0.014 A 
HETATM    4  C   UNL     1     -37.331  39.925 -59.963  1.00  0.00    -0.035 A 
HETATM    5  C   UNL     1     -37.383  41.308 -59.763  1.00  0.00     0.014 A 
HETATM    6  C   UNL     1     -37.477  41.831 -58.469  1.00  0.00     0.037 A 
ENDROOT
BRANCH   1   7
HETATM    7  O   UNL     1     -37.520  41.373 -56.060  1.00  0.00    -0.347 OA
BRANCH   7   8
HETATM    8  C   UNL     1     -36.489  42.290 -55.683  1.00  0.00     0.214 C 
BRANCH   8   9
HETATM    9  C   UNL     1     -35.182  41.546 -55.515  1.00  0.00    -0.034 A 
HETATM   10  C   UNL     1     -34.325  41.375 -56.612  1.00  0.00     0.010 A 
HETATM   11  C   UNL     1     -33.109  40.704 -56.467  1.00  0.00     0.018 A 
HETATM   12  C   UNL     1     -32.723  40.198 -55.221  1.00  0.00     0.039 A 
HETATM   13  C   UNL     1     -33.570  40.371 -54.119  1.00  0.00     0.018 A 
HETATM   14  C   UNL     1     -34.788  41.044 -54.266  1.00  0.00     0.010 A 
BRANCH  12  15
HETATM   15  C   UNL     1     -31.414  39.492 -55.129  1.00  0.00     0.292 C 
HETATM   16  O   UNL     1     -31.175  38.622 -54.306  1.00  0.00    -0.259 OA
BRANCH  15  17
HETATM   17  O   UNL     1     -30.557  39.941 -56.078  1.00  0.00    -0.323 OA
HETATM   18  C   UNL     1     -29.773  38.910 -56.682  1.00  0.00     0.213 C 
ENDBRANCH  15  17
ENDBRANCH  12  15
ENDBRANCH   8   9
ENDBRANCH   7   8
ENDBRANCH   1   7
BRANCH   4  19
HETATM   19  C   UNL     1     -37.132  39.382 -61.304  1.00  0.00     0.029 C 
HETATM   20  C   UNL     1     -38.005  38.647 -62.006  1.00  0.00     0.045 A 
HETATM   21  C   UNL     1     -37.628  38.147 -63.377  1.00  0.00     0.257 A 
HETATM   22  C   UNL     1     -39.360  38.166 -61.727  1.00  0.00     0.006 A 
HETATM   23  O   UNL     1     -36.585  38.335 -63.975  1.00  0.00    -0.267 OA
HETATM   24  N   UNL     1     -38.726  37.424 -63.809  1.00  0.00    -0.322 N 
HETATM   25  C   UNL     1     -39.741  37.429 -62.856  1.00  0.00     0.046 A 
HETATM   26  H   UNL     1     -38.759  36.965 -64.706  1.00  0.00     0.169 HD
HETATM   27  C   UNL     1     -40.970  36.811 -62.965  1.00  0.00     0.030 A 
HETATM   28  C   UNL     1     -41.852  36.947 -61.892  1.00  0.00     0.002 A 
HETATM   29  C   UNL     1     -41.485  37.686 -60.751  1.00  0.00     0.001 A 
HETATM   30  C   UNL     1     -40.231  38.303 -60.662  1.00  0.00     0.015 A 
ENDBRANCH   4  19
TORSDOF 6
ENDMDL
MODEL 9
REMARK VINA RESULT:      -7.8     15.511     17.425
REMARK  6 active torsions:
REMARK  status: ('A' for Active; 'I' for Inactive)
REMARK    1  A    between atoms: O_2  and  C_3 
REMARK    2  A    between atoms: C_3  and  C_4 
REMARK    3  A    between atoms: C_7  and  C_8 
REMARK    4  A    between atoms: C_8  and  O_9 
REMARK    5  A    between atoms: O_9  and  C_10 
REMARK    6  A    between atoms: C_13  and  C_14 
ROOT
HETATM    1  C   UNL     1     -35.664  41.501 -53.592  1.00  0.00     0.069 A 
HETATM    2  C   UNL     1     -34.742  40.492 -53.872  1.00  0.00     0.037 A 
HETATM    3  C   UNL     1     -33.746  40.168 -52.947  1.00  0.00     0.014 A 
HETATM    4  C   UNL     1     -33.659  40.865 -51.740  1.00  0.00    -0.035 A 
HETATM    5  C   UNL     1     -34.546  41.916 -51.486  1.00  0.00     0.014 A 
HETATM    6  C   UNL     1     -35.541  42.240 -52.415  1.00  0.00     0.037 A 
ENDROOT
BRANCH   1   7
HETATM    7  O   UNL     1     -36.638  41.683 -54.536  1.00  0.00    -0.347 OA
BRANCH   7   8
HETATM    8  C   UNL     1     -36.197  42.262 -55.768  1.00  0.00     0.214 C 
BRANCH   8   9
HETATM    9  C   UNL     1     -36.765  41.477 -56.931  1.00  0.00    -0.034 A 
HETATM   10  C   UNL     1     -36.720  42.010 -58.227  1.00  0.00     0.010 A 
HETATM   11  C   UNL     1     -37.226  41.289 -59.312  1.00  0.00     0.018 A 
HETATM   12  C   UNL     1     -37.779  40.018 -59.121  1.00  0.00     0.039 A 
HETATM   13  C   UNL     1     -37.821  39.476 -57.830  1.00  0.00     0.018 A 
HETATM   14  C   UNL     1     -37.314  40.199 -56.745  1.00  0.00     0.010 A 
BRANCH  12  15
HETATM   15  C   UNL     1     -38.303  39.298 -60.315  1.00  0.00     0.292 C 
HETATM   16  O   UNL     1     -39.212  38.485 -60.266  1.00  0.00    -0.259 OA
BRANCH  15  17
HETATM   17  O   UNL     1     -37.641  39.679 -61.436  1.00  0.00    -0.323 OA
HETATM   18  C   UNL     1     -37.516  38.644 -62.412  1.00  0.00     0.213 C 
ENDBRANCH  15  17
ENDBRANCH  12  15
ENDBRANCH   8   9
ENDBRANCH   7   8
ENDBRANCH   1   7
BRANCH   4  19
HETATM   19  C   UNL     1     -32.687  40.462 -50.727  1.00  0.00     0.029 C 
HETATM   20  C   UNL     1     -32.913  39.666 -49.674  1.00  0.00     0.045 A 
HETATM   21  C   UNL     1     -31.794  39.369 -48.708  1.00  0.00     0.257 A 
HETATM   22  C   UNL     1     -34.101  38.957 -49.192  1.00  0.00     0.006 A 
HETATM   23  O   UNL     1     -30.645  39.765 -48.758  1.00  0.00    -0.267 OA
HETATM   24  N   UNL     1     -32.358  38.546 -47.749  1.00  0.00    -0.322 N 
HETATM   25  C   UNL     1     -33.702  38.299 -48.022  1.00  0.00     0.046 A 
HETATM   26  H   UNL     1     -31.838  38.184 -46.965  1.00  0.00     0.169 HD
HETATM   27  C   UNL     1     -34.559  37.518 -47.274  1.00  0.00     0.030 A 
HETATM   28  C   UNL     1     -35.873  37.395 -47.729  1.00  0.00     0.002 A 
HETATM   29  C   UNL     1     -36.290  38.047 -48.905  1.00  0.00     0.001 A 
HETATM   30  C   UNL     1     -35.401  38.836 -49.647  1.00  0.00     0.015 A 
ENDBRANCH   4  19
TORSDOF 6
ENDMDL
MODEL 10
REMARK VINA RESULT:      -7.8      1.924      3.155
REMARK  6 active torsions:
REMARK  status: ('A' for Active; 'I' for Inactive)
REMARK    1  A    between atoms: O_2  and  C_3 
REMARK    2  A    between atoms: C_3  and  C_4 
REMARK    3  A    between atoms: C_7  and  C_8 
REMARK    4  A    between atoms: C_8  and  O_9 
REMARK    5  A    between atoms: O_9  and  C_10 
REMARK    6  A    between atoms: C_13  and  C_14 
ROOT
HETATM    1  C   UNL     1     -43.289  56.579 -55.331  1.00  0.00     0.069 A 
HETATM    2  C   UNL     1     -43.935  55.426 -54.886  1.00  0.00     0.037 A 
HETATM    3  C   UNL     1     -43.196  54.301 -54.511  1.00  0.00     0.014 A 
HETATM    4  C   UNL     1     -41.802  54.321 -54.594  1.00  0.00    -0.035 A 
HETATM    5  C   UNL     1     -41.158  55.456 -55.098  1.00  0.00     0.014 A 
HETATM    6  C   UNL     1     -41.900  56.580 -55.475  1.00  0.00     0.037 A 
ENDROOT
BRANCH   1   7
HETATM    7  O   UNL     1     -44.107  57.643 -55.602  1.00  0.00    -0.347 OA
BRANCH   7   8
HETATM    8  C   UNL     1     -43.742  58.422 -56.745  1.00  0.00     0.214 C 
BRANCH   8   9
HETATM    9  C   UNL     1     -44.694  58.131 -57.884  1.00  0.00    -0.034 A 
HETATM   10  C   UNL     1     -46.080  58.181 -57.672  1.00  0.00     0.010 A 
HETATM   11  C   UNL     1     -46.970  57.931 -58.719  1.00  0.00     0.018 A 
HETATM   12  C   UNL     1     -46.491  57.634 -59.999  1.00  0.00     0.039 A 
HETATM   13  C   UNL     1     -45.109  57.589 -60.221  1.00  0.00     0.018 A 
HETATM   14  C   UNL     1     -44.219  57.840 -59.171  1.00  0.00     0.010 A 
BRANCH  12  15
HETATM   15  C   UNL     1     -47.489  57.376 -61.075  1.00  0.00     0.292 C 
HETATM   16  O   UNL     1     -48.009  56.288 -61.265  1.00  0.00    -0.259 OA
BRANCH  15  17
HETATM   17  O   UNL     1     -47.733  58.505 -61.786  1.00  0.00    -0.323 OA
HETATM   18  C   UNL     1     -49.095  58.645 -62.197  1.00  0.00     0.213 C 
ENDBRANCH  15  17
ENDBRANCH  12  15
ENDBRANCH   8   9
ENDBRANCH   7   8
ENDBRANCH   1   7
BRANCH   4  19
HETATM   19  C   UNL     1     -41.020  53.187 -54.108  1.00  0.00     0.029 C 
HETATM   20  C   UNL     1     -40.661  52.950 -52.839  1.00  0.00     0.045 A 
HETATM   21  C   UNL     1     -39.829  51.735 -52.512  1.00  0.00     0.257 A 
HETATM   22  C   UNL     1     -40.900  53.662 -51.582  1.00  0.00     0.006 A 
HETATM   23  O   UNL     1     -39.424  50.884 -53.282  1.00  0.00    -0.267 OA
HETATM   24  N   UNL     1     -39.626  51.798 -51.145  1.00  0.00    -0.322 N 
HETATM   25  C   UNL     1     -40.247  52.916 -50.592  1.00  0.00     0.046 A 
HETATM   26  H   UNL     1     -39.095  51.106 -50.639  1.00  0.00     0.169 HD
HETATM   27  C   UNL     1     -40.247  53.278 -49.261  1.00  0.00     0.030 A 
HETATM   28  C   UNL     1     -40.940  54.439 -48.914  1.00  0.00     0.002 A 
HETATM   29  C   UNL     1     -41.604  55.199 -49.895  1.00  0.00     0.001 A 
HETATM   30  C   UNL     1     -41.589  54.812 -51.242  1.00  0.00     0.015 A 
ENDBRANCH   4  19
TORSDOF 6
ENDMDL
