MODEL 1
REMARK VINA RESULT:      -8.5      0.000      0.000
REMARK  4 active torsions:
REMARK  status: ('A' for Active; 'I' for Inactive)
REMARK    1  A    between atoms: C_7  and  C_8 
REMARK    2  A    between atoms: C_8  and  N_9 
REMARK    3  A    between atoms: C_13  and  C_14 
REMARK    4  A    between atoms: C_16  and  C_17 
ROOT
HETATM    1  N   UNL     1     -41.655  55.316 -53.759  1.00  0.00    -0.067 N 
HETATM    2  H   UNL     1     -41.978  55.221 -52.790  1.00  0.00     0.280 HD
HETATM    3  C   UNL     1     -41.321  56.775 -53.984  1.00  0.00     0.236 C 
HETATM    4  C   UNL     1     -42.578  57.637 -53.942  1.00  0.00     0.040 C 
HETATM    5  C   UNL     1     -43.662  57.161 -54.912  1.00  0.00     0.058 C 
HETATM    6  C   UNL     1     -43.974  55.688 -54.636  1.00  0.00     0.040 C 
HETATM    7  C   UNL     1     -42.739  54.797 -54.677  1.00  0.00     0.236 C 
ENDROOT
BRANCH   1   8
HETATM    8  C   UNL     1     -40.423  54.431 -53.894  1.00  0.00     0.276 C 
BRANCH   8   9
HETATM    9  C   UNL     1     -40.245  53.463 -52.789  1.00  0.00     0.003 A 
HETATM   10  C   UNL     1     -40.018  52.053 -52.906  1.00  0.00     0.007 A 
HETATM   11  C   UNL     1     -39.892  51.135 -53.967  1.00  0.00     0.015 A 
HETATM   12  C   UNL     1     -39.895  51.577 -51.605  1.00  0.00     0.085 A 
HETATM   13  C   UNL     1     -39.643  49.788 -53.667  1.00  0.00     0.001 A 
HETATM   14  C   UNL     1     -39.524  49.354 -52.345  1.00  0.00     0.003 A 
HETATM   15  C   UNL     1     -39.650  50.247 -51.276  1.00  0.00     0.038 A 
HETATM   16  O   UNL     1     -40.047  52.595 -50.717  1.00  0.00    -0.321 OA
HETATM   17  C   UNL     1     -40.273  53.725 -51.433  1.00  0.00     0.152 A 
ENDBRANCH   8   9
ENDBRANCH   1   8
BRANCH   5  18
HETATM   18  C   UNL     1     -43.236  57.373 -56.334  1.00  0.00     0.108 A 
HETATM   19  N   UNL     1     -43.416  56.519 -57.320  1.00  0.00    -0.229 NA
HETATM   20  C   UNL     1     -42.842  57.090 -58.450  1.00  0.00     0.157 A 
HETATM   21  C   UNL     1     -42.320  58.325 -58.109  1.00  0.00     0.126 A 
HETATM   22  N   UNL     1     -42.577  58.493 -56.774  1.00  0.00    -0.352 N 
HETATM   23  H   UNL     1     -42.315  59.297 -56.216  1.00  0.00     0.166 HD
BRANCH  20  24
HETATM   24  C   UNL     1     -42.828  56.399 -59.788  1.00  0.00     0.436 C 
HETATM   25  F   UNL     1     -43.314  55.130 -59.708  1.00  0.00    -0.165 F 
HETATM   26  F   UNL     1     -43.584  57.054 -60.704  1.00  0.00    -0.165 F 
HETATM   27  F   UNL     1     -41.571  56.307 -60.294  1.00  0.00    -0.165 F 
ENDBRANCH  20  24
ENDBRANCH   5  18
TORSDOF 4
ENDMDL
MODEL 2
REMARK VINA RESULT:      -8.0      3.829      4.913
REMARK  4 active torsions:
REMARK  status: ('A' for Active; 'I' for Inactive)
REMARK    1  A    between atoms: C_7  and  C_8 
REMARK    2  A    between atoms: C_8  and  N_9 
REMARK    3  A    between atoms: C_13  and  C_14 
REMARK    4  A    between atoms: C_16  and  C_17 
ROOT
HETATM    1  N   UNL     1     -41.637  54.423 -55.302  1.00  0.00    -0.067 N 
HETATM    2  H   UNL     1     -41.918  54.084 -56.229  1.00  0.00     0.280 HD
HETATM    3  C   UNL     1     -42.716  54.011 -54.324  1.00  0.00     0.236 C 
HETATM    4  C   UNL     1     -44.017  54.758 -54.595  1.00  0.00     0.040 C 
HETATM    5  C   UNL     1     -43.839  56.278 -54.618  1.00  0.00     0.058 C 
HETATM    6  C   UNL     1     -42.751  56.645 -55.630  1.00  0.00     0.040 C 
HETATM    7  C   UNL     1     -41.435  55.919 -55.381  1.00  0.00     0.236 C 
ENDROOT
BRANCH   1   8
HETATM    8  C   UNL     1     -40.306  53.757 -54.982  1.00  0.00     0.276 C 
BRANCH   8   9
HETATM    9  C   UNL     1     -40.201  53.242 -53.598  1.00  0.00     0.003 A 
HETATM   10  C   UNL     1     -39.990  51.882 -53.198  1.00  0.00     0.007 A 
HETATM   11  C   UNL     1     -39.822  50.649 -53.859  1.00  0.00     0.015 A 
HETATM   12  C   UNL     1     -39.942  51.897 -51.808  1.00  0.00     0.085 A 
HETATM   13  C   UNL     1     -39.610  49.496 -53.090  1.00  0.00     0.001 A 
HETATM   14  C   UNL     1     -39.567  49.557 -51.695  1.00  0.00     0.003 A 
HETATM   15  C   UNL     1     -39.735  50.769 -51.019  1.00  0.00     0.038 A 
HETATM   16  O   UNL     1     -40.124  53.162 -51.346  1.00  0.00    -0.321 OA
HETATM   17  C   UNL     1     -40.296  53.965 -52.425  1.00  0.00     0.152 A 
ENDBRANCH   8   9
ENDBRANCH   1   8
BRANCH   5  18
HETATM   18  C   UNL     1     -43.511  56.797 -53.250  1.00  0.00     0.108 A 
HETATM   19  N   UNL     1     -42.672  57.776 -52.986  1.00  0.00    -0.229 NA
HETATM   20  C   UNL     1     -42.636  57.907 -51.602  1.00  0.00     0.157 A 
HETATM   21  C   UNL     1     -43.493  56.975 -51.044  1.00  0.00     0.126 A 
HETATM   22  N   UNL     1     -44.041  56.285 -52.092  1.00  0.00    -0.352 N 
HETATM   23  H   UNL     1     -44.708  55.526 -52.018  1.00  0.00     0.166 HD
BRANCH  20  24
HETATM   24  C   UNL     1     -41.764  58.920 -50.907  1.00  0.00     0.436 C 
HETATM   25  F   UNL     1     -42.500  59.910 -50.330  1.00  0.00    -0.165 F 
HETATM   26  F   UNL     1     -41.020  58.357 -49.924  1.00  0.00    -0.165 F 
HETATM   27  F   UNL     1     -40.905  59.521 -51.770  1.00  0.00    -0.165 F 
ENDBRANCH  20  24
ENDBRANCH   5  18
TORSDOF 4
ENDMDL
MODEL 3
REMARK VINA RESULT:      -8.0      1.731      2.371
REMARK  4 active torsions:
REMARK  status: ('A' for Active; 'I' for Inactive)
REMARK    1  A    between atoms: C_7  and  C_8 
REMARK    2  A    between atoms: C_8  and  N_9 
REMARK    3  A    between atoms: C_13  and  C_14 
REMARK    4  A    between atoms: C_16  and  C_17 
ROOT
HETATM    1  N   UNL     1     -43.284  56.301 -54.414  1.00  0.00    -0.067 N 
HETATM    2  H   UNL     1     -43.136  56.940 -53.625  1.00  0.00     0.280 HD
HETATM    3  C   UNL     1     -42.012  56.294 -55.235  1.00  0.00     0.236 C 
HETATM    4  C   UNL     1     -41.786  57.642 -55.908  1.00  0.00     0.040 C 
HETATM    5  C   UNL     1     -42.983  58.101 -56.745  1.00  0.00     0.058 C 
HETATM    6  C   UNL     1     -44.239  58.106 -55.869  1.00  0.00     0.040 C 
HETATM    7  C   UNL     1     -44.497  56.769 -55.186  1.00  0.00     0.236 C 
ENDROOT
BRANCH   1   8
HETATM    8  C   UNL     1     -43.573  54.932 -53.815  1.00  0.00     0.276 C 
BRANCH   8   9
HETATM    9  C   UNL     1     -42.524  54.438 -52.894  1.00  0.00     0.003 A 
HETATM   10  C   UNL     1     -41.569  53.401 -53.152  1.00  0.00     0.007 A 
HETATM   11  C   UNL     1     -41.276  52.543 -54.231  1.00  0.00     0.015 A 
HETATM   12  C   UNL     1     -40.787  53.309 -52.006  1.00  0.00     0.085 A 
HETATM   13  C   UNL     1     -40.209  51.643 -54.105  1.00  0.00     0.001 A 
HETATM   14  C   UNL     1     -39.447  51.586 -52.936  1.00  0.00     0.003 A 
HETATM   15  C   UNL     1     -39.723  52.425 -51.852  1.00  0.00     0.038 A 
HETATM   16  O   UNL     1     -41.212  54.204 -51.076  1.00  0.00    -0.321 OA
HETATM   17  C   UNL     1     -42.267  54.869 -51.607  1.00  0.00     0.152 A 
ENDBRANCH   8   9
ENDBRANCH   1   8
BRANCH   5  18
HETATM   18  C   UNL     1     -43.160  57.225 -57.948  1.00  0.00     0.108 A 
HETATM   19  N   UNL     1     -44.268  56.595 -58.279  1.00  0.00    -0.229 NA
HETATM   20  C   UNL     1     -43.986  55.872 -59.433  1.00  0.00     0.157 A 
HETATM   21  C   UNL     1     -42.669  56.099 -59.789  1.00  0.00     0.126 A 
HETATM   22  N   UNL     1     -42.160  56.955 -58.850  1.00  0.00    -0.352 N 
HETATM   23  H   UNL     1     -41.212  57.312 -58.823  1.00  0.00     0.166 HD
BRANCH  20  24
HETATM   24  C   UNL     1     -45.008  54.999 -60.111  1.00  0.00     0.436 C 
HETATM   25  F   UNL     1     -45.050  53.752 -59.567  1.00  0.00    -0.165 F 
HETATM   26  F   UNL     1     -46.259  55.515 -60.013  1.00  0.00    -0.165 F 
HETATM   27  F   UNL     1     -44.739  54.842 -61.432  1.00  0.00    -0.165 F 
ENDBRANCH  20  24
ENDBRANCH   5  18
TORSDOF 4
ENDMDL
MODEL 4
REMARK VINA RESULT:      -8.0      3.968      7.790
REMARK  4 active torsions:
REMARK  status: ('A' for Active; 'I' for Inactive)
REMARK    1  A    between atoms: C_7  and  C_8 
REMARK    2  A    between atoms: C_8  and  N_9 
REMARK    3  A    between atoms: C_13  and  C_14 
REMARK    4  A    between atoms: C_16  and  C_17 
ROOT
HETATM    1  N   UNL     1     -42.386  55.504 -54.999  1.00  0.00    -0.067 N 
HETATM    2  H   UNL     1     -42.965  56.340 -54.865  1.00  0.00     0.280 HD
HETATM    3  C   UNL     1     -43.089  54.351 -54.314  1.00  0.00     0.236 C 
HETATM    4  C   UNL     1     -43.099  54.537 -52.801  1.00  0.00     0.040 C 
HETATM    5  C   UNL     1     -41.702  54.760 -52.217  1.00  0.00     0.058 C 
HETATM    6  C   UNL     1     -41.039  55.941 -52.930  1.00  0.00     0.040 C 
HETATM    7  C   UNL     1     -41.007  55.783 -54.445  1.00  0.00     0.236 C 
ENDROOT
BRANCH   1   8
HETATM    8  C   UNL     1     -42.284  55.284 -56.502  1.00  0.00     0.276 C 
BRANCH   8   9
HETATM    9  C   UNL     1     -43.153  56.172 -57.307  1.00  0.00     0.003 A 
HETATM   10  C   UNL     1     -43.864  55.829 -58.502  1.00  0.00     0.007 A 
HETATM   11  C   UNL     1     -44.009  54.673 -59.296  1.00  0.00     0.015 A 
HETATM   12  C   UNL     1     -44.553  56.976 -58.879  1.00  0.00     0.085 A 
HETATM   13  C   UNL     1     -44.842  54.729 -60.422  1.00  0.00     0.001 A 
HETATM   14  C   UNL     1     -45.518  55.903 -60.762  1.00  0.00     0.003 A 
HETATM   15  C   UNL     1     -45.386  57.062 -59.991  1.00  0.00     0.038 A 
HETATM   16  O   UNL     1     -44.295  57.986 -58.006  1.00  0.00    -0.321 OA
HETATM   17  C   UNL     1     -43.440  57.502 -57.071  1.00  0.00     0.152 A 
ENDBRANCH   8   9
ENDBRANCH   1   8
BRANCH   5  18
HETATM   18  C   UNL     1     -40.872  53.517 -52.331  1.00  0.00     0.108 A 
HETATM   19  N   UNL     1     -41.030  52.574 -53.236  1.00  0.00    -0.229 NA
HETATM   20  C   UNL     1     -40.083  51.593 -52.958  1.00  0.00     0.157 A 
HETATM   21  C   UNL     1     -39.344  51.988 -51.858  1.00  0.00     0.126 A 
HETATM   22  N   UNL     1     -39.847  53.202 -51.474  1.00  0.00    -0.352 N 
HETATM   23  H   UNL     1     -39.524  53.757 -50.691  1.00  0.00     0.166 HD
BRANCH  20  24
HETATM   24  C   UNL     1     -39.963  50.331 -53.771  1.00  0.00     0.436 C 
HETATM   25  F   UNL     1     -39.886  49.225 -52.981  1.00  0.00    -0.165 F 
HETATM   26  F   UNL     1     -41.026  50.156 -54.594  1.00  0.00    -0.165 F 
HETATM   27  F   UNL     1     -38.849  50.337 -54.547  1.00  0.00    -0.165 F 
ENDBRANCH  20  24
ENDBRANCH   5  18
TORSDOF 4
ENDMDL
MODEL 5
REMARK VINA RESULT:      -7.8      4.962      8.220
REMARK  4 active torsions:
REMARK  status: ('A' for Active; 'I' for Inactive)
REMARK    1  A    between atoms: C_7  and  C_8 
REMARK    2  A    between atoms: C_8  and  N_9 
REMARK    3  A    between atoms: C_13  and  C_14 
REMARK    4  A    between atoms: C_16  and  C_17 
ROOT
HETATM    1  N   UNL     1     -41.787  55.610 -55.698  1.00  0.00    -0.067 N 
HETATM    2  H   UNL     1     -41.632  55.263 -56.651  1.00  0.00     0.280 HD
HETATM    3  C   UNL     1     -40.511  55.377 -54.918  1.00  0.00     0.236 C 
HETATM    4  C   UNL     1     -40.257  53.888 -54.715  1.00  0.00     0.040 C 
HETATM    5  C   UNL     1     -41.442  53.162 -54.072  1.00  0.00     0.058 C 
HETATM    6  C   UNL     1     -42.702  53.416 -54.903  1.00  0.00     0.040 C 
HETATM    7  C   UNL     1     -42.987  54.897 -55.118  1.00  0.00     0.236 C 
ENDROOT
BRANCH   1   8
HETATM    8  C   UNL     1     -42.104  57.095 -55.825  1.00  0.00     0.276 C 
BRANCH   8   9
HETATM    9  C   UNL     1     -43.296  57.394 -56.650  1.00  0.00     0.003 A 
HETATM   10  C   UNL     1     -43.596  56.873 -57.951  1.00  0.00     0.007 A 
HETATM   11  C   UNL     1     -42.971  55.992 -58.856  1.00  0.00     0.015 A 
HETATM   12  C   UNL     1     -44.823  57.422 -58.307  1.00  0.00     0.085 A 
HETATM   13  C   UNL     1     -43.614  55.704 -60.067  1.00  0.00     0.001 A 
HETATM   14  C   UNL     1     -44.848  56.275 -60.384  1.00  0.00     0.003 A 
HETATM   15  C   UNL     1     -45.484  57.156 -59.503  1.00  0.00     0.038 A 
HETATM   16  O   UNL     1     -45.272  58.245 -57.323  1.00  0.00    -0.321 OA
HETATM   17  C   UNL     1     -44.343  58.237 -56.335  1.00  0.00     0.152 A 
ENDBRANCH   8   9
ENDBRANCH   1   8
BRANCH   5  18
HETATM   18  C   UNL     1     -41.627  53.600 -52.650  1.00  0.00     0.108 A 
HETATM   19  N   UNL     1     -40.678  53.660 -51.739  1.00  0.00    -0.229 NA
HETATM   20  C   UNL     1     -41.284  54.076 -50.559  1.00  0.00     0.157 A 
HETATM   21  C   UNL     1     -42.633  54.274 -50.797  1.00  0.00     0.126 A 
HETATM   22  N   UNL     1     -42.836  53.976 -52.118  1.00  0.00    -0.352 N 
HETATM   23  H   UNL     1     -43.723  54.014 -52.605  1.00  0.00     0.166 HD
BRANCH  20  24
HETATM   24  C   UNL     1     -40.520  54.246 -49.272  1.00  0.00     0.436 C 
HETATM   25  F   UNL     1     -40.491  53.095 -48.545  1.00  0.00    -0.165 F 
HETATM   26  F   UNL     1     -39.232  54.606 -49.493  1.00  0.00    -0.165 F 
HETATM   27  F   UNL     1     -41.076  55.197 -48.479  1.00  0.00    -0.165 F 
ENDBRANCH  20  24
ENDBRANCH   5  18
TORSDOF 4
ENDMDL
MODEL 6
REMARK VINA RESULT:      -7.7      3.537      4.385
REMARK  4 active torsions:
REMARK  status: ('A' for Active; 'I' for Inactive)
REMARK    1  A    between atoms: C_7  and  C_8 
REMARK    2  A    between atoms: C_8  and  N_9 
REMARK    3  A    between atoms: C_13  and  C_14 
REMARK    4  A    between atoms: C_16  and  C_17 
ROOT
HETATM    1  N   UNL     1     -41.486  54.520 -53.201  1.00  0.00    -0.067 N 
HETATM    2  H   UNL     1     -41.287  53.711 -53.801  1.00  0.00     0.280 HD
HETATM    3  C   UNL     1     -42.976  54.530 -52.936  1.00  0.00     0.236 C 
HETATM    4  C   UNL     1     -43.757  54.833 -54.210  1.00  0.00     0.040 C 
HETATM    5  C   UNL     1     -43.305  56.126 -54.894  1.00  0.00     0.058 C 
HETATM    6  C   UNL     1     -41.798  56.061 -55.153  1.00  0.00     0.040 C 
HETATM    7  C   UNL     1     -40.988  55.766 -53.897  1.00  0.00     0.236 C 
ENDROOT
BRANCH   1   8
HETATM    8  C   UNL     1     -40.690  54.314 -51.919  1.00  0.00     0.276 C 
BRANCH   8   9
HETATM    9  C   UNL     1     -40.383  52.898 -51.614  1.00  0.00     0.003 A 
HETATM   10  C   UNL     1     -40.098  51.856 -52.555  1.00  0.00     0.007 A 
HETATM   11  C   UNL     1     -40.009  51.759 -53.958  1.00  0.00     0.015 A 
HETATM   12  C   UNL     1     -39.856  50.715 -51.799  1.00  0.00     0.085 A 
HETATM   13  C   UNL     1     -39.674  50.522 -54.527  1.00  0.00     0.001 A 
HETATM   14  C   UNL     1     -39.435  49.401 -53.730  1.00  0.00     0.003 A 
HETATM   15  C   UNL     1     -39.523  49.474 -52.335  1.00  0.00     0.038 A 
HETATM   16  O   UNL     1     -39.989  50.993 -50.475  1.00  0.00    -0.321 OA
HETATM   17  C   UNL     1     -40.322  52.303 -50.369  1.00  0.00     0.152 A 
ENDBRANCH   8   9
ENDBRANCH   1   8
BRANCH   5  18
HETATM   18  C   UNL     1     -43.666  57.322 -54.066  1.00  0.00     0.108 A 
HETATM   19  N   UNL     1     -42.967  58.435 -53.986  1.00  0.00    -0.229 NA
HETATM   20  C   UNL     1     -43.633  59.260 -53.086  1.00  0.00     0.157 A 
HETATM   21  C   UNL     1     -44.764  58.604 -52.634  1.00  0.00     0.126 A 
HETATM   22  N   UNL     1     -44.776  57.387 -53.261  1.00  0.00    -0.352 N 
HETATM   23  H   UNL     1     -45.476  56.664 -53.139  1.00  0.00     0.166 HD
BRANCH  20  24
HETATM   24  C   UNL     1     -43.125  60.627 -52.712  1.00  0.00     0.436 C 
HETATM   25  F   UNL     1     -42.438  61.209 -53.734  1.00  0.00    -0.165 F 
HETATM   26  F   UNL     1     -44.135  61.470 -52.384  1.00  0.00    -0.165 F 
HETATM   27  F   UNL     1     -42.280  60.577 -51.651  1.00  0.00    -0.165 F 
ENDBRANCH  20  24
ENDBRANCH   5  18
TORSDOF 4
ENDMDL
MODEL 7
REMARK VINA RESULT:      -7.7      4.070      5.248
REMARK  4 active torsions:
REMARK  status: ('A' for Active; 'I' for Inactive)
REMARK    1  A    between atoms: C_7  and  C_8 
REMARK    2  A    between atoms: C_8  and  N_9 
REMARK    3  A    between atoms: C_13  and  C_14 
REMARK    4  A    between atoms: C_16  and  C_17 
ROOT
HETATM    1  N   UNL     1     -43.775  56.023 -55.256  1.00  0.00    -0.067 N 
HETATM    2  H   UNL     1     -44.179  55.970 -56.197  1.00  0.00     0.280 HD
HETATM    3  C   UNL     1     -44.678  56.910 -54.425  1.00  0.00     0.236 C 
HETATM    4  C   UNL     1     -44.629  58.353 -54.913  1.00  0.00     0.040 C 
HETATM    5  C   UNL     1     -43.206  58.914 -54.977  1.00  0.00     0.058 C 
HETATM    6  C   UNL     1     -42.338  57.993 -55.838  1.00  0.00     0.040 C 
HETATM    7  C   UNL     1     -42.360  56.543 -55.371  1.00  0.00     0.236 C 
ENDROOT
BRANCH   1   8
HETATM    8  C   UNL     1     -43.740  54.598 -54.719  1.00  0.00     0.276 C 
BRANCH   8   9
HETATM    9  C   UNL     1     -42.887  54.420 -53.522  1.00  0.00     0.003 A 
HETATM   10  C   UNL     1     -41.777  53.525 -53.381  1.00  0.00     0.007 A 
HETATM   11  C   UNL     1     -41.132  52.577 -54.200  1.00  0.00     0.015 A 
HETATM   12  C   UNL     1     -41.283  53.729 -52.097  1.00  0.00     0.085 A 
HETATM   13  C   UNL     1     -40.022  51.890 -53.690  1.00  0.00     0.001 A 
HETATM   14  C   UNL     1     -39.558  52.128 -52.395  1.00  0.00     0.003 A 
HETATM   15  C   UNL     1     -40.186  53.061 -51.562  1.00  0.00     0.038 A 
HETATM   16  O   UNL     1     -42.025  54.670 -51.454  1.00  0.00    -0.321 OA
HETATM   17  C   UNL     1     -42.998  55.071 -52.309  1.00  0.00     0.152 A 
ENDBRANCH   8   9
ENDBRANCH   1   8
BRANCH   5  18
HETATM   18  C   UNL     1     -42.634  59.075 -53.600  1.00  0.00     0.108 A 
HETATM   19  N   UNL     1     -41.356  59.006 -53.292  1.00  0.00    -0.229 NA
HETATM   20  C   UNL     1     -41.270  59.173 -51.913  1.00  0.00     0.157 A 
HETATM   21  C   UNL     1     -42.544  59.354 -51.407  1.00  0.00     0.126 A 
HETATM   22  N   UNL     1     -43.394  59.294 -52.479  1.00  0.00    -0.352 N 
HETATM   23  H   UNL     1     -44.403  59.384 -52.442  1.00  0.00     0.166 HD
BRANCH  20  24
HETATM   24  C   UNL     1     -39.959  59.135 -51.174  1.00  0.00     0.436 C 
HETATM   25  F   UNL     1     -38.897  59.236 -52.020  1.00  0.00    -0.165 F 
HETATM   26  F   UNL     1     -39.852  60.151 -50.282  1.00  0.00    -0.165 F 
HETATM   27  F   UNL     1     -39.802  57.975 -50.486  1.00  0.00    -0.165 F 
ENDBRANCH  20  24
ENDBRANCH   5  18
TORSDOF 4
ENDMDL
MODEL 8
REMARK VINA RESULT:      -7.7      5.230      6.291
REMARK  4 active torsions:
REMARK  status: ('A' for Active; 'I' for Inactive)
REMARK    1  A    between atoms: C_7  and  C_8 
REMARK    2  A    between atoms: C_8  and  N_9 
REMARK    3  A    between atoms: C_13  and  C_14 
REMARK    4  A    between atoms: C_16  and  C_17 
ROOT
HETATM    1  N   UNL     1     -41.271  56.598 -51.853  1.00  0.00    -0.067 N 
HETATM    2  H   UNL     1     -40.310  56.298 -52.054  1.00  0.00     0.280 HD
HETATM    3  C   UNL     1     -41.740  57.427 -53.030  1.00  0.00     0.236 C 
HETATM    4  C   UNL     1     -40.969  58.739 -53.119  1.00  0.00     0.040 C 
HETATM    5  C   UNL     1     -41.013  59.546 -51.819  1.00  0.00     0.058 C 
HETATM    6  C   UNL     1     -40.516  58.673 -50.664  1.00  0.00     0.040 C 
HETATM    7  C   UNL     1     -41.272  57.355 -50.545  1.00  0.00     0.236 C 
ENDROOT
BRANCH   1   8
HETATM    8  C   UNL     1     -42.098  55.329 -51.695  1.00  0.00     0.276 C 
BRANCH   8   9
HETATM    9  C   UNL     1     -41.299  54.114 -51.416  1.00  0.00     0.003 A 
HETATM   10  C   UNL     1     -40.797  53.174 -52.373  1.00  0.00     0.007 A 
HETATM   11  C   UNL     1     -40.850  53.032 -53.774  1.00  0.00     0.015 A 
HETATM   12  C   UNL     1     -40.096  52.222 -51.641  1.00  0.00     0.085 A 
HETATM   13  C   UNL     1     -40.191  51.946 -54.366  1.00  0.00     0.001 A 
HETATM   14  C   UNL     1     -39.496  51.015 -53.593  1.00  0.00     0.003 A 
HETATM   15  C   UNL     1     -39.434  51.133 -52.201  1.00  0.00     0.038 A 
HETATM   16  O   UNL     1     -40.154  52.515 -50.315  1.00  0.00    -0.321 OA
HETATM   17  C   UNL     1     -40.892  53.645 -50.182  1.00  0.00     0.152 A 
ENDBRANCH   8   9
ENDBRANCH   1   8
BRANCH   5  18
HETATM   18  C   UNL     1     -42.396  60.063 -51.558  1.00  0.00     0.108 A 
HETATM   19  N   UNL     1     -42.885  60.370 -50.375  1.00  0.00    -0.229 NA
HETATM   20  C   UNL     1     -44.202  60.769 -50.581  1.00  0.00     0.157 A 
HETATM   21  C   UNL     1     -44.482  60.700 -51.934  1.00  0.00     0.126 A 
HETATM   22  N   UNL     1     -43.336  60.258 -52.539  1.00  0.00    -0.352 N 
HETATM   23  H   UNL     1     -43.214  60.095 -53.532  1.00  0.00     0.166 HD
BRANCH  20  24
HETATM   24  C   UNL     1     -45.108  61.182 -49.452  1.00  0.00     0.436 C 
HETATM   25  F   UNL     1     -46.225  61.817 -49.904  1.00  0.00    -0.165 F 
HETATM   26  F   UNL     1     -45.526  60.118 -48.723  1.00  0.00    -0.165 F 
HETATM   27  F   UNL     1     -44.490  62.037 -48.597  1.00  0.00    -0.165 F 
ENDBRANCH  20  24
ENDBRANCH   5  18
TORSDOF 4
ENDMDL
MODEL 9
REMARK VINA RESULT:      -7.6      4.166      7.433
REMARK  4 active torsions:
REMARK  status: ('A' for Active; 'I' for Inactive)
REMARK    1  A    between atoms: C_7  and  C_8 
REMARK    2  A    between atoms: C_8  and  N_9 
REMARK    3  A    between atoms: C_13  and  C_14 
REMARK    4  A    between atoms: C_16  and  C_17 
ROOT
HETATM    1  N   UNL     1     -41.807  57.291 -50.280  1.00  0.00    -0.067 N 
HETATM    2  H   UNL     1     -42.152  57.579 -49.357  1.00  0.00     0.280 HD
HETATM    3  C   UNL     1     -43.015  57.095 -51.172  1.00  0.00     0.236 C 
HETATM    4  C   UNL     1     -43.845  55.902 -50.715  1.00  0.00     0.040 C 
HETATM    5  C   UNL     1     -43.027  54.613 -50.597  1.00  0.00     0.058 C 
HETATM    6  C   UNL     1     -41.829  54.858 -49.676  1.00  0.00     0.040 C 
HETATM    7  C   UNL     1     -40.974  56.042 -50.110  1.00  0.00     0.236 C 
ENDROOT
BRANCH   1   8
HETATM    8  C   UNL     1     -40.917  58.420 -50.782  1.00  0.00     0.276 C 
BRANCH   8   9
HETATM    9  C   UNL     1     -41.656  59.581 -51.326  1.00  0.00     0.003 A 
HETATM   10  C   UNL     1     -41.902  59.876 -52.707  1.00  0.00     0.007 A 
HETATM   11  C   UNL     1     -41.586  59.273 -53.941  1.00  0.00     0.015 A 
HETATM   12  C   UNL     1     -42.648  61.049 -52.719  1.00  0.00     0.085 A 
HETATM   13  C   UNL     1     -42.041  59.876 -55.121  1.00  0.00     0.001 A 
HETATM   14  C   UNL     1     -42.791  61.054 -55.088  1.00  0.00     0.003 A 
HETATM   15  C   UNL     1     -43.112  61.671 -53.874  1.00  0.00     0.038 A 
HETATM   16  O   UNL     1     -42.854  61.487 -51.449  1.00  0.00    -0.321 OA
HETATM   17  C   UNL     1     -42.242  60.610 -50.615  1.00  0.00     0.152 A 
ENDBRANCH   8   9
ENDBRANCH   1   8
BRANCH   5  18
HETATM   18  C   UNL     1     -42.588  54.135 -51.949  1.00  0.00     0.108 A 
HETATM   19  N   UNL     1     -41.547  53.365 -52.185  1.00  0.00    -0.229 NA
HETATM   20  C   UNL     1     -41.481  53.196 -53.564  1.00  0.00     0.157 A 
HETATM   21  C   UNL     1     -42.528  53.886 -54.147  1.00  0.00     0.126 A 
HETATM   22  N   UNL     1     -43.221  54.470 -53.120  1.00  0.00    -0.352 N 
HETATM   23  H   UNL     1     -44.044  55.053 -53.215  1.00  0.00     0.166 HD
BRANCH  20  24
HETATM   24  C   UNL     1     -40.400  52.385 -54.229  1.00  0.00     0.436 C 
HETATM   25  F   UNL     1     -40.858  51.170 -54.638  1.00  0.00    -0.165 F 
HETATM   26  F   UNL     1     -39.902  53.009 -55.325  1.00  0.00    -0.165 F 
HETATM   27  F   UNL     1     -39.359  52.150 -53.390  1.00  0.00    -0.165 F 
ENDBRANCH  20  24
ENDBRANCH   5  18
TORSDOF 4
ENDMDL
MODEL 10
REMARK VINA RESULT:      -7.6      4.395      5.463
REMARK  4 active torsions:
REMARK  status: ('A' for Active; 'I' for Inactive)
REMARK    1  A    between atoms: C_7  and  C_8 
REMARK    2  A    between atoms: C_8  and  N_9 
REMARK    3  A    between atoms: C_13  and  C_14 
REMARK    4  A    between atoms: C_16  and  C_17 
ROOT
HETATM    1  N   UNL     1     -41.639  55.228 -53.728  1.00  0.00    -0.067 N 
HETATM    2  H   UNL     1     -41.429  54.832 -54.651  1.00  0.00     0.280 HD
HETATM    3  C   UNL     1     -43.110  54.991 -53.458  1.00  0.00     0.236 C 
HETATM    4  C   UNL     1     -43.980  55.812 -54.403  1.00  0.00     0.040 C 
HETATM    5  C   UNL     1     -43.644  57.306 -54.378  1.00  0.00     0.058 C 
HETATM    6  C   UNL     1     -42.153  57.494 -54.670  1.00  0.00     0.040 C 
HETATM    7  C   UNL     1     -41.256  56.691 -53.737  1.00  0.00     0.236 C 
ENDROOT
BRANCH   1   8
HETATM    8  C   UNL     1     -40.759  54.489 -52.728  1.00  0.00     0.276 C 
BRANCH   8   9
HETATM    9  C   UNL     1     -40.402  53.112 -53.135  1.00  0.00     0.003 A 
HETATM   10  C   UNL     1     -40.164  51.993 -52.273  1.00  0.00     0.007 A 
HETATM   11  C   UNL     1     -40.167  51.771 -50.881  1.00  0.00     0.015 A 
HETATM   12  C   UNL     1     -39.884  50.918 -53.110  1.00  0.00     0.085 A 
HETATM   13  C   UNL     1     -39.895  50.481 -50.404  1.00  0.00     0.001 A 
HETATM   14  C   UNL     1     -39.621  49.430 -51.281  1.00  0.00     0.003 A 
HETATM   15  C   UNL     1     -39.609  49.628 -52.665  1.00  0.00     0.038 A 
HETATM   16  O   UNL     1     -39.922  51.315 -54.409  1.00  0.00    -0.321 OA
HETATM   17  C   UNL     1     -40.218  52.638 -54.420  1.00  0.00     0.152 A 
ENDBRANCH   8   9
ENDBRANCH   1   8
BRANCH   5  18
HETATM   18  C   UNL     1     -44.025  57.915 -53.063  1.00  0.00     0.108 A 
HETATM   19  N   UNL     1     -43.602  59.076 -52.608  1.00  0.00    -0.229 NA
HETATM   20  C   UNL     1     -44.164  59.239 -51.347  1.00  0.00     0.157 A 
HETATM   21  C   UNL     1     -44.950  58.136 -51.064  1.00  0.00     0.126 A 
HETATM   22  N   UNL     1     -44.858  57.312 -52.154  1.00  0.00    -0.352 N 
HETATM   23  H   UNL     1     -45.315  56.413 -52.258  1.00  0.00     0.166 HD
BRANCH  20  24
HETATM   24  C   UNL     1     -43.896  60.448 -50.491  1.00  0.00     0.436 C 
HETATM   25  F   UNL     1     -43.962  61.603 -51.210  1.00  0.00    -0.165 F 
HETATM   26  F   UNL     1     -44.791  60.561 -49.479  1.00  0.00    -0.165 F 
HETATM   27  F   UNL     1     -42.659  60.405 -49.932  1.00  0.00    -0.165 F 
ENDBRANCH  20  24
ENDBRANCH   5  18
TORSDOF 4
ENDMDL
