MODEL 1
REMARK VINA RESULT:      -8.0      0.000      0.000
REMARK  7 active torsions:
REMARK  status: ('A' for Active; 'I' for Inactive)
REMARK    1  A    between atoms: C_8  and  C_9 
REMARK    2  A    between atoms: C_9  and  C_10 
REMARK    3  A    between atoms: C_10  and  C_11 
REMARK       I    between atoms: C_11  and  N_12 
REMARK    4  A    between atoms: N_12  and  C_13 
REMARK    5  A    between atoms: C_13  and  C_14 
REMARK    6  A    between atoms: C_14  and  C_15 
REMARK    7  A    between atoms: C_16  and  O_17 
ROOT
HETATM    1  C   UNL     1     -43.498  56.247 -51.239  1.00  0.00     0.217 C 
HETATM    2  N   UNL     1     -43.638  55.394 -52.312  1.00  0.00    -0.360 N 
HETATM    3  O   UNL     1     -42.693  56.076 -50.330  1.00  0.00    -0.274 OA
HETATM    4  H   UNL     1     -44.433  55.526 -52.925  1.00  0.00     0.162 HD
ENDROOT
BRANCH   2   5
HETATM    5  C   UNL     1     -42.947  54.121 -52.386  1.00  0.00     0.137 C 
BRANCH   5   6
HETATM    6  C   UNL     1     -41.846  54.049 -53.479  1.00  0.00     0.005 C 
HETATM    7  C   UNL     1     -42.418  54.252 -54.910  1.00  0.00     0.016 C 
HETATM    8  C   UNL     1     -41.233  54.727 -55.748  1.00  0.00     0.001 C 
HETATM    9  C   UNL     1     -40.323  55.472 -54.777  1.00  0.00     0.001 C 
HETATM   10  C   UNL     1     -41.022  55.376 -53.423  1.00  0.00     0.016 C 
BRANCH   6  11
HETATM   11  C   UNL     1     -40.988  52.767 -53.299  1.00  0.00    -0.015 A 
HETATM   12  C   UNL     1     -40.140  52.543 -52.184  1.00  0.00     0.075 A 
HETATM   13  C   UNL     1     -39.388  51.358 -52.091  1.00  0.00     0.037 A 
HETATM   14  C   UNL     1     -39.442  50.392 -53.092  1.00  0.00     0.003 A 
HETATM   15  C   UNL     1     -40.233  50.608 -54.207  1.00  0.00     0.001 A 
HETATM   16  C   UNL     1     -40.983  51.780 -54.312  1.00  0.00     0.011 A 
BRANCH  12  17
HETATM   17  O   UNL     1     -40.049  53.542 -51.249  1.00  0.00    -0.355 OA
HETATM   18  C   UNL     1     -40.331  53.217 -49.894  1.00  0.00     0.210 C 
ENDBRANCH  12  17
ENDBRANCH   6  11
ENDBRANCH   5   6
ENDBRANCH   2   5
BRANCH   1  19
HETATM   19  C   UNL     1     -44.385  57.470 -51.340  1.00  0.00     0.107 C 
BRANCH  19  20
HETATM   20  C   UNL     1     -43.579  58.760 -51.220  1.00  0.00     0.052 C 
BRANCH  20  21
HETATM   21  C   UNL     1     -42.547  58.874 -52.295  1.00  0.00    -0.008 A 
HETATM   22  C   UNL     1     -42.717  58.802 -53.665  1.00  0.00     0.032 A 
HETATM   23  C   UNL     1     -43.915  58.600 -54.510  1.00  0.00     0.070 C 
HETATM   24  N   UNL     1     -41.470  58.959 -54.204  1.00  0.00    -0.282 N 
HETATM   25  H   UNL     1     -41.207  58.966 -55.184  1.00  0.00     0.189 HD
HETATM   26  N   UNL     1     -40.503  59.119 -53.293  1.00  0.00    -0.179 NA
HETATM   27  C   UNL     1     -41.148  59.078 -52.123  1.00  0.00     0.059 A 
HETATM   28  C   UNL     1     -40.397  59.229 -50.850  1.00  0.00     0.073 C 
ENDBRANCH  20  21
ENDBRANCH  19  20
ENDBRANCH   1  19
TORSDOF 7
ENDMDL
MODEL 2
REMARK VINA RESULT:      -7.7      2.330      3.434
REMARK  7 active torsions:
REMARK  status: ('A' for Active; 'I' for Inactive)
REMARK    1  A    between atoms: C_8  and  C_9 
REMARK    2  A    between atoms: C_9  and  C_10 
REMARK    3  A    between atoms: C_10  and  C_11 
REMARK       I    between atoms: C_11  and  N_12 
REMARK    4  A    between atoms: N_12  and  C_13 
REMARK    5  A    between atoms: C_13  and  C_14 
REMARK    6  A    between atoms: C_14  and  C_15 
REMARK    7  A    between atoms: C_16  and  O_17 
ROOT
HETATM    1  C   UNL     1     -40.880  58.727 -52.515  1.00  0.00     0.217 C 
HETATM    2  N   UNL     1     -41.311  57.428 -52.675  1.00  0.00    -0.360 N 
HETATM    3  O   UNL     1     -40.048  59.266 -53.237  1.00  0.00    -0.274 OA
HETATM    4  H   UNL     1     -41.875  57.019 -51.941  1.00  0.00     0.162 HD
ENDROOT
BRANCH   2   5
HETATM    5  C   UNL     1     -40.701  56.521 -53.628  1.00  0.00     0.137 C 
BRANCH   5   6
HETATM    6  C   UNL     1     -41.556  55.269 -53.965  1.00  0.00     0.005 C 
HETATM    7  C   UNL     1     -43.047  55.444 -53.558  1.00  0.00     0.016 C 
HETATM    8  C   UNL     1     -43.816  54.459 -54.437  1.00  0.00     0.001 C 
HETATM    9  C   UNL     1     -43.000  54.337 -55.719  1.00  0.00     0.001 C 
HETATM   10  C   UNL     1     -41.791  55.246 -55.509  1.00  0.00     0.016 C 
BRANCH   6  11
HETATM   11  C   UNL     1     -40.880  53.985 -53.411  1.00  0.00    -0.015 A 
HETATM   12  C   UNL     1     -40.697  53.732 -52.027  1.00  0.00     0.075 A 
HETATM   13  C   UNL     1     -40.072  52.548 -51.598  1.00  0.00     0.037 A 
HETATM   14  C   UNL     1     -39.602  51.611 -52.515  1.00  0.00     0.003 A 
HETATM   15  C   UNL     1     -39.735  51.856 -53.870  1.00  0.00     0.001 A 
HETATM   16  C   UNL     1     -40.353  53.029 -54.309  1.00  0.00     0.011 A 
BRANCH  12  17
HETATM   17  O   UNL     1     -41.104  54.705 -51.148  1.00  0.00    -0.355 OA
HETATM   18  C   UNL     1     -40.369  54.864 -49.942  1.00  0.00     0.210 C 
ENDBRANCH  12  17
ENDBRANCH   6  11
ENDBRANCH   5   6
ENDBRANCH   2   5
BRANCH   1  19
HETATM   19  C   UNL     1     -41.605  59.454 -51.401  1.00  0.00     0.107 C 
BRANCH  19  20
HETATM   20  C   UNL     1     -42.867  60.143 -51.910  1.00  0.00     0.052 C 
BRANCH  20  21
HETATM   21  C   UNL     1     -43.996  60.025 -50.938  1.00  0.00    -0.008 A 
HETATM   22  C   UNL     1     -44.391  60.921 -49.962  1.00  0.00     0.032 A 
HETATM   23  C   UNL     1     -43.867  62.244 -49.554  1.00  0.00     0.070 C 
HETATM   24  N   UNL     1     -45.466  60.347 -49.341  1.00  0.00    -0.282 N 
HETATM   25  H   UNL     1     -46.020  60.717 -48.576  1.00  0.00     0.189 HD
HETATM   26  N   UNL     1     -45.795  59.146 -49.830  1.00  0.00    -0.179 NA
HETATM   27  C   UNL     1     -44.911  58.941 -50.813  1.00  0.00     0.059 A 
HETATM   28  C   UNL     1     -44.960  57.691 -51.613  1.00  0.00     0.073 C 
ENDBRANCH  20  21
ENDBRANCH  19  20
ENDBRANCH   1  19
TORSDOF 7
ENDMDL
MODEL 3
REMARK VINA RESULT:      -7.5      1.387      2.023
REMARK  7 active torsions:
REMARK  status: ('A' for Active; 'I' for Inactive)
REMARK    1  A    between atoms: C_8  and  C_9 
REMARK    2  A    between atoms: C_9  and  C_10 
REMARK    3  A    between atoms: C_10  and  C_11 
REMARK       I    between atoms: C_11  and  N_12 
REMARK    4  A    between atoms: N_12  and  C_13 
REMARK    5  A    between atoms: C_13  and  C_14 
REMARK    6  A    between atoms: C_14  and  C_15 
REMARK    7  A    between atoms: C_16  and  O_17 
ROOT
HETATM    1  C   UNL     1     -43.668  56.084 -51.127  1.00  0.00     0.217 C 
HETATM    2  N   UNL     1     -43.783  55.214 -52.189  1.00  0.00    -0.360 N 
HETATM    3  O   UNL     1     -42.814  55.986 -50.252  1.00  0.00    -0.274 OA
HETATM    4  H   UNL     1     -44.611  55.277 -52.769  1.00  0.00     0.162 HD
ENDROOT
BRANCH   2   5
HETATM    5  C   UNL     1     -42.994  54.001 -52.288  1.00  0.00     0.137 C 
BRANCH   5   6
HETATM    6  C   UNL     1     -41.927  54.017 -53.416  1.00  0.00     0.005 C 
HETATM    7  C   UNL     1     -42.552  54.259 -54.819  1.00  0.00     0.016 C 
HETATM    8  C   UNL     1     -41.412  54.814 -55.672  1.00  0.00     0.001 C 
HETATM    9  C   UNL     1     -40.499  55.551 -54.697  1.00  0.00     0.001 C 
HETATM   10  C   UNL     1     -41.151  55.371 -53.328  1.00  0.00     0.016 C 
BRANCH   6  11
HETATM   11  C   UNL     1     -41.017  52.762 -53.319  1.00  0.00    -0.015 A 
HETATM   12  C   UNL     1     -40.112  52.533 -52.251  1.00  0.00     0.075 A 
HETATM   13  C   UNL     1     -39.315  51.374 -52.231  1.00  0.00     0.037 A 
HETATM   14  C   UNL     1     -39.381  50.440 -53.262  1.00  0.00     0.003 A 
HETATM   15  C   UNL     1     -40.229  50.663 -54.332  1.00  0.00     0.001 A 
HETATM   16  C   UNL     1     -41.024  51.810 -54.364  1.00  0.00     0.011 A 
BRANCH  12  17
HETATM   17  O   UNL     1     -40.014  53.504 -51.287  1.00  0.00    -0.355 OA
HETATM   18  C   UNL     1     -40.289  53.139 -49.941  1.00  0.00     0.210 C 
ENDBRANCH  12  17
ENDBRANCH   6  11
ENDBRANCH   5   6
ENDBRANCH   2   5
BRANCH   1  19
HETATM   19  C   UNL     1     -44.656  57.229 -51.195  1.00  0.00     0.107 C 
BRANCH  19  20
HETATM   20  C   UNL     1     -44.168  58.336 -52.125  1.00  0.00     0.052 C 
BRANCH  20  21
HETATM   21  C   UNL     1     -43.426  59.401 -51.384  1.00  0.00    -0.008 A 
HETATM   22  C   UNL     1     -42.062  59.541 -51.211  1.00  0.00     0.032 A 
HETATM   23  C   UNL     1     -40.912  58.732 -51.674  1.00  0.00     0.070 C 
HETATM   24  N   UNL     1     -41.895  60.668 -50.455  1.00  0.00    -0.282 N 
HETATM   25  H   UNL     1     -41.028  61.084 -50.133  1.00  0.00     0.189 HD
HETATM   26  N   UNL     1     -43.043  61.266 -50.116  1.00  0.00    -0.179 NA
HETATM   27  C   UNL     1     -43.986  60.508 -50.684  1.00  0.00     0.059 A 
HETATM   28  C   UNL     1     -45.421  60.863 -50.535  1.00  0.00     0.073 C 
ENDBRANCH  20  21
ENDBRANCH  19  20
ENDBRANCH   1  19
TORSDOF 7
ENDMDL
MODEL 4
REMARK VINA RESULT:      -7.4      3.325      5.278
REMARK  7 active torsions:
REMARK  status: ('A' for Active; 'I' for Inactive)
REMARK    1  A    between atoms: C_8  and  C_9 
REMARK    2  A    between atoms: C_9  and  C_10 
REMARK    3  A    between atoms: C_10  and  C_11 
REMARK       I    between atoms: C_11  and  N_12 
REMARK    4  A    between atoms: N_12  and  C_13 
REMARK    5  A    between atoms: C_13  and  C_14 
REMARK    6  A    between atoms: C_14  and  C_15 
REMARK    7  A    between atoms: C_16  and  O_17 
ROOT
HETATM    1  C   UNL     1     -44.149  57.253 -55.400  1.00  0.00     0.217 C 
HETATM    2  N   UNL     1     -43.468  56.079 -55.643  1.00  0.00    -0.360 N 
HETATM    3  O   UNL     1     -44.755  57.488 -54.360  1.00  0.00    -0.274 OA
HETATM    4  H   UNL     1     -43.136  55.908 -56.584  1.00  0.00     0.162 HD
ENDROOT
BRANCH   2   5
HETATM    5  C   UNL     1     -43.534  54.943 -54.744  1.00  0.00     0.137 C 
BRANCH   5   6
HETATM    6  C   UNL     1     -42.158  54.467 -54.205  1.00  0.00     0.005 C 
HETATM    7  C   UNL     1     -41.966  52.931 -54.349  1.00  0.00     0.016 C 
HETATM    8  C   UNL     1     -40.452  52.718 -54.342  1.00  0.00     0.001 C 
HETATM    9  C   UNL     1     -39.862  53.993 -54.935  1.00  0.00     0.001 C 
HETATM   10  C   UNL     1     -41.063  54.885 -55.239  1.00  0.00     0.016 C 
BRANCH   6  11
HETATM   11  C   UNL     1     -41.916  55.020 -52.774  1.00  0.00    -0.015 A 
HETATM   12  C   UNL     1     -41.467  56.339 -52.510  1.00  0.00     0.075 A 
HETATM   13  C   UNL     1     -41.265  56.770 -51.187  1.00  0.00     0.037 A 
HETATM   14  C   UNL     1     -41.483  55.912 -50.112  1.00  0.00     0.003 A 
HETATM   15  C   UNL     1     -41.884  54.610 -50.348  1.00  0.00     0.001 A 
HETATM   16  C   UNL     1     -42.086  54.169 -51.657  1.00  0.00     0.011 A 
BRANCH  12  17
HETATM   17  O   UNL     1     -41.191  57.139 -53.590  1.00  0.00    -0.355 OA
HETATM   18  C   UNL     1     -41.145  58.545 -53.385  1.00  0.00     0.210 C 
ENDBRANCH  12  17
ENDBRANCH   6  11
ENDBRANCH   5   6
ENDBRANCH   2   5
BRANCH   1  19
HETATM   19  C   UNL     1     -44.003  58.261 -56.520  1.00  0.00     0.107 C 
BRANCH  19  20
HETATM   20  C   UNL     1     -44.516  57.706 -57.845  1.00  0.00     0.052 C 
BRANCH  20  21
HETATM   21  C   UNL     1     -43.399  57.376 -58.781  1.00  0.00    -0.008 A 
HETATM   22  C   UNL     1     -42.339  58.172 -59.175  1.00  0.00     0.032 A 
HETATM   23  C   UNL     1     -41.954  59.558 -58.829  1.00  0.00     0.070 C 
HETATM   24  N   UNL     1     -41.603  57.412 -60.041  1.00  0.00    -0.282 N 
HETATM   25  H   UNL     1     -40.751  57.665 -60.529  1.00  0.00     0.189 HD
HETATM   26  N   UNL     1     -42.105  56.189 -60.247  1.00  0.00    -0.179 NA
HETATM   27  C   UNL     1     -43.197  56.149 -59.476  1.00  0.00     0.059 A 
HETATM   28  C   UNL     1     -44.036  54.925 -59.430  1.00  0.00     0.073 C 
ENDBRANCH  20  21
ENDBRANCH  19  20
ENDBRANCH   1  19
TORSDOF 7
ENDMDL
MODEL 5
REMARK VINA RESULT:      -7.3      2.602      7.117
REMARK  7 active torsions:
REMARK  status: ('A' for Active; 'I' for Inactive)
REMARK    1  A    between atoms: C_8  and  C_9 
REMARK    2  A    between atoms: C_9  and  C_10 
REMARK    3  A    between atoms: C_10  and  C_11 
REMARK       I    between atoms: C_11  and  N_12 
REMARK    4  A    between atoms: N_12  and  C_13 
REMARK    5  A    between atoms: C_13  and  C_14 
REMARK    6  A    between atoms: C_14  and  C_15 
REMARK    7  A    between atoms: C_16  and  O_17 
ROOT
HETATM    1  C   UNL     1     -42.197  54.123 -54.428  1.00  0.00     0.217 C 
HETATM    2  N   UNL     1     -41.417  55.025 -53.736  1.00  0.00    -0.360 N 
HETATM    3  O   UNL     1     -43.333  54.364 -54.822  1.00  0.00    -0.274 OA
HETATM    4  H   UNL     1     -40.561  54.688 -53.313  1.00  0.00     0.162 HD
ENDROOT
BRANCH   2   5
HETATM    5  C   UNL     1     -41.930  56.300 -53.273  1.00  0.00     0.137 C 
BRANCH   5   6
HETATM    6  C   UNL     1     -42.308  56.334 -51.768  1.00  0.00     0.005 C 
HETATM    7  C   UNL     1     -42.902  54.983 -51.276  1.00  0.00     0.016 C 
HETATM    8  C   UNL     1     -42.672  54.974 -49.766  1.00  0.00     0.001 C 
HETATM    9  C   UNL     1     -41.412  55.805 -49.543  1.00  0.00     0.001 C 
HETATM   10  C   UNL     1     -40.987  56.264 -50.936  1.00  0.00     0.016 C 
BRANCH   6  11
HETATM   11  C   UNL     1     -43.184  57.578 -51.457  1.00  0.00    -0.015 A 
HETATM   12  C   UNL     1     -42.655  58.884 -51.289  1.00  0.00     0.075 A 
HETATM   13  C   UNL     1     -43.509  59.964 -51.005  1.00  0.00     0.037 A 
HETATM   14  C   UNL     1     -44.881  59.777 -50.863  1.00  0.00     0.003 A 
HETATM   15  C   UNL     1     -45.413  58.505 -50.984  1.00  0.00     0.001 A 
HETATM   16  C   UNL     1     -44.576  57.424 -51.265  1.00  0.00     0.011 A 
BRANCH  12  17
HETATM   17  O   UNL     1     -41.293  59.028 -51.362  1.00  0.00    -0.355 OA
HETATM   18  C   UNL     1     -40.642  59.760 -50.332  1.00  0.00     0.210 C 
ENDBRANCH  12  17
ENDBRANCH   6  11
ENDBRANCH   5   6
ENDBRANCH   2   5
BRANCH   1  19
HETATM   19  C   UNL     1     -41.474  52.827 -54.727  1.00  0.00     0.107 C 
BRANCH  19  20
HETATM   20  C   UNL     1     -40.061  52.828 -54.153  1.00  0.00     0.052 C 
BRANCH  20  21
HETATM   21  C   UNL     1     -39.853  51.712 -53.181  1.00  0.00    -0.008 A 
HETATM   22  C   UNL     1     -39.737  51.777 -51.805  1.00  0.00     0.032 A 
HETATM   23  C   UNL     1     -39.778  52.911 -50.855  1.00  0.00     0.070 C 
HETATM   24  N   UNL     1     -39.553  50.488 -51.385  1.00  0.00    -0.282 N 
HETATM   25  H   UNL     1     -39.433  50.149 -50.437  1.00  0.00     0.189 HD
HETATM   26  N   UNL     1     -39.530  49.594 -52.380  1.00  0.00    -0.179 NA
HETATM   27  C   UNL     1     -39.722  50.326 -53.482  1.00  0.00     0.059 A 
HETATM   28  C   UNL     1     -39.767  49.673 -54.815  1.00  0.00     0.073 C 
ENDBRANCH  20  21
ENDBRANCH  19  20
ENDBRANCH   1  19
TORSDOF 7
ENDMDL
MODEL 6
REMARK VINA RESULT:      -7.3      2.387      6.856
REMARK  7 active torsions:
REMARK  status: ('A' for Active; 'I' for Inactive)
REMARK    1  A    between atoms: C_8  and  C_9 
REMARK    2  A    between atoms: C_9  and  C_10 
REMARK    3  A    between atoms: C_10  and  C_11 
REMARK       I    between atoms: C_11  and  N_12 
REMARK    4  A    between atoms: N_12  and  C_13 
REMARK    5  A    between atoms: C_13  and  C_14 
REMARK    6  A    between atoms: C_14  and  C_15 
REMARK    7  A    between atoms: C_16  and  O_17 
ROOT
HETATM    1  C   UNL     1     -42.334  54.729 -54.529  1.00  0.00     0.217 C 
HETATM    2  N   UNL     1     -41.416  55.645 -54.062  1.00  0.00    -0.360 N 
HETATM    3  O   UNL     1     -43.374  55.035 -55.103  1.00  0.00    -0.274 OA
HETATM    4  H   UNL     1     -40.672  55.310 -53.462  1.00  0.00     0.162 HD
ENDROOT
BRANCH   2   5
HETATM    5  C   UNL     1     -41.672  57.072 -54.070  1.00  0.00     0.137 C 
BRANCH   5   6
HETATM    6  C   UNL     1     -41.600  57.747 -52.673  1.00  0.00     0.005 C 
HETATM    7  C   UNL     1     -40.782  56.908 -51.651  1.00  0.00     0.016 C 
HETATM    8  C   UNL     1     -40.321  57.909 -50.593  1.00  0.00     0.001 C 
HETATM    9  C   UNL     1     -40.192  59.241 -51.325  1.00  0.00     0.001 C 
HETATM   10  C   UNL     1     -40.600  58.944 -52.766  1.00  0.00     0.016 C 
BRANCH   6  11
HETATM   11  C   UNL     1     -43.021  58.150 -52.192  1.00  0.00    -0.015 A 
HETATM   12  C   UNL     1     -43.946  57.232 -51.632  1.00  0.00     0.075 A 
HETATM   13  C   UNL     1     -45.218  57.667 -51.221  1.00  0.00     0.037 A 
HETATM   14  C   UNL     1     -45.605  58.997 -51.370  1.00  0.00     0.003 A 
HETATM   15  C   UNL     1     -44.732  59.901 -51.949  1.00  0.00     0.001 A 
HETATM   16  C   UNL     1     -43.467  59.481 -52.362  1.00  0.00     0.011 A 
BRANCH  12  17
HETATM   17  O   UNL     1     -43.566  55.915 -51.565  1.00  0.00    -0.355 OA
HETATM   18  C   UNL     1     -44.044  55.137 -50.475  1.00  0.00     0.210 C 
ENDBRANCH  12  17
ENDBRANCH   6  11
ENDBRANCH   5   6
ENDBRANCH   2   5
BRANCH   1  19
HETATM   19  C   UNL     1     -41.886  53.296 -54.336  1.00  0.00     0.107 C 
BRANCH  19  20
HETATM   20  C   UNL     1     -40.385  53.208 -54.077  1.00  0.00     0.052 C 
BRANCH  20  21
HETATM   21  C   UNL     1     -40.054  52.156 -53.069  1.00  0.00    -0.008 A 
HETATM   22  C   UNL     1     -39.895  52.290 -51.701  1.00  0.00     0.032 A 
HETATM   23  C   UNL     1     -39.994  53.459 -50.798  1.00  0.00     0.070 C 
HETATM   24  N   UNL     1     -39.594  51.040 -51.236  1.00  0.00    -0.282 N 
HETATM   25  H   UNL     1     -39.414  50.754 -50.280  1.00  0.00     0.189 HD
HETATM   26  N   UNL     1     -39.535  50.107 -52.193  1.00  0.00    -0.179 NA
HETATM   27  C   UNL     1     -39.823  50.772 -53.316  1.00  0.00     0.059 A 
HETATM   28  C   UNL     1     -39.863  50.059 -54.618  1.00  0.00     0.073 C 
ENDBRANCH  20  21
ENDBRANCH  19  20
ENDBRANCH   1  19
TORSDOF 7
ENDMDL
MODEL 7
REMARK VINA RESULT:      -7.3      2.342      3.121
REMARK  7 active torsions:
REMARK  status: ('A' for Active; 'I' for Inactive)
REMARK    1  A    between atoms: C_8  and  C_9 
REMARK    2  A    between atoms: C_9  and  C_10 
REMARK    3  A    between atoms: C_10  and  C_11 
REMARK       I    between atoms: C_11  and  N_12 
REMARK    4  A    between atoms: N_12  and  C_13 
REMARK    5  A    between atoms: C_13  and  C_14 
REMARK    6  A    between atoms: C_14  and  C_15 
REMARK    7  A    between atoms: C_16  and  O_17 
ROOT
HETATM    1  C   UNL     1     -41.392  58.920 -53.098  1.00  0.00     0.217 C 
HETATM    2  N   UNL     1     -41.335  57.574 -52.807  1.00  0.00    -0.360 N 
HETATM    3  O   UNL     1     -41.045  59.402 -54.171  1.00  0.00    -0.274 OA
HETATM    4  H   UNL     1     -41.488  57.287 -51.848  1.00  0.00     0.162 HD
ENDROOT
BRANCH   2   5
HETATM    5  C   UNL     1     -40.712  56.613 -53.696  1.00  0.00     0.137 C 
BRANCH   5   6
HETATM    6  C   UNL     1     -41.579  55.362 -54.003  1.00  0.00     0.005 C 
HETATM    7  C   UNL     1     -43.064  55.554 -53.585  1.00  0.00     0.016 C 
HETATM    8  C   UNL     1     -43.849  54.559 -54.439  1.00  0.00     0.001 C 
HETATM    9  C   UNL     1     -43.046  54.410 -55.727  1.00  0.00     0.001 C 
HETATM   10  C   UNL     1     -41.829  55.314 -55.545  1.00  0.00     0.016 C 
BRANCH   6  11
HETATM   11  C   UNL     1     -40.905  54.083 -53.435  1.00  0.00    -0.015 A 
HETATM   12  C   UNL     1     -40.680  53.867 -52.051  1.00  0.00     0.075 A 
HETATM   13  C   UNL     1     -40.060  52.685 -51.609  1.00  0.00     0.037 A 
HETATM   14  C   UNL     1     -39.637  51.714 -52.513  1.00  0.00     0.003 A 
HETATM   15  C   UNL     1     -39.812  51.922 -53.870  1.00  0.00     0.001 A 
HETATM   16  C   UNL     1     -40.425  53.092 -54.322  1.00  0.00     0.011 A 
BRANCH  12  17
HETATM   17  O   UNL     1     -41.040  54.872 -51.188  1.00  0.00    -0.355 OA
HETATM   18  C   UNL     1     -40.411  54.915 -49.914  1.00  0.00     0.210 C 
ENDBRANCH  12  17
ENDBRANCH   6  11
ENDBRANCH   5   6
ENDBRANCH   2   5
BRANCH   1  19
HETATM   19  C   UNL     1     -42.007  59.738 -51.982  1.00  0.00     0.107 C 
BRANCH  19  20
HETATM   20  C   UNL     1     -43.205  59.027 -51.361  1.00  0.00     0.052 C 
BRANCH  20  21
HETATM   21  C   UNL     1     -44.498  59.662 -51.760  1.00  0.00    -0.008 A 
HETATM   22  C   UNL     1     -45.189  59.536 -52.950  1.00  0.00     0.032 A 
HETATM   23  C   UNL     1     -44.913  58.769 -54.186  1.00  0.00     0.070 C 
HETATM   24  N   UNL     1     -46.304  60.318 -52.819  1.00  0.00    -0.282 N 
HETATM   25  H   UNL     1     -47.047  60.469 -53.493  1.00  0.00     0.189 HD
HETATM   26  N   UNL     1     -46.386  60.948 -51.641  1.00  0.00    -0.179 NA
HETATM   27  C   UNL     1     -45.294  60.549 -50.980  1.00  0.00     0.059 A 
HETATM   28  C   UNL     1     -45.033  61.040 -49.603  1.00  0.00     0.073 C 
ENDBRANCH  20  21
ENDBRANCH  19  20
ENDBRANCH   1  19
TORSDOF 7
ENDMDL
MODEL 8
REMARK VINA RESULT:      -7.1      2.646      7.116
REMARK  7 active torsions:
REMARK  status: ('A' for Active; 'I' for Inactive)
REMARK    1  A    between atoms: C_8  and  C_9 
REMARK    2  A    between atoms: C_9  and  C_10 
REMARK    3  A    between atoms: C_10  and  C_11 
REMARK       I    between atoms: C_11  and  N_12 
REMARK    4  A    between atoms: N_12  and  C_13 
REMARK    5  A    between atoms: C_13  and  C_14 
REMARK    6  A    between atoms: C_14  and  C_15 
REMARK    7  A    between atoms: C_16  and  O_17 
ROOT
HETATM    1  C   UNL     1     -42.393  54.572 -54.357  1.00  0.00     0.217 C 
HETATM    2  N   UNL     1     -41.432  55.546 -54.187  1.00  0.00    -0.360 N 
HETATM    3  O   UNL     1     -43.573  54.810 -54.592  1.00  0.00    -0.274 OA
HETATM    4  H   UNL     1     -40.525  55.263 -53.839  1.00  0.00     0.162 HD
ENDROOT
BRANCH   2   5
HETATM    5  C   UNL     1     -41.762  56.956 -54.116  1.00  0.00     0.137 C 
BRANCH   5   6
HETATM    6  C   UNL     1     -41.752  57.549 -52.680  1.00  0.00     0.005 C 
HETATM    7  C   UNL     1     -41.328  56.503 -51.611  1.00  0.00     0.016 C 
HETATM    8  C   UNL     1     -40.815  57.327 -50.431  1.00  0.00     0.001 C 
HETATM    9  C   UNL     1     -40.260  58.609 -51.043  1.00  0.00     0.001 C 
HETATM   10  C   UNL     1     -40.495  58.467 -52.545  1.00  0.00     0.016 C 
BRANCH   6  11
HETATM   11  C   UNL     1     -43.095  58.271 -52.383  1.00  0.00    -0.015 A 
HETATM   12  C   UNL     1     -43.409  59.567 -52.868  1.00  0.00     0.075 A 
HETATM   13  C   UNL     1     -44.644  60.161 -52.556  1.00  0.00     0.037 A 
HETATM   14  C   UNL     1     -45.574  59.506 -51.752  1.00  0.00     0.003 A 
HETATM   15  C   UNL     1     -45.271  58.258 -51.237  1.00  0.00     0.001 A 
HETATM   16  C   UNL     1     -44.048  57.658 -51.539  1.00  0.00     0.011 A 
BRANCH  12  17
HETATM   17  O   UNL     1     -42.447  60.219 -53.597  1.00  0.00    -0.355 OA
HETATM   18  C   UNL     1     -42.858  60.943 -54.749  1.00  0.00     0.210 C 
ENDBRANCH  12  17
ENDBRANCH   6  11
ENDBRANCH   5   6
ENDBRANCH   2   5
BRANCH   1  19
HETATM   19  C   UNL     1     -41.824  53.170 -54.309  1.00  0.00     0.107 C 
BRANCH  19  20
HETATM   20  C   UNL     1     -40.349  53.176 -53.922  1.00  0.00     0.052 C 
BRANCH  20  21
HETATM   21  C   UNL     1     -40.007  52.044 -53.008  1.00  0.00    -0.008 A 
HETATM   22  C   UNL     1     -39.772  50.719 -53.327  1.00  0.00     0.032 A 
HETATM   23  C   UNL     1     -39.771  49.990 -54.616  1.00  0.00     0.070 C 
HETATM   24  N   UNL     1     -39.509  50.091 -52.142  1.00  0.00    -0.282 N 
HETATM   25  H   UNL     1     -39.287  49.113 -51.985  1.00  0.00     0.189 HD
HETATM   26  N   UNL     1     -39.564  50.900 -51.077  1.00  0.00    -0.179 NA
HETATM   27  C   UNL     1     -39.858  52.098 -51.593  1.00  0.00     0.059 A 
HETATM   28  C   UNL     1     -39.999  53.280 -50.705  1.00  0.00     0.073 C 
ENDBRANCH  20  21
ENDBRANCH  19  20
ENDBRANCH   1  19
TORSDOF 7
ENDMDL
MODEL 9
REMARK VINA RESULT:      -7.1      2.527      6.482
REMARK  7 active torsions:
REMARK  status: ('A' for Active; 'I' for Inactive)
REMARK    1  A    between atoms: C_8  and  C_9 
REMARK    2  A    between atoms: C_9  and  C_10 
REMARK    3  A    between atoms: C_10  and  C_11 
REMARK       I    between atoms: C_11  and  N_12 
REMARK    4  A    between atoms: N_12  and  C_13 
REMARK    5  A    between atoms: C_13  and  C_14 
REMARK    6  A    between atoms: C_14  and  C_15 
REMARK    7  A    between atoms: C_16  and  O_17 
ROOT
HETATM    1  C   UNL     1     -42.339  54.380 -55.035  1.00  0.00     0.217 C 
HETATM    2  N   UNL     1     -41.670  55.561 -54.793  1.00  0.00    -0.360 N 
HETATM    3  O   UNL     1     -43.131  54.219 -55.957  1.00  0.00    -0.274 OA
HETATM    4  H   UNL     1     -41.164  55.652 -53.921  1.00  0.00     0.162 HD
ENDROOT
BRANCH   2   5
HETATM    5  C   UNL     1     -41.960  56.780 -55.523  1.00  0.00     0.137 C 
BRANCH   5   6
HETATM    6  C   UNL     1     -42.554  57.924 -54.657  1.00  0.00     0.005 C 
HETATM    7  C   UNL     1     -42.603  59.279 -55.418  1.00  0.00     0.016 C 
HETATM    8  C   UNL     1     -43.685  60.093 -54.710  1.00  0.00     0.001 C 
HETATM    9  C   UNL     1     -44.670  59.067 -54.161  1.00  0.00     0.001 C 
HETATM   10  C   UNL     1     -44.099  57.710 -54.566  1.00  0.00     0.016 C 
BRANCH   6  11
HETATM   11  C   UNL     1     -41.844  57.982 -53.276  1.00  0.00    -0.015 A 
HETATM   12  C   UNL     1     -42.204  57.161 -52.177  1.00  0.00     0.075 A 
HETATM   13  C   UNL     1     -41.519  57.271 -50.954  1.00  0.00     0.037 A 
HETATM   14  C   UNL     1     -40.491  58.196 -50.788  1.00  0.00     0.003 A 
HETATM   15  C   UNL     1     -40.150  59.033 -51.835  1.00  0.00     0.001 A 
HETATM   16  C   UNL     1     -40.824  58.935 -53.054  1.00  0.00     0.011 A 
BRANCH  12  17
HETATM   17  O   UNL     1     -43.267  56.310 -52.346  1.00  0.00    -0.355 OA
HETATM   18  C   UNL     1     -43.520  55.348 -51.330  1.00  0.00     0.210 C 
ENDBRANCH  12  17
ENDBRANCH   6  11
ENDBRANCH   5   6
ENDBRANCH   2   5
BRANCH   1  19
HETATM   19  C   UNL     1     -41.931  53.269 -54.090  1.00  0.00     0.107 C 
BRANCH  19  20
HETATM   20  C   UNL     1     -40.429  53.011 -54.143  1.00  0.00     0.052 C 
BRANCH  20  21
HETATM   21  C   UNL     1     -40.016  51.927 -53.201  1.00  0.00    -0.008 A 
HETATM   22  C   UNL     1     -39.782  50.591 -53.471  1.00  0.00     0.032 A 
HETATM   23  C   UNL     1     -39.852  49.802 -54.721  1.00  0.00     0.070 C 
HETATM   24  N   UNL     1     -39.438  50.024 -52.276  1.00  0.00    -0.282 N 
HETATM   25  H   UNL     1     -39.193  49.057 -52.088  1.00  0.00     0.189 HD
HETATM   26  N   UNL     1     -39.438  50.882 -51.249  1.00  0.00    -0.179 NA
HETATM   27  C   UNL     1     -39.780  52.051 -51.802  1.00  0.00     0.059 A 
HETATM   28  C   UNL     1     -39.882  53.272 -50.963  1.00  0.00     0.073 C 
ENDBRANCH  20  21
ENDBRANCH  19  20
ENDBRANCH   1  19
TORSDOF 7
ENDMDL
MODEL 10
REMARK VINA RESULT:      -7.0      4.458      7.803
REMARK  7 active torsions:
REMARK  status: ('A' for Active; 'I' for Inactive)
REMARK    1  A    between atoms: C_8  and  C_9 
REMARK    2  A    between atoms: C_9  and  C_10 
REMARK    3  A    between atoms: C_10  and  C_11 
REMARK       I    between atoms: C_11  and  N_12 
REMARK    4  A    between atoms: N_12  and  C_13 
REMARK    5  A    between atoms: C_13  and  C_14 
REMARK    6  A    between atoms: C_14  and  C_15 
REMARK    7  A    between atoms: C_16  and  O_17 
ROOT
HETATM    1  C   UNL     1     -41.886  55.647 -55.230  1.00  0.00     0.217 C 
HETATM    2  N   UNL     1     -42.280  55.921 -56.522  1.00  0.00    -0.360 N 
HETATM    3  O   UNL     1     -42.357  56.197 -54.240  1.00  0.00    -0.274 OA
HETATM    4  H   UNL     1     -41.727  55.540 -57.280  1.00  0.00     0.162 HD
ENDROOT
BRANCH   2   5
HETATM    5  C   UNL     1     -43.188  57.006 -56.843  1.00  0.00     0.137 C 
BRANCH   5   6
HETATM    6  C   UNL     1     -43.193  57.421 -58.339  1.00  0.00     0.005 C 
HETATM    7  C   UNL     1     -42.731  58.891 -58.547  1.00  0.00     0.016 C 
HETATM    8  C   UNL     1     -42.242  58.952 -59.993  1.00  0.00     0.001 C 
HETATM    9  C   UNL     1     -41.732  57.550 -60.308  1.00  0.00     0.001 C 
HETATM   10  C   UNL     1     -41.967  56.745 -59.032  1.00  0.00     0.016 C 
BRANCH   6  11
HETATM   11  C   UNL     1     -44.558  57.071 -58.993  1.00  0.00    -0.015 A 
HETATM   12  C   UNL     1     -45.732  57.847 -58.814  1.00  0.00     0.075 A 
HETATM   13  C   UNL     1     -46.935  57.467 -59.435  1.00  0.00     0.037 A 
HETATM   14  C   UNL     1     -47.007  56.319 -60.220  1.00  0.00     0.003 A 
HETATM   15  C   UNL     1     -45.883  55.527 -60.376  1.00  0.00     0.001 A 
HETATM   16  C   UNL     1     -44.683  55.892 -59.763  1.00  0.00     0.011 A 
BRANCH  12  17
HETATM   17  O   UNL     1     -45.651  58.932 -57.979  1.00  0.00    -0.355 OA
HETATM   18  C   UNL     1     -46.854  59.618 -57.656  1.00  0.00     0.210 C 
ENDBRANCH  12  17
ENDBRANCH   6  11
ENDBRANCH   5   6
ENDBRANCH   2   5
BRANCH   1  19
HETATM   19  C   UNL     1     -40.866  54.532 -55.150  1.00  0.00     0.107 C 
BRANCH  19  20
HETATM   20  C   UNL     1     -41.468  53.262 -54.556  1.00  0.00     0.052 C 
BRANCH  20  21
HETATM   21  C   UNL     1     -40.664  52.750 -53.405  1.00  0.00    -0.008 A 
HETATM   22  C   UNL     1     -40.461  53.332 -52.167  1.00  0.00     0.032 A 
HETATM   23  C   UNL     1     -40.942  54.599 -51.572  1.00  0.00     0.070 C 
HETATM   24  N   UNL     1     -39.650  52.473 -51.480  1.00  0.00    -0.282 N 
HETATM   25  H   UNL     1     -39.293  52.568 -50.535  1.00  0.00     0.189 HD
HETATM   26  N   UNL     1     -39.302  51.383 -52.175  1.00  0.00    -0.179 NA
HETATM   27  C   UNL     1     -39.923  51.535 -53.350  1.00  0.00     0.059 A 
HETATM   28  C   UNL     1     -39.782  50.502 -54.408  1.00  0.00     0.073 C 
ENDBRANCH  20  21
ENDBRANCH  19  20
ENDBRANCH   1  19
TORSDOF 7
ENDMDL
