MODEL 1
REMARK VINA RESULT:      -9.1      0.000      0.000
REMARK  3 active torsions:
REMARK  status: ('A' for Active; 'I' for Inactive)
REMARK    1  A    between atoms: C_3  and  C_4 
REMARK       I    between atoms: C_4  and  N_5 
REMARK    2  A    between atoms: N_5  and  C_6 
REMARK    3  A    between atoms: C_13  and  C_14 
REMARK       I    between atoms: C_14  and  N_15 
ROOT
HETATM    1  C   UNL     1     -42.418  56.027 -56.506  1.00  0.00     0.035 A 
HETATM    2  C   UNL     1     -43.072  55.440 -57.597  1.00  0.00     0.046 A 
HETATM    3  C   UNL     1     -43.920  56.226 -58.407  1.00  0.00     0.030 A 
HETATM    4  C   UNL     1     -44.098  57.566 -58.089  1.00  0.00     0.063 A 
HETATM    5  N   UNL     1     -44.959  58.051 -59.032  1.00  0.00    -0.277 N 
HETATM    6  H   UNL     1     -45.316  58.997 -59.109  1.00  0.00     0.189 HD
HETATM    7  N   UNL     1     -45.345  57.149 -59.949  1.00  0.00    -0.168 NA
HETATM    8  C   UNL     1     -44.708  56.016 -59.579  1.00  0.00     0.156 A 
HETATM    9  C   UNL     1     -43.469  58.182 -57.005  1.00  0.00     0.034 A 
HETATM   10  C   UNL     1     -42.619  57.385 -56.227  1.00  0.00     0.032 A 
ENDROOT
BRANCH   1  11
HETATM   11  N   UNL     1     -41.520  55.333 -55.674  1.00  0.00    -0.325 N 
HETATM   12  C   UNL     1     -41.794  54.665 -54.495  1.00  0.00     0.252 C 
HETATM   13  O   UNL     1     -42.866  54.648 -53.897  1.00  0.00    -0.270 OA
HETATM   14  H   UNL     1     -40.539  55.338 -55.940  1.00  0.00     0.169 HD
BRANCH  12  15
HETATM   15  C   UNL     1     -40.609  53.830 -53.996  1.00  0.00     0.229 C 
HETATM   16  C   UNL     1     -40.848  53.445 -52.523  1.00  0.00     0.056 C 
HETATM   17  C   UNL     1     -40.165  54.394 -51.551  1.00  0.00     0.018 C 
HETATM   18  C   UNL     1     -40.295  52.066 -52.545  1.00  0.00    -0.018 A 
HETATM   19  C   UNL     1     -40.124  51.662 -53.860  1.00  0.00     0.076 A 
HETATM   20  C   UNL     1     -40.026  51.199 -51.500  1.00  0.00     0.010 A 
HETATM   21  O   UNL     1     -40.461  52.616 -54.783  1.00  0.00    -0.335 OA
HETATM   22  C   UNL     1     -39.679  50.397 -54.185  1.00  0.00     0.037 A 
HETATM   23  C   UNL     1     -39.390  49.517 -53.140  1.00  0.00     0.003 A 
HETATM   24  C   UNL     1     -39.563  49.916 -51.805  1.00  0.00     0.001 A 
ENDBRANCH  12  15
ENDBRANCH   1  11
BRANCH   8  25
HETATM   25  C   UNL     1     -44.854  54.773 -60.350  1.00  0.00     0.270 C 
HETATM   26  N   UNL     1     -45.045  53.658 -59.581  1.00  0.00    -0.365 N 
HETATM   27  H   UNL     1     -45.084  53.764 -58.574  1.00  0.00     0.159 HD
HETATM   28  H   UNL     1     -45.174  52.762 -60.024  1.00  0.00     0.159 HD
HETATM   29  O   UNL     1     -44.822  54.701 -61.573  1.00  0.00    -0.266 OA
ENDBRANCH   8  25
TORSDOF 3
ENDMDL
MODEL 2
REMARK VINA RESULT:      -9.0      1.360      2.770
REMARK  3 active torsions:
REMARK  status: ('A' for Active; 'I' for Inactive)
REMARK    1  A    between atoms: C_3  and  C_4 
REMARK       I    between atoms: C_4  and  N_5 
REMARK    2  A    between atoms: N_5  and  C_6 
REMARK    3  A    between atoms: C_13  and  C_14 
REMARK       I    between atoms: C_14  and  N_15 
ROOT
HETATM    1  C   UNL     1     -42.829  55.677 -56.403  1.00  0.00     0.035 A 
HETATM    2  C   UNL     1     -43.436  55.217 -57.579  1.00  0.00     0.046 A 
HETATM    3  C   UNL     1     -43.495  56.061 -58.709  1.00  0.00     0.030 A 
HETATM    4  C   UNL     1     -42.961  57.340 -58.619  1.00  0.00     0.063 A 
HETATM    5  N   UNL     1     -43.168  57.906 -59.845  1.00  0.00    -0.277 N 
HETATM    6  H   UNL     1     -42.909  58.841 -60.141  1.00  0.00     0.189 HD
HETATM    7  N   UNL     1     -43.776  57.103 -60.734  1.00  0.00    -0.168 NA
HETATM    8  C   UNL     1     -43.981  55.956 -60.047  1.00  0.00     0.156 A 
HETATM    9  C   UNL     1     -42.356  57.834 -57.461  1.00  0.00     0.034 A 
HETATM   10  C   UNL     1     -42.294  56.971 -56.360  1.00  0.00     0.032 A 
ENDROOT
BRANCH   1  11
HETATM   11  N   UNL     1     -42.683  54.889 -55.246  1.00  0.00    -0.325 N 
HETATM   12  C   UNL     1     -41.568  54.183 -54.831  1.00  0.00     0.252 C 
HETATM   13  O   UNL     1     -40.525  54.028 -55.460  1.00  0.00    -0.270 OA
HETATM   14  H   UNL     1     -43.496  54.788 -54.645  1.00  0.00     0.169 HD
BRANCH  12  15
HETATM   15  C   UNL     1     -41.707  53.639 -53.405  1.00  0.00     0.229 C 
HETATM   16  C   UNL     1     -40.307  53.299 -52.856  1.00  0.00     0.056 C 
HETATM   17  C   UNL     1     -39.949  51.832 -53.031  1.00  0.00     0.018 C 
HETATM   18  C   UNL     1     -40.492  53.737 -51.449  1.00  0.00    -0.018 A 
HETATM   19  C   UNL     1     -41.648  54.496 -51.352  1.00  0.00     0.076 A 
HETATM   20  C   UNL     1     -39.677  53.547 -50.345  1.00  0.00     0.010 A 
HETATM   21  O   UNL     1     -42.331  54.620 -52.533  1.00  0.00    -0.335 OA
HETATM   22  C   UNL     1     -42.039  55.086 -50.168  1.00  0.00     0.037 A 
HETATM   23  C   UNL     1     -41.234  54.892 -49.044  1.00  0.00     0.003 A 
HETATM   24  C   UNL     1     -40.060  54.127 -49.131  1.00  0.00     0.001 A 
ENDBRANCH  12  15
ENDBRANCH   1  11
BRANCH   8  25
HETATM   25  C   UNL     1     -44.619  54.793 -60.680  1.00  0.00     0.270 C 
HETATM   26  N   UNL     1     -44.788  53.725 -59.843  1.00  0.00    -0.365 N 
HETATM   27  H   UNL     1     -44.485  53.810 -58.881  1.00  0.00     0.159 HD
HETATM   28  H   UNL     1     -45.235  52.889 -60.185  1.00  0.00     0.159 HD
HETATM   29  O   UNL     1     -44.990  54.748 -61.848  1.00  0.00    -0.266 OA
ENDBRANCH   8  25
TORSDOF 3
ENDMDL
MODEL 3
REMARK VINA RESULT:      -8.5      2.073      2.882
REMARK  3 active torsions:
REMARK  status: ('A' for Active; 'I' for Inactive)
REMARK    1  A    between atoms: C_3  and  C_4 
REMARK       I    between atoms: C_4  and  N_5 
REMARK    2  A    between atoms: N_5  and  C_6 
REMARK    3  A    between atoms: C_13  and  C_14 
REMARK       I    between atoms: C_14  and  N_15 
ROOT
HETATM    1  C   UNL     1     -43.013  56.367 -57.629  1.00  0.00     0.035 A 
HETATM    2  C   UNL     1     -44.036  57.315 -57.492  1.00  0.00     0.046 A 
HETATM    3  C   UNL     1     -44.820  57.661 -58.615  1.00  0.00     0.030 A 
HETATM    4  C   UNL     1     -44.544  57.061 -59.836  1.00  0.00     0.063 A 
HETATM    5  N   UNL     1     -45.447  57.591 -60.713  1.00  0.00    -0.277 N 
HETATM    6  H   UNL     1     -45.538  57.384 -61.702  1.00  0.00     0.189 HD
HETATM    7  N   UNL     1     -46.302  58.472 -60.167  1.00  0.00    -0.168 NA
HETATM    8  C   UNL     1     -45.929  58.523 -58.868  1.00  0.00     0.156 A 
HETATM    9  C   UNL     1     -43.527  56.118 -60.010  1.00  0.00     0.034 A 
HETATM   10  C   UNL     1     -42.776  55.780 -58.878  1.00  0.00     0.032 A 
ENDROOT
BRANCH   1  11
HETATM   11  N   UNL     1     -42.215  55.928 -56.557  1.00  0.00    -0.325 N 
HETATM   12  C   UNL     1     -42.377  54.792 -55.784  1.00  0.00     0.252 C 
HETATM   13  O   UNL     1     -43.320  54.008 -55.826  1.00  0.00    -0.270 OA
HETATM   14  H   UNL     1     -41.437  56.520 -56.281  1.00  0.00     0.169 HD
BRANCH  12  15
HETATM   15  C   UNL     1     -41.179  54.523 -54.867  1.00  0.00     0.229 C 
HETATM   16  C   UNL     1     -41.632  54.637 -53.398  1.00  0.00     0.056 C 
HETATM   17  C   UNL     1     -41.359  56.011 -52.805  1.00  0.00     0.018 C 
HETATM   18  C   UNL     1     -40.830  53.531 -52.815  1.00  0.00    -0.018 A 
HETATM   19  C   UNL     1     -40.320  52.746 -53.837  1.00  0.00     0.076 A 
HETATM   20  C   UNL     1     -40.615  53.192 -51.489  1.00  0.00     0.010 A 
HETATM   21  O   UNL     1     -40.641  53.191 -55.092  1.00  0.00    -0.335 OA
HETATM   22  C   UNL     1     -39.581  51.608 -53.587  1.00  0.00     0.037 A 
HETATM   23  C   UNL     1     -39.345  51.261 -52.255  1.00  0.00     0.003 A 
HETATM   24  C   UNL     1     -39.860  52.049 -51.212  1.00  0.00     0.001 A 
ENDBRANCH  12  15
ENDBRANCH   1  11
BRANCH   8  25
HETATM   25  C   UNL     1     -46.639  59.376 -57.905  1.00  0.00     0.270 C 
HETATM   26  N   UNL     1     -47.734  58.785 -57.338  1.00  0.00    -0.365 N 
HETATM   27  H   UNL     1     -47.963  57.834 -57.600  1.00  0.00     0.159 HD
HETATM   28  H   UNL     1     -48.273  59.288 -56.650  1.00  0.00     0.159 HD
HETATM   29  O   UNL     1     -46.307  60.517 -57.603  1.00  0.00    -0.266 OA
ENDBRANCH   8  25
TORSDOF 3
ENDMDL
MODEL 4
REMARK VINA RESULT:      -8.4      5.154      6.949
REMARK  3 active torsions:
REMARK  status: ('A' for Active; 'I' for Inactive)
REMARK    1  A    between atoms: C_3  and  C_4 
REMARK       I    between atoms: C_4  and  N_5 
REMARK    2  A    between atoms: N_5  and  C_6 
REMARK    3  A    between atoms: C_13  and  C_14 
REMARK       I    between atoms: C_14  and  N_15 
ROOT
HETATM    1  C   UNL     1     -44.546  57.912 -52.469  1.00  0.00     0.035 A 
HETATM    2  C   UNL     1     -44.722  58.464 -51.194  1.00  0.00     0.046 A 
HETATM    3  C   UNL     1     -45.294  59.749 -51.064  1.00  0.00     0.030 A 
HETATM    4  C   UNL     1     -45.653  60.442 -52.212  1.00  0.00     0.063 A 
HETATM    5  N   UNL     1     -46.163  61.631 -51.772  1.00  0.00    -0.277 N 
HETATM    6  H   UNL     1     -46.522  62.392 -52.339  1.00  0.00     0.189 HD
HETATM    7  N   UNL     1     -46.184  61.768 -50.437  1.00  0.00    -0.168 NA
HETATM    8  C   UNL     1     -45.653  60.610 -49.983  1.00  0.00     0.156 A 
HETATM    9  C   UNL     1     -45.484  59.926 -53.499  1.00  0.00     0.034 A 
HETATM   10  C   UNL     1     -44.932  58.643 -53.600  1.00  0.00     0.032 A 
ENDROOT
BRANCH   1  11
HETATM   11  N   UNL     1     -44.029  56.622 -52.691  1.00  0.00    -0.325 N 
HETATM   12  C   UNL     1     -42.707  56.217 -52.661  1.00  0.00     0.252 C 
HETATM   13  O   UNL     1     -41.723  56.942 -52.540  1.00  0.00    -0.270 OA
HETATM   14  H   UNL     1     -44.690  55.890 -52.935  1.00  0.00     0.169 HD
BRANCH  12  15
HETATM   15  C   UNL     1     -42.551  54.694 -52.716  1.00  0.00     0.229 C 
HETATM   16  C   UNL     1     -41.888  54.302 -54.051  1.00  0.00     0.056 C 
HETATM   17  C   UNL     1     -42.901  53.908 -55.115  1.00  0.00     0.018 C 
HETATM   18  C   UNL     1     -41.021  53.196 -53.571  1.00  0.00    -0.018 A 
HETATM   19  C   UNL     1     -40.962  53.228 -52.186  1.00  0.00     0.076 A 
HETATM   20  C   UNL     1     -40.281  52.271 -54.288  1.00  0.00     0.010 A 
HETATM   21  O   UNL     1     -41.723  54.216 -51.620  1.00  0.00    -0.335 OA
HETATM   22  C   UNL     1     -40.178  52.349 -51.466  1.00  0.00     0.037 A 
HETATM   23  C   UNL     1     -39.437  51.402 -52.176  1.00  0.00     0.003 A 
HETATM   24  C   UNL     1     -39.488  51.363 -53.579  1.00  0.00     0.001 A 
ENDBRANCH  12  15
ENDBRANCH   1  11
BRANCH   8  25
HETATM   25  C   UNL     1     -45.513  60.348 -48.544  1.00  0.00     0.270 C 
HETATM   26  N   UNL     1     -44.489  61.032 -47.949  1.00  0.00    -0.365 N 
HETATM   27  H   UNL     1     -43.929  61.657 -48.516  1.00  0.00     0.159 HD
HETATM   28  H   UNL     1     -44.329  60.930 -46.959  1.00  0.00     0.159 HD
HETATM   29  O   UNL     1     -46.234  59.597 -47.896  1.00  0.00    -0.266 OA
ENDBRANCH   8  25
TORSDOF 3
ENDMDL
MODEL 5
REMARK VINA RESULT:      -8.3      2.743      8.029
REMARK  3 active torsions:
REMARK  status: ('A' for Active; 'I' for Inactive)
REMARK    1  A    between atoms: C_3  and  C_4 
REMARK       I    between atoms: C_4  and  N_5 
REMARK    2  A    between atoms: N_5  and  C_6 
REMARK    3  A    between atoms: C_13  and  C_14 
REMARK       I    between atoms: C_14  and  N_15 
ROOT
HETATM    1  C   UNL     1     -41.244  54.515 -54.294  1.00  0.00     0.035 A 
HETATM    2  C   UNL     1     -40.845  53.180 -54.442  1.00  0.00     0.046 A 
HETATM    3  C   UNL     1     -40.345  52.475 -53.326  1.00  0.00     0.030 A 
HETATM    4  C   UNL     1     -40.246  53.132 -52.107  1.00  0.00     0.063 A 
HETATM    5  N   UNL     1     -39.734  52.210 -51.239  1.00  0.00    -0.277 N 
HETATM    6  H   UNL     1     -39.523  52.342 -50.256  1.00  0.00     0.189 HD
HETATM    7  N   UNL     1     -39.507  51.002 -51.780  1.00  0.00    -0.168 NA
HETATM    8  C   UNL     1     -39.883  51.148 -53.071  1.00  0.00     0.156 A 
HETATM    9  C   UNL     1     -40.626  54.464 -51.925  1.00  0.00     0.034 A 
HETATM   10  C   UNL     1     -41.136  55.136 -53.043  1.00  0.00     0.032 A 
ENDROOT
BRANCH   1  11
HETATM   11  N   UNL     1     -41.798  55.280 -55.338  1.00  0.00    -0.325 N 
HETATM   12  C   UNL     1     -42.878  54.966 -56.143  1.00  0.00     0.252 C 
HETATM   13  O   UNL     1     -43.490  53.902 -56.163  1.00  0.00    -0.270 OA
HETATM   14  H   UNL     1     -41.343  56.160 -55.564  1.00  0.00     0.169 HD
BRANCH  12  15
HETATM   15  C   UNL     1     -43.334  56.145 -57.009  1.00  0.00     0.229 C 
HETATM   16  C   UNL     1     -42.617  57.425 -56.538  1.00  0.00     0.056 C 
HETATM   17  C   UNL     1     -43.453  58.242 -55.565  1.00  0.00     0.018 C 
HETATM   18  C   UNL     1     -42.385  58.067 -57.858  1.00  0.00    -0.018 A 
HETATM   19  C   UNL     1     -42.613  57.141 -58.864  1.00  0.00     0.076 A 
HETATM   20  C   UNL     1     -41.941  59.344 -58.160  1.00  0.00     0.010 A 
HETATM   21  O   UNL     1     -43.018  55.914 -58.410  1.00  0.00    -0.335 OA
HETATM   22  C   UNL     1     -42.416  57.445 -60.196  1.00  0.00     0.037 A 
HETATM   23  C   UNL     1     -41.982  58.733 -60.516  1.00  0.00     0.003 A 
HETATM   24  C   UNL     1     -41.745  59.677 -59.503  1.00  0.00     0.001 A 
ENDBRANCH  12  15
ENDBRANCH   1  11
BRANCH   8  25
HETATM   25  C   UNL     1     -39.807  50.028 -54.019  1.00  0.00     0.270 C 
HETATM   26  N   UNL     1     -40.966  49.799 -54.707  1.00  0.00    -0.365 N 
HETATM   27  H   UNL     1     -41.761  50.402 -54.533  1.00  0.00     0.159 HD
HETATM   28  H   UNL     1     -41.002  49.063 -55.394  1.00  0.00     0.159 HD
HETATM   29  O   UNL     1     -38.810  49.341 -54.211  1.00  0.00    -0.266 OA
ENDBRANCH   8  25
TORSDOF 3
ENDMDL
MODEL 6
REMARK VINA RESULT:      -8.2      2.365      4.147
REMARK  3 active torsions:
REMARK  status: ('A' for Active; 'I' for Inactive)
REMARK    1  A    between atoms: C_3  and  C_4 
REMARK       I    between atoms: C_4  and  N_5 
REMARK    2  A    between atoms: N_5  and  C_6 
REMARK    3  A    between atoms: C_13  and  C_14 
REMARK       I    between atoms: C_14  and  N_15 
ROOT
HETATM    1  C   UNL     1     -42.678  55.870 -56.691  1.00  0.00     0.035 A 
HETATM    2  C   UNL     1     -42.344  57.230 -56.740  1.00  0.00     0.046 A 
HETATM    3  C   UNL     1     -42.509  57.944 -57.947  1.00  0.00     0.030 A 
HETATM    4  C   UNL     1     -42.986  57.271 -59.065  1.00  0.00     0.063 A 
HETATM    5  N   UNL     1     -43.031  58.207 -60.059  1.00  0.00    -0.277 N 
HETATM    6  H   UNL     1     -43.328  58.069 -61.019  1.00  0.00     0.189 HD
HETATM    7  N   UNL     1     -42.643  59.437 -59.684  1.00  0.00    -0.168 NA
HETATM    8  C   UNL     1     -42.320  59.291 -58.379  1.00  0.00     0.156 A 
HETATM    9  C   UNL     1     -43.321  55.915 -59.053  1.00  0.00     0.034 A 
HETATM   10  C   UNL     1     -43.165  55.233 -57.840  1.00  0.00     0.032 A 
ENDROOT
BRANCH   1  11
HETATM   11  N   UNL     1     -42.591  55.092 -55.521  1.00  0.00    -0.325 N 
HETATM   12  C   UNL     1     -41.480  54.446 -55.009  1.00  0.00     0.252 C 
HETATM   13  O   UNL     1     -40.382  54.343 -55.547  1.00  0.00    -0.270 OA
HETATM   14  H   UNL     1     -43.445  54.952 -54.989  1.00  0.00     0.169 HD
BRANCH  12  15
HETATM   15  C   UNL     1     -41.711  53.897 -53.597  1.00  0.00     0.229 C 
HETATM   16  C   UNL     1     -40.367  53.414 -53.017  1.00  0.00     0.056 C 
HETATM   17  C   UNL     1     -40.150  51.920 -53.207  1.00  0.00     0.018 C 
HETATM   18  C   UNL     1     -40.546  53.848 -51.607  1.00  0.00    -0.018 A 
HETATM   19  C   UNL     1     -41.625  54.715 -51.528  1.00  0.00     0.076 A 
HETATM   20  C   UNL     1     -39.785  53.563 -50.486  1.00  0.00     0.010 A 
HETATM   21  O   UNL     1     -42.260  54.923 -52.724  1.00  0.00    -0.335 OA
HETATM   22  C   UNL     1     -41.988  55.324 -50.345  1.00  0.00     0.037 A 
HETATM   23  C   UNL     1     -41.238  55.036 -49.204  1.00  0.00     0.003 A 
HETATM   24  C   UNL     1     -40.142  54.160 -49.274  1.00  0.00     0.001 A 
ENDBRANCH  12  15
ENDBRANCH   1  11
BRANCH   8  25
HETATM   25  C   UNL     1     -41.855  60.432 -57.578  1.00  0.00     0.270 C 
HETATM   26  N   UNL     1     -42.757  60.864 -56.645  1.00  0.00    -0.365 N 
HETATM   27  H   UNL     1     -43.643  60.378 -56.565  1.00  0.00     0.159 HD
HETATM   28  H   UNL     1     -42.518  61.630 -56.035  1.00  0.00     0.159 HD
HETATM   29  O   UNL     1     -40.761  60.972 -57.698  1.00  0.00    -0.266 OA
ENDBRANCH   8  25
TORSDOF 3
ENDMDL
MODEL 7
REMARK VINA RESULT:      -8.2      2.680      8.378
REMARK  3 active torsions:
REMARK  status: ('A' for Active; 'I' for Inactive)
REMARK    1  A    between atoms: C_3  and  C_4 
REMARK       I    between atoms: C_4  and  N_5 
REMARK    2  A    between atoms: N_5  and  C_6 
REMARK    3  A    between atoms: C_13  and  C_14 
REMARK       I    between atoms: C_14  and  N_15 
ROOT
HETATM    1  C   UNL     1     -41.022  54.647 -54.356  1.00  0.00     0.035 A 
HETATM    2  C   UNL     1     -40.672  53.299 -54.514  1.00  0.00     0.046 A 
HETATM    3  C   UNL     1     -40.303  52.539 -53.383  1.00  0.00     0.030 A 
HETATM    4  C   UNL     1     -40.280  53.155 -52.139  1.00  0.00     0.063 A 
HETATM    5  N   UNL     1     -39.887  52.185 -51.261  1.00  0.00    -0.277 N 
HETATM    6  H   UNL     1     -39.757  52.279 -50.259  1.00  0.00     0.189 HD
HETATM    7  N   UNL     1     -39.668  50.984 -51.820  1.00  0.00    -0.168 NA
HETATM    8  C   UNL     1     -39.924  51.185 -53.133  1.00  0.00     0.156 A 
HETATM    9  C   UNL     1     -40.615  54.498 -51.946  1.00  0.00     0.034 A 
HETATM   10  C   UNL     1     -40.995  55.225 -53.081  1.00  0.00     0.032 A 
ENDROOT
BRANCH   1  11
HETATM   11  N   UNL     1     -41.448  55.467 -55.418  1.00  0.00    -0.325 N 
HETATM   12  C   UNL     1     -42.545  55.291 -56.243  1.00  0.00     0.252 C 
HETATM   13  O   UNL     1     -43.293  54.318 -56.266  1.00  0.00    -0.270 OA
HETATM   14  H   UNL     1     -40.876  56.275 -55.642  1.00  0.00     0.169 HD
BRANCH  12  15
HETATM   15  C   UNL     1     -42.823  56.510 -57.128  1.00  0.00     0.229 C 
HETATM   16  C   UNL     1     -43.580  56.054 -58.391  1.00  0.00     0.056 C 
HETATM   17  C   UNL     1     -42.656  55.815 -59.575  1.00  0.00     0.018 C 
HETATM   18  C   UNL     1     -44.507  57.205 -58.541  1.00  0.00    -0.018 A 
HETATM   19  C   UNL     1     -44.494  57.959 -57.378  1.00  0.00     0.076 A 
HETATM   20  C   UNL     1     -45.353  57.535 -59.587  1.00  0.00     0.010 A 
HETATM   21  O   UNL     1     -43.631  57.492 -56.423  1.00  0.00    -0.335 OA
HETATM   22  C   UNL     1     -45.308  59.061 -57.211  1.00  0.00     0.037 A 
HETATM   23  C   UNL     1     -46.156  59.413 -58.263  1.00  0.00     0.003 A 
HETATM   24  C   UNL     1     -46.178  58.654 -59.444  1.00  0.00     0.001 A 
ENDBRANCH  12  15
ENDBRANCH   1  11
BRANCH   8  25
HETATM   25  C   UNL     1     -39.816  50.090 -54.107  1.00  0.00     0.270 C 
HETATM   26  N   UNL     1     -40.990  49.788 -54.740  1.00  0.00    -0.365 N 
HETATM   27  H   UNL     1     -41.817  50.327 -54.511  1.00  0.00     0.159 HD
HETATM   28  H   UNL     1     -41.008  49.063 -55.439  1.00  0.00     0.159 HD
HETATM   29  O   UNL     1     -38.782  49.484 -54.365  1.00  0.00    -0.266 OA
ENDBRANCH   8  25
TORSDOF 3
ENDMDL
MODEL 8
REMARK VINA RESULT:      -8.2      2.793      8.787
REMARK  3 active torsions:
REMARK  status: ('A' for Active; 'I' for Inactive)
REMARK    1  A    between atoms: C_3  and  C_4 
REMARK       I    between atoms: C_4  and  N_5 
REMARK    2  A    between atoms: N_5  and  C_6 
REMARK    3  A    between atoms: C_13  and  C_14 
REMARK       I    between atoms: C_14  and  N_15 
ROOT
HETATM    1  C   UNL     1     -41.216  54.500 -54.628  1.00  0.00     0.035 A 
HETATM    2  C   UNL     1     -41.562  54.657 -53.280  1.00  0.00     0.046 A 
HETATM    3  C   UNL     1     -41.050  53.756 -52.320  1.00  0.00     0.030 A 
HETATM    4  C   UNL     1     -40.225  52.723 -52.744  1.00  0.00     0.063 A 
HETATM    5  N   UNL     1     -39.901  52.031 -51.611  1.00  0.00    -0.277 N 
HETATM    6  H   UNL     1     -39.313  51.207 -51.542  1.00  0.00     0.189 HD
HETATM    7  N   UNL     1     -40.427  52.533 -50.482  1.00  0.00    -0.168 NA
HETATM    8  C   UNL     1     -41.139  53.603 -50.904  1.00  0.00     0.156 A 
HETATM    9  C   UNL     1     -39.866  52.532 -54.080  1.00  0.00     0.034 A 
HETATM   10  C   UNL     1     -40.373  53.449 -55.010  1.00  0.00     0.032 A 
ENDROOT
BRANCH   1  11
HETATM   11  N   UNL     1     -41.640  55.377 -55.645  1.00  0.00    -0.325 N 
HETATM   12  C   UNL     1     -42.737  55.248 -56.477  1.00  0.00     0.252 C 
HETATM   13  O   UNL     1     -43.488  54.279 -56.553  1.00  0.00    -0.270 OA
HETATM   14  H   UNL     1     -41.066  56.195 -55.825  1.00  0.00     0.169 HD
BRANCH  12  15
HETATM   15  C   UNL     1     -43.013  56.514 -57.296  1.00  0.00     0.229 C 
HETATM   16  C   UNL     1     -43.539  56.110 -58.687  1.00  0.00     0.056 C 
HETATM   17  C   UNL     1     -42.441  56.064 -59.739  1.00  0.00     0.018 C 
HETATM   18  C   UNL     1     -44.548  57.183 -58.881  1.00  0.00    -0.018 A 
HETATM   19  C   UNL     1     -44.772  57.825 -57.673  1.00  0.00     0.076 A 
HETATM   20  C   UNL     1     -45.271  57.531 -60.010  1.00  0.00     0.010 A 
HETATM   21  O   UNL     1     -44.005  57.351 -56.641  1.00  0.00    -0.335 OA
HETATM   22  C   UNL     1     -45.708  58.830 -57.541  1.00  0.00     0.037 A 
HETATM   23  C   UNL     1     -46.435  59.200 -58.674  1.00  0.00     0.003 A 
HETATM   24  C   UNL     1     -46.217  58.554 -59.902  1.00  0.00     0.001 A 
ENDBRANCH  12  15
ENDBRANCH   1  11
BRANCH   8  25
HETATM   25  C   UNL     1     -41.869  54.454 -49.954  1.00  0.00     0.270 C 
HETATM   26  N   UNL     1     -41.106  54.918 -48.918  1.00  0.00    -0.365 N 
HETATM   27  H   UNL     1     -40.126  54.663 -48.886  1.00  0.00     0.159 HD
HETATM   28  H   UNL     1     -41.517  55.526 -48.228  1.00  0.00     0.159 HD
HETATM   29  O   UNL     1     -43.055  54.753 -50.051  1.00  0.00    -0.266 OA
ENDBRANCH   8  25
TORSDOF 3
ENDMDL
MODEL 9
REMARK VINA RESULT:      -8.2      4.631      6.253
REMARK  3 active torsions:
REMARK  status: ('A' for Active; 'I' for Inactive)
REMARK    1  A    between atoms: C_3  and  C_4 
REMARK       I    between atoms: C_4  and  N_5 
REMARK    2  A    between atoms: N_5  and  C_6 
REMARK    3  A    between atoms: C_13  and  C_14 
REMARK       I    between atoms: C_14  and  N_15 
ROOT
HETATM    1  C   UNL     1     -43.384  58.100 -52.688  1.00  0.00     0.035 A 
HETATM    2  C   UNL     1     -43.900  58.875 -51.641  1.00  0.00     0.046 A 
HETATM    3  C   UNL     1     -44.985  59.744 -51.887  1.00  0.00     0.030 A 
HETATM    4  C   UNL     1     -45.505  59.820 -53.173  1.00  0.00     0.063 A 
HETATM    5  N   UNL     1     -46.521  60.730 -53.099  1.00  0.00    -0.277 N 
HETATM    6  H   UNL     1     -47.124  61.041 -53.853  1.00  0.00     0.189 HD
HETATM    7  N   UNL     1     -46.723  61.242 -51.874  1.00  0.00    -0.168 NA
HETATM    8  C   UNL     1     -45.783  60.639 -51.111  1.00  0.00     0.156 A 
HETATM    9  C   UNL     1     -45.010  59.069 -54.241  1.00  0.00     0.034 A 
HETATM   10  C   UNL     1     -43.945  58.202 -53.967  1.00  0.00     0.032 A 
ENDROOT
BRANCH   1  11
HETATM   11  N   UNL     1     -42.337  57.174 -52.524  1.00  0.00    -0.325 N 
HETATM   12  C   UNL     1     -42.398  55.909 -51.967  1.00  0.00     0.252 C 
HETATM   13  O   UNL     1     -43.367  55.402 -51.410  1.00  0.00    -0.270 OA
HETATM   14  H   UNL     1     -41.408  57.463 -52.817  1.00  0.00     0.169 HD
BRANCH  12  15
HETATM   15  C   UNL     1     -41.110  55.106 -52.177  1.00  0.00     0.229 C 
HETATM   16  C   UNL     1     -40.975  54.065 -51.048  1.00  0.00     0.056 C 
HETATM   17  C   UNL     1     -40.098  54.550 -49.904  1.00  0.00     0.018 C 
HETATM   18  C   UNL     1     -40.416  52.934 -51.832  1.00  0.00    -0.018 A 
HETATM   19  C   UNL     1     -40.560  53.199 -53.185  1.00  0.00     0.076 A 
HETATM   20  C   UNL     1     -39.882  51.731 -51.401  1.00  0.00     0.010 A 
HETATM   21  O   UNL     1     -41.131  54.414 -53.456  1.00  0.00    -0.335 OA
HETATM   22  C   UNL     1     -40.180  52.292 -54.153  1.00  0.00     0.037 A 
HETATM   23  C   UNL     1     -39.628  51.081 -53.732  1.00  0.00     0.003 A 
HETATM   24  C   UNL     1     -39.479  50.802 -52.364  1.00  0.00     0.001 A 
ENDBRANCH  12  15
ENDBRANCH   1  11
BRANCH   8  25
HETATM   25  C   UNL     1     -45.675  60.917 -49.672  1.00  0.00     0.270 C 
HETATM   26  N   UNL     1     -45.332  62.208 -49.378  1.00  0.00    -0.365 N 
HETATM   27  H   UNL     1     -45.195  62.860 -50.141  1.00  0.00     0.159 HD
HETATM   28  H   UNL     1     -45.254  62.497 -48.415  1.00  0.00     0.159 HD
HETATM   29  O   UNL     1     -45.875  60.096 -48.784  1.00  0.00    -0.266 OA
ENDBRANCH   8  25
TORSDOF 3
ENDMDL
MODEL 10
REMARK VINA RESULT:      -8.1      2.918      3.674
REMARK  3 active torsions:
REMARK  status: ('A' for Active; 'I' for Inactive)
REMARK    1  A    between atoms: C_3  and  C_4 
REMARK       I    between atoms: C_4  and  N_5 
REMARK    2  A    between atoms: N_5  and  C_6 
REMARK    3  A    between atoms: C_13  and  C_14 
REMARK       I    between atoms: C_14  and  N_15 
ROOT
HETATM    1  C   UNL     1     -42.330  57.785 -55.418  1.00  0.00     0.035 A 
HETATM    2  C   UNL     1     -42.351  57.426 -56.772  1.00  0.00     0.046 A 
HETATM    3  C   UNL     1     -42.226  58.427 -57.760  1.00  0.00     0.030 A 
HETATM    4  C   UNL     1     -42.101  59.751 -57.361  1.00  0.00     0.063 A 
HETATM    5  N   UNL     1     -42.006  60.470 -58.518  1.00  0.00    -0.277 N 
HETATM    6  H   UNL     1     -41.907  61.476 -58.610  1.00  0.00     0.189 HD
HETATM    7  N   UNL     1     -42.039  59.731 -59.639  1.00  0.00    -0.168 NA
HETATM    8  C   UNL     1     -42.172  58.463 -59.186  1.00  0.00     0.156 A 
HETATM    9  C   UNL     1     -42.085  60.145 -56.021  1.00  0.00     0.034 A 
HETATM   10  C   UNL     1     -42.193  59.132 -55.060  1.00  0.00     0.032 A 
ENDROOT
BRANCH   1  11
HETATM   11  N   UNL     1     -42.401  56.851 -54.367  1.00  0.00    -0.325 N 
HETATM   12  C   UNL     1     -43.522  56.214 -53.868  1.00  0.00     0.252 C 
HETATM   13  O   UNL     1     -44.688  56.431 -54.186  1.00  0.00    -0.270 OA
HETATM   14  H   UNL     1     -41.536  56.628 -53.882  1.00  0.00     0.169 HD
BRANCH  12  15
HETATM   15  C   UNL     1     -43.178  55.090 -52.884  1.00  0.00     0.229 C 
HETATM   16  C   UNL     1     -41.775  54.544 -53.213  1.00  0.00     0.056 C 
HETATM   17  C   UNL     1     -41.819  53.309 -54.099  1.00  0.00     0.018 C 
HETATM   18  C   UNL     1     -41.282  54.308 -51.831  1.00  0.00    -0.018 A 
HETATM   19  C   UNL     1     -42.123  54.942 -50.930  1.00  0.00     0.076 A 
HETATM   20  C   UNL     1     -40.147  53.648 -51.393  1.00  0.00     0.010 A 
HETATM   21  O   UNL     1     -43.186  55.578 -51.515  1.00  0.00    -0.335 OA
HETATM   22  C   UNL     1     -41.875  54.942 -49.573  1.00  0.00     0.037 A 
HETATM   23  C   UNL     1     -40.741  54.268 -49.116  1.00  0.00     0.003 A 
HETATM   24  C   UNL     1     -39.881  53.625 -50.021  1.00  0.00     0.001 A 
ENDBRANCH  12  15
ENDBRANCH   1  11
BRANCH   8  25
HETATM   25  C   UNL     1     -42.230  57.325 -60.114  1.00  0.00     0.270 C 
HETATM   26  N   UNL     1     -41.033  56.688 -60.292  1.00  0.00    -0.365 N 
HETATM   27  H   UNL     1     -40.224  57.023 -59.782  1.00  0.00     0.159 HD
HETATM   28  H   UNL     1     -40.980  55.883 -60.897  1.00  0.00     0.159 HD
HETATM   29  O   UNL     1     -43.243  56.944 -60.691  1.00  0.00    -0.266 OA
ENDBRANCH   8  25
TORSDOF 3
ENDMDL
