MODEL 1
REMARK VINA RESULT:      -8.2      0.000      0.000
REMARK  3 active torsions:
REMARK  status: ('A' for Active; 'I' for Inactive)
REMARK    1  A    between atoms: C_2  and  C_3 
REMARK    2  A    between atoms: C_9  and  C_10 
REMARK    3  A    between atoms: C_23  and  N_24 
ROOT
HETATM    1  C   UNL     1     -44.012  56.354 -50.888  1.00  0.00     0.066 A 
HETATM    2  N   UNL     1     -45.255  56.859 -50.805  1.00  0.00    -0.177 NA
HETATM    3  N   UNL     1     -45.171  58.058 -51.416  1.00  0.00    -0.256 N 
HETATM    4  H   UNL     1     -45.998  58.641 -51.465  1.00  0.00     0.191 HD
HETATM    5  C   UNL     1     -43.921  58.330 -51.864  1.00  0.00     0.175 A 
HETATM    6  C   UNL     1     -43.144  57.239 -51.574  1.00  0.00     0.035 A 
HETATM    7  C   UNL     1     -41.696  57.240 -51.931  1.00  0.00     0.106 A 
HETATM    8  C   UNL     1     -41.287  58.610 -52.488  1.00  0.00     0.081 A 
HETATM    9  C   UNL     1     -39.897  58.808 -52.731  1.00  0.00     0.100 C 
HETATM   10  N   UNL     1     -38.766  58.977 -52.933  1.00  0.00    -0.191 NA
HETATM   11  C   UNL     1     -42.180  59.615 -52.712  1.00  0.00     0.140 A 
HETATM   12  O   UNL     1     -43.553  59.466 -52.442  1.00  0.00    -0.279 OA
ENDROOT
BRANCH   7  13
HETATM   13  C   UNL     1     -41.505  56.106 -52.943  1.00  0.00    -0.033 A 
HETATM   14  C   UNL     1     -40.932  54.844 -52.584  1.00  0.00    -0.019 A 
HETATM   15  C   UNL     1     -40.780  53.855 -53.596  1.00  0.00    -0.025 A 
HETATM   16  C   UNL     1     -40.498  54.489 -51.282  1.00  0.00     0.013 A 
HETATM   17  C   UNL     1     -40.233  52.599 -53.290  1.00  0.00     0.012 A 
HETATM   18  C   UNL     1     -41.174  54.122 -54.913  1.00  0.00     0.012 A 
HETATM   19  C   UNL     1     -39.825  52.287 -51.997  1.00  0.00     0.001 A 
HETATM   20  C   UNL     1     -39.957  53.233 -50.993  1.00  0.00     0.001 A 
HETATM   21  C   UNL     1     -41.722  55.349 -55.261  1.00  0.00     0.001 A 
HETATM   22  C   UNL     1     -41.886  56.328 -54.289  1.00  0.00     0.009 A 
ENDBRANCH   7  13
BRANCH  11  23
HETATM   23  N   UNL     1     -41.871  60.860 -53.210  1.00  0.00    -0.282 NA
HETATM   24  H   UNL     1     -40.994  61.260 -52.884  1.00  0.00     0.126 HD
HETATM   25  H   UNL     1     -41.980  60.908 -54.220  1.00  0.00     0.126 HD
ENDBRANCH  11  23
BRANCH   1  26
HETATM   26  C   UNL     1     -43.705  55.033 -50.267  1.00  0.00     0.057 C 
HETATM   27  C   UNL     1     -44.071  53.859 -51.160  1.00  0.00     0.011 C 
ENDBRANCH   1  26
TORSDOF 3
ENDMDL
MODEL 2
REMARK VINA RESULT:      -7.6      2.067      3.687
REMARK  3 active torsions:
REMARK  status: ('A' for Active; 'I' for Inactive)
REMARK    1  A    between atoms: C_2  and  C_3 
REMARK    2  A    between atoms: C_9  and  C_10 
REMARK    3  A    between atoms: C_23  and  N_24 
ROOT
HETATM    1  C   UNL     1     -41.336  59.144 -51.150  1.00  0.00     0.066 A 
HETATM    2  N   UNL     1     -41.749  60.112 -50.313  1.00  0.00    -0.177 NA
HETATM    3  N   UNL     1     -42.960  60.469 -50.786  1.00  0.00    -0.256 N 
HETATM    4  H   UNL     1     -43.471  61.208 -50.317  1.00  0.00     0.191 HD
HETATM    5  C   UNL     1     -43.313  59.775 -51.897  1.00  0.00     0.175 A 
HETATM    6  C   UNL     1     -42.305  58.881 -52.149  1.00  0.00     0.035 A 
HETATM    7  C   UNL     1     -42.393  57.975 -53.330  1.00  0.00     0.106 A 
HETATM    8  C   UNL     1     -43.628  58.319 -54.173  1.00  0.00     0.081 A 
HETATM    9  C   UNL     1     -43.758  57.634 -55.416  1.00  0.00     0.100 C 
HETATM   10  N   UNL     1     -43.873  57.080 -56.430  1.00  0.00    -0.191 NA
HETATM   11  C   UNL     1     -44.546  59.253 -53.796  1.00  0.00     0.140 A 
HETATM   12  O   UNL     1     -44.423  59.977 -52.596  1.00  0.00    -0.279 OA
ENDROOT
BRANCH   7  13
HETATM   13  C   UNL     1     -42.433  56.549 -52.771  1.00  0.00    -0.033 A 
HETATM   14  C   UNL     1     -41.684  55.475 -53.349  1.00  0.00    -0.019 A 
HETATM   15  C   UNL     1     -41.796  54.180 -52.770  1.00  0.00    -0.025 A 
HETATM   16  C   UNL     1     -40.821  55.596 -54.468  1.00  0.00     0.013 A 
HETATM   17  C   UNL     1     -41.073  53.098 -53.296  1.00  0.00     0.012 A 
HETATM   18  C   UNL     1     -42.632  53.967 -51.667  1.00  0.00     0.012 A 
HETATM   19  C   UNL     1     -40.230  53.259 -54.392  1.00  0.00     0.001 A 
HETATM   20  C   UNL     1     -40.106  54.509 -54.978  1.00  0.00     0.001 A 
HETATM   21  C   UNL     1     -43.364  55.008 -51.112  1.00  0.00     0.001 A 
HETATM   22  C   UNL     1     -43.265  56.282 -51.657  1.00  0.00     0.009 A 
ENDBRANCH   7  13
BRANCH  11  23
HETATM   23  N   UNL     1     -45.670  59.600 -54.511  1.00  0.00    -0.282 NA
HETATM   24  H   UNL     1     -46.244  58.824 -54.833  1.00  0.00     0.126 HD
HETATM   25  H   UNL     1     -46.207  60.330 -54.051  1.00  0.00     0.126 HD
ENDBRANCH  11  23
BRANCH   1  26
HETATM   26  C   UNL     1     -39.990  58.528 -50.964  1.00  0.00     0.057 C 
HETATM   27  C   UNL     1     -38.925  59.539 -50.570  1.00  0.00     0.011 C 
ENDBRANCH   1  26
TORSDOF 3
ENDMDL
MODEL 3
REMARK VINA RESULT:      -7.4      3.479      6.157
REMARK  3 active torsions:
REMARK  status: ('A' for Active; 'I' for Inactive)
REMARK    1  A    between atoms: C_2  and  C_3 
REMARK    2  A    between atoms: C_9  and  C_10 
REMARK    3  A    between atoms: C_23  and  N_24 
ROOT
HETATM    1  C   UNL     1     -40.473  54.345 -54.085  1.00  0.00     0.066 A 
HETATM    2  N   UNL     1     -40.433  53.368 -55.009  1.00  0.00    -0.177 NA
HETATM    3  N   UNL     1     -40.438  52.228 -54.290  1.00  0.00    -0.256 N 
HETATM    4  H   UNL     1     -40.397  51.341 -54.779  1.00  0.00     0.191 HD
HETATM    5  C   UNL     1     -40.463  52.452 -52.953  1.00  0.00     0.175 A 
HETATM    6  C   UNL     1     -40.521  53.810 -52.775  1.00  0.00     0.035 A 
HETATM    7  C   UNL     1     -40.542  54.379 -51.397  1.00  0.00     0.106 A 
HETATM    8  C   UNL     1     -40.360  53.264 -50.358  1.00  0.00     0.081 A 
HETATM    9  C   UNL     1     -40.209  53.678 -49.003  1.00  0.00     0.100 C 
HETATM   10  N   UNL     1     -40.086  54.006 -47.896  1.00  0.00    -0.191 NA
HETATM   11  C   UNL     1     -40.305  51.944 -50.691  1.00  0.00     0.140 A 
HETATM   12  O   UNL     1     -40.409  51.506 -52.024  1.00  0.00    -0.279 OA
ENDROOT
BRANCH   7  13
HETATM   13  C   UNL     1     -41.882  55.109 -51.258  1.00  0.00    -0.033 A 
HETATM   14  C   UNL     1     -41.990  56.535 -51.311  1.00  0.00    -0.019 A 
HETATM   15  C   UNL     1     -43.275  57.126 -51.156  1.00  0.00    -0.025 A 
HETATM   16  C   UNL     1     -40.905  57.426 -51.511  1.00  0.00     0.013 A 
HETATM   17  C   UNL     1     -43.432  58.520 -51.212  1.00  0.00     0.012 A 
HETATM   18  C   UNL     1     -44.403  56.323 -50.946  1.00  0.00     0.012 A 
HETATM   19  C   UNL     1     -42.342  59.359 -51.418  1.00  0.00     0.001 A 
HETATM   20  C   UNL     1     -41.078  58.812 -51.566  1.00  0.00     0.001 A 
HETATM   21  C   UNL     1     -44.296  54.940 -50.887  1.00  0.00     0.001 A 
HETATM   22  C   UNL     1     -43.052  54.341 -51.041  1.00  0.00     0.009 A 
ENDBRANCH   7  13
BRANCH  11  23
HETATM   23  N   UNL     1     -40.146  50.904 -49.803  1.00  0.00    -0.282 NA
HETATM   24  H   UNL     1     -41.002  50.548 -49.384  1.00  0.00     0.126 HD
HETATM   25  H   UNL     1     -39.548  50.170 -50.174  1.00  0.00     0.126 HD
ENDBRANCH  11  23
BRANCH   1  26
HETATM   26  C   UNL     1     -40.433  55.773 -54.515  1.00  0.00     0.057 C 
HETATM   27  C   UNL     1     -41.787  56.294 -54.969  1.00  0.00     0.011 C 
ENDBRANCH   1  26
TORSDOF 3
ENDMDL
MODEL 4
REMARK VINA RESULT:      -7.2      2.981      5.532
REMARK  3 active torsions:
REMARK  status: ('A' for Active; 'I' for Inactive)
REMARK    1  A    between atoms: C_2  and  C_3 
REMARK    2  A    between atoms: C_9  and  C_10 
REMARK    3  A    between atoms: C_23  and  N_24 
ROOT
HETATM    1  C   UNL     1     -41.899  54.226 -51.453  1.00  0.00     0.066 A 
HETATM    2  N   UNL     1     -41.095  53.186 -51.739  1.00  0.00    -0.177 NA
HETATM    3  N   UNL     1     -41.087  53.130 -53.086  1.00  0.00    -0.256 N 
HETATM    4  H   UNL     1     -40.550  52.402 -53.542  1.00  0.00     0.191 HD
HETATM    5  C   UNL     1     -41.867  54.083 -53.654  1.00  0.00     0.175 A 
HETATM    6  C   UNL     1     -42.386  54.838 -52.634  1.00  0.00     0.035 A 
HETATM    7  C   UNL     1     -43.309  55.968 -52.940  1.00  0.00     0.106 A 
HETATM    8  C   UNL     1     -43.625  56.004 -54.441  1.00  0.00     0.081 A 
HETATM    9  C   UNL     1     -44.616  56.940 -54.859  1.00  0.00     0.100 C 
HETATM   10  N   UNL     1     -45.420  57.701 -55.208  1.00  0.00    -0.191 NA
HETATM   11  C   UNL     1     -43.034  55.172 -55.343  1.00  0.00     0.140 A 
HETATM   12  O   UNL     1     -42.084  54.208 -54.957  1.00  0.00    -0.279 OA
ENDROOT
BRANCH   7  13
HETATM   13  C   UNL     1     -42.606  57.237 -52.449  1.00  0.00    -0.033 A 
HETATM   14  C   UNL     1     -43.289  58.261 -51.718  1.00  0.00    -0.019 A 
HETATM   15  C   UNL     1     -42.556  59.413 -51.317  1.00  0.00    -0.025 A 
HETATM   16  C   UNL     1     -44.658  58.223 -51.351  1.00  0.00     0.013 A 
HETATM   17  C   UNL     1     -43.181  60.439 -50.590  1.00  0.00     0.012 A 
HETATM   18  C   UNL     1     -41.200  59.540 -51.644  1.00  0.00     0.012 A 
HETATM   19  C   UNL     1     -44.526  60.359 -50.242  1.00  0.00     0.001 A 
HETATM   20  C   UNL     1     -45.264  59.251 -50.624  1.00  0.00     0.001 A 
HETATM   21  C   UNL     1     -40.541  58.550 -52.360  1.00  0.00     0.001 A 
HETATM   22  C   UNL     1     -41.235  57.414 -52.757  1.00  0.00     0.009 A 
ENDBRANCH   7  13
BRANCH  11  23
HETATM   23  N   UNL     1     -43.277  55.161 -56.698  1.00  0.00    -0.282 NA
HETATM   24  H   UNL     1     -43.942  55.856 -57.031  1.00  0.00     0.126 HD
HETATM   25  H   UNL     1     -42.419  55.136 -57.242  1.00  0.00     0.126 HD
ENDBRANCH  11  23
BRANCH   1  26
HETATM   26  C   UNL     1     -42.190  54.568 -50.030  1.00  0.00     0.057 C 
HETATM   27  C   UNL     1     -41.267  55.642 -49.479  1.00  0.00     0.011 C 
ENDBRANCH   1  26
TORSDOF 3
ENDMDL
MODEL 5
REMARK VINA RESULT:      -7.2      2.466      4.077
REMARK  3 active torsions:
REMARK  status: ('A' for Active; 'I' for Inactive)
REMARK    1  A    between atoms: C_2  and  C_3 
REMARK    2  A    between atoms: C_9  and  C_10 
REMARK    3  A    between atoms: C_23  and  N_24 
ROOT
HETATM    1  C   UNL     1     -41.378  59.308 -53.202  1.00  0.00     0.066 A 
HETATM    2  N   UNL     1     -41.872  60.505 -52.839  1.00  0.00    -0.177 NA
HETATM    3  N   UNL     1     -42.975  60.656 -53.599  1.00  0.00    -0.256 N 
HETATM    4  H   UNL     1     -43.518  61.507 -53.511  1.00  0.00     0.191 HD
HETATM    5  C   UNL     1     -43.181  59.609 -54.435  1.00  0.00     0.175 A 
HETATM    6  C   UNL     1     -42.189  58.696 -54.188  1.00  0.00     0.035 A 
HETATM    7  C   UNL     1     -42.133  57.428 -54.971  1.00  0.00     0.106 A 
HETATM    8  C   UNL     1     -43.202  57.435 -56.072  1.00  0.00     0.081 A 
HETATM    9  C   UNL     1     -43.167  56.352 -56.997  1.00  0.00     0.100 C 
HETATM   10  N   UNL     1     -43.147  55.472 -57.754  1.00  0.00    -0.191 NA
HETATM   11  C   UNL     1     -44.123  58.431 -56.203  1.00  0.00     0.140 A 
HETATM   12  O   UNL     1     -44.156  59.535 -55.332  1.00  0.00    -0.279 OA
ENDROOT
BRANCH   7  13
HETATM   13  C   UNL     1     -42.327  56.294 -53.960  1.00  0.00    -0.033 A 
HETATM   14  C   UNL     1     -41.593  55.067 -54.030  1.00  0.00    -0.019 A 
HETATM   15  C   UNL     1     -41.853  54.063 -53.055  1.00  0.00    -0.025 A 
HETATM   16  C   UNL     1     -40.609  54.763 -55.005  1.00  0.00     0.013 A 
HETATM   17  C   UNL     1     -41.151  52.848 -53.077  1.00  0.00     0.012 A 
HETATM   18  C   UNL     1     -42.815  54.274 -52.059  1.00  0.00     0.012 A 
HETATM   19  C   UNL     1     -40.187  52.591 -54.047  1.00  0.00     0.001 A 
HETATM   20  C   UNL     1     -39.917  53.548 -55.012  1.00  0.00     0.001 A 
HETATM   21  C   UNL     1     -43.531  55.462 -51.997  1.00  0.00     0.001 A 
HETATM   22  C   UNL     1     -43.291  56.458 -52.935  1.00  0.00     0.009 A 
ENDBRANCH   7  13
BRANCH  11  23
HETATM   23  N   UNL     1     -45.103  58.487 -57.168  1.00  0.00    -0.282 NA
HETATM   24  H   UNL     1     -44.773  58.553 -58.128  1.00  0.00     0.126 HD
HETATM   25  H   UNL     1     -45.812  57.770 -57.038  1.00  0.00     0.126 HD
ENDBRANCH  11  23
BRANCH   1  26
HETATM   26  C   UNL     1     -40.108  58.815 -52.592  1.00  0.00     0.057 C 
HETATM   27  C   UNL     1     -40.237  58.530 -51.105  1.00  0.00     0.011 C 
ENDBRANCH   1  26
TORSDOF 3
ENDMDL
MODEL 6
REMARK VINA RESULT:      -7.1     16.769     18.835
REMARK  3 active torsions:
REMARK  status: ('A' for Active; 'I' for Inactive)
REMARK    1  A    between atoms: C_2  and  C_3 
REMARK    2  A    between atoms: C_9  and  C_10 
REMARK    3  A    between atoms: C_23  and  N_24 
ROOT
HETATM    1  C   UNL     1     -34.902  40.157 -53.247  1.00  0.00     0.066 A 
HETATM    2  N   UNL     1     -34.290  40.791 -52.230  1.00  0.00    -0.177 NA
HETATM    3  N   UNL     1     -33.023  40.961 -52.656  1.00  0.00    -0.256 N 
HETATM    4  H   UNL     1     -32.356  41.413 -52.041  1.00  0.00     0.191 HD
HETATM    5  C   UNL     1     -32.812  40.445 -53.892  1.00  0.00     0.175 A 
HETATM    6  C   UNL     1     -34.011  39.944 -54.328  1.00  0.00     0.035 A 
HETATM    7  C   UNL     1     -34.102  39.287 -55.663  1.00  0.00     0.106 A 
HETATM    8  C   UNL     1     -32.709  39.177 -56.298  1.00  0.00     0.081 A 
HETATM    9  C   UNL     1     -32.620  38.434 -57.510  1.00  0.00     0.100 C 
HETATM   10  N   UNL     1     -32.539  37.831 -58.499  1.00  0.00    -0.191 NA
HETATM   11  C   UNL     1     -31.594  39.720 -55.734  1.00  0.00     0.140 A 
HETATM   12  O   UNL     1     -31.641  40.423 -54.515  1.00  0.00    -0.279 OA
ENDROOT
BRANCH   7  13
HETATM   13  C   UNL     1     -35.068  40.139 -56.493  1.00  0.00    -0.033 A 
HETATM   14  C   UNL     1     -36.190  39.578 -57.183  1.00  0.00    -0.019 A 
HETATM   15  C   UNL     1     -37.024  40.445 -57.942  1.00  0.00    -0.025 A 
HETATM   16  C   UNL     1     -36.548  38.206 -57.171  1.00  0.00     0.013 A 
HETATM   17  C   UNL     1     -38.141  39.942 -58.627  1.00  0.00     0.012 A 
HETATM   18  C   UNL     1     -36.740  41.815 -58.017  1.00  0.00     0.012 A 
HETATM   19  C   UNL     1     -38.463  38.590 -58.585  1.00  0.00     0.001 A 
HETATM   20  C   UNL     1     -37.666  37.721 -57.857  1.00  0.00     0.001 A 
HETATM   21  C   UNL     1     -35.647  42.356 -57.354  1.00  0.00     0.001 A 
HETATM   22  C   UNL     1     -34.823  41.529 -56.601  1.00  0.00     0.009 A 
ENDBRANCH   7  13
BRANCH  11  23
HETATM   23  N   UNL     1     -30.323  39.654 -56.258  1.00  0.00    -0.282 NA
HETATM   24  H   UNL     1     -29.860  40.549 -56.404  1.00  0.00     0.126 HD
HETATM   25  H   UNL     1     -29.740  38.979 -55.770  1.00  0.00     0.126 HD
ENDBRANCH  11  23
BRANCH   1  26
HETATM   26  C   UNL     1     -36.332  39.753 -53.116  1.00  0.00     0.057 C 
HETATM   27  C   UNL     1     -37.291  40.766 -53.719  1.00  0.00     0.011 C 
ENDBRANCH   1  26
TORSDOF 3
ENDMDL
MODEL 7
REMARK VINA RESULT:      -7.1      2.331      4.295
REMARK  3 active torsions:
REMARK  status: ('A' for Active; 'I' for Inactive)
REMARK    1  A    between atoms: C_2  and  C_3 
REMARK    2  A    between atoms: C_9  and  C_10 
REMARK    3  A    between atoms: C_23  and  N_24 
ROOT
HETATM    1  C   UNL     1     -43.260  56.352 -55.114  1.00  0.00     0.066 A 
HETATM    2  N   UNL     1     -43.245  56.734 -56.403  1.00  0.00    -0.177 NA
HETATM    3  N   UNL     1     -43.865  57.931 -56.405  1.00  0.00    -0.256 N 
HETATM    4  H   UNL     1     -43.989  58.417 -57.285  1.00  0.00     0.191 HD
HETATM    5  C   UNL     1     -44.283  58.305 -55.170  1.00  0.00     0.175 A 
HETATM    6  C   UNL     1     -43.882  57.328 -54.297  1.00  0.00     0.035 A 
HETATM    7  C   UNL     1     -44.212  57.444 -52.847  1.00  0.00     0.106 A 
HETATM    8  C   UNL     1     -45.109  58.664 -52.602  1.00  0.00     0.081 A 
HETATM    9  C   UNL     1     -45.629  58.816 -51.284  1.00  0.00     0.100 C 
HETATM   10  N   UNL     1     -46.056  58.947 -50.213  1.00  0.00    -0.191 NA
HETATM   11  C   UNL     1     -45.437  59.551 -53.583  1.00  0.00     0.140 A 
HETATM   12  O   UNL     1     -44.975  59.406 -54.905  1.00  0.00    -0.279 OA
ENDROOT
BRANCH   7  13
HETATM   13  C   UNL     1     -42.871  57.533 -52.111  1.00  0.00    -0.033 A 
HETATM   14  C   UNL     1     -42.383  56.482 -51.271  1.00  0.00    -0.019 A 
HETATM   15  C   UNL     1     -41.134  56.661 -50.615  1.00  0.00    -0.025 A 
HETATM   16  C   UNL     1     -43.051  55.253 -51.035  1.00  0.00     0.013 A 
HETATM   17  C   UNL     1     -40.610  55.654 -49.789  1.00  0.00     0.012 A 
HETATM   18  C   UNL     1     -40.408  57.848 -50.783  1.00  0.00     0.012 A 
HETATM   19  C   UNL     1     -41.293  54.458 -49.590  1.00  0.00     0.001 A 
HETATM   20  C   UNL     1     -42.514  54.259 -50.212  1.00  0.00     0.001 A 
HETATM   21  C   UNL     1     -40.887  58.869 -51.592  1.00  0.00     0.001 A 
HETATM   22  C   UNL     1     -42.101  58.714 -52.247  1.00  0.00     0.009 A 
ENDBRANCH   7  13
BRANCH  11  23
HETATM   23  N   UNL     1     -46.234  60.661 -53.421  1.00  0.00    -0.282 NA
HETATM   24  H   UNL     1     -47.212  60.543 -53.677  1.00  0.00     0.126 HD
HETATM   25  H   UNL     1     -46.110  61.093 -52.508  1.00  0.00     0.126 HD
ENDBRANCH  11  23
BRANCH   1  26
HETATM   26  C   UNL     1     -42.691  55.028 -54.726  1.00  0.00     0.057 C 
HETATM   27  C   UNL     1     -41.193  55.078 -54.474  1.00  0.00     0.011 C 
ENDBRANCH   1  26
TORSDOF 3
ENDMDL
MODEL 8
REMARK VINA RESULT:      -6.8      4.938      6.814
REMARK  3 active torsions:
REMARK  status: ('A' for Active; 'I' for Inactive)
REMARK    1  A    between atoms: C_2  and  C_3 
REMARK    2  A    between atoms: C_9  and  C_10 
REMARK    3  A    between atoms: C_23  and  N_24 
ROOT
HETATM    1  C   UNL     1     -42.714  56.686 -55.335  1.00  0.00     0.066 A 
HETATM    2  N   UNL     1     -42.357  56.996 -54.076  1.00  0.00    -0.177 NA
HETATM    3  N   UNL     1     -41.943  58.277 -54.151  1.00  0.00    -0.256 N 
HETATM    4  H   UNL     1     -41.605  58.732 -53.311  1.00  0.00     0.191 HD
HETATM    5  C   UNL     1     -42.012  58.776 -55.410  1.00  0.00     0.175 A 
HETATM    6  C   UNL     1     -42.539  57.791 -56.204  1.00  0.00     0.035 A 
HETATM    7  C   UNL     1     -42.725  58.032 -57.664  1.00  0.00     0.106 A 
HETATM    8  C   UNL     1     -42.138  59.394 -58.057  1.00  0.00     0.081 A 
HETATM    9  C   UNL     1     -42.108  59.695 -59.449  1.00  0.00     0.100 C 
HETATM   10  N   UNL     1     -42.081  59.949 -60.582  1.00  0.00    -0.191 NA
HETATM   11  C   UNL     1     -41.631  60.273 -57.147  1.00  0.00     0.140 A 
HETATM   12  O   UNL     1     -41.607  59.988 -55.769  1.00  0.00    -0.279 OA
ENDROOT
BRANCH   7  13
HETATM   13  C   UNL     1     -44.232  57.937 -57.923  1.00  0.00    -0.033 A 
HETATM   14  C   UNL     1     -44.785  57.115 -58.957  1.00  0.00    -0.019 A 
HETATM   15  C   UNL     1     -46.196  57.102 -59.133  1.00  0.00    -0.025 A 
HETATM   16  C   UNL     1     -44.030  56.296 -59.834  1.00  0.00     0.013 A 
HETATM   17  C   UNL     1     -46.784  56.304 -60.127  1.00  0.00     0.012 A 
HETATM   18  C   UNL     1     -47.020  57.888 -58.316  1.00  0.00     0.012 A 
HETATM   19  C   UNL     1     -46.009  55.508 -60.964  1.00  0.00     0.001 A 
HETATM   20  C   UNL     1     -44.631  55.505 -60.818  1.00  0.00     0.001 A 
HETATM   21  C   UNL     1     -46.482  58.690 -57.319  1.00  0.00     0.001 A 
HETATM   22  C   UNL     1     -45.107  58.714 -57.125  1.00  0.00     0.009 A 
ENDBRANCH   7  13
BRANCH  11  23
HETATM   23  N   UNL     1     -41.095  61.506 -57.441  1.00  0.00    -0.282 NA
HETATM   24  H   UNL     1     -40.152  61.496 -57.823  1.00  0.00     0.126 HD
HETATM   25  H   UNL     1     -41.737  62.085 -57.976  1.00  0.00     0.126 HD
ENDBRANCH  11  23
BRANCH   1  26
HETATM   26  C   UNL     1     -43.189  55.308 -55.653  1.00  0.00     0.057 C 
HETATM   27  C   UNL     1     -43.392  54.451 -54.414  1.00  0.00     0.011 C 
ENDBRANCH   1  26
TORSDOF 3
ENDMDL
MODEL 9
REMARK VINA RESULT:      -6.8      2.413      3.163
REMARK  3 active torsions:
REMARK  status: ('A' for Active; 'I' for Inactive)
REMARK    1  A    between atoms: C_2  and  C_3 
REMARK    2  A    between atoms: C_9  and  C_10 
REMARK    3  A    between atoms: C_23  and  N_24 
ROOT
HETATM    1  C   UNL     1     -41.186  58.268 -50.922  1.00  0.00     0.066 A 
HETATM    2  N   UNL     1     -41.463  58.947 -49.795  1.00  0.00    -0.177 NA
HETATM    3  N   UNL     1     -42.054  60.080 -50.224  1.00  0.00    -0.256 N 
HETATM    4  H   UNL     1     -42.345  60.770 -49.541  1.00  0.00     0.191 HD
HETATM    5  C   UNL     1     -42.143  60.145 -51.576  1.00  0.00     0.175 A 
HETATM    6  C   UNL     1     -41.623  58.976 -52.068  1.00  0.00     0.035 A 
HETATM    7  C   UNL     1     -41.564  58.751 -53.541  1.00  0.00     0.106 A 
HETATM    8  C   UNL     1     -42.016  60.011 -54.290  1.00  0.00     0.081 A 
HETATM    9  C   UNL     1     -41.867  59.995 -55.708  1.00  0.00     0.100 C 
HETATM   10  N   UNL     1     -41.751  59.990 -56.863  1.00  0.00    -0.191 NA
HETATM   11  C   UNL     1     -42.503  61.115 -53.656  1.00  0.00     0.140 A 
HETATM   12  O   UNL     1     -42.622  61.178 -52.256  1.00  0.00    -0.279 OA
ENDROOT
BRANCH   7  13
HETATM   13  C   UNL     1     -42.456  57.538 -53.823  1.00  0.00    -0.033 A 
HETATM   14  C   UNL     1     -41.925  56.266 -54.210  1.00  0.00    -0.019 A 
HETATM   15  C   UNL     1     -42.833  55.201 -54.468  1.00  0.00    -0.025 A 
HETATM   16  C   UNL     1     -40.546  55.972 -54.359  1.00  0.00     0.013 A 
HETATM   17  C   UNL     1     -42.358  53.933 -54.839  1.00  0.00     0.012 A 
HETATM   18  C   UNL     1     -44.214  55.403 -54.354  1.00  0.00     0.012 A 
HETATM   19  C   UNL     1     -40.996  53.683 -54.967  1.00  0.00     0.001 A 
HETATM   20  C   UNL     1     -40.090  54.703 -54.728  1.00  0.00     0.001 A 
HETATM   21  C   UNL     1     -44.727  56.640 -53.986  1.00  0.00     0.001 A 
HETATM   22  C   UNL     1     -43.860  57.693 -53.724  1.00  0.00     0.009 A 
ENDBRANCH   7  13
BRANCH  11  23
HETATM   23  N   UNL     1     -42.924  62.269 -54.276  1.00  0.00    -0.282 NA
HETATM   24  H   UNL     1     -42.260  62.691 -54.920  1.00  0.00     0.126 HD
HETATM   25  H   UNL     1     -43.857  62.176 -54.670  1.00  0.00     0.126 HD
ENDBRANCH  11  23
BRANCH   1  26
HETATM   26  C   UNL     1     -40.474  56.959 -50.843  1.00  0.00     0.057 C 
HETATM   27  C   UNL     1     -41.414  55.785 -50.629  1.00  0.00     0.011 C 
ENDBRANCH   1  26
TORSDOF 3
ENDMDL
MODEL 10
REMARK VINA RESULT:      -6.7     15.853     17.909
REMARK  3 active torsions:
REMARK  status: ('A' for Active; 'I' for Inactive)
REMARK    1  A    between atoms: C_2  and  C_3 
REMARK    2  A    between atoms: C_9  and  C_10 
REMARK    3  A    between atoms: C_23  and  N_24 
ROOT
HETATM    1  C   UNL     1     -34.140  40.739 -54.572  1.00  0.00     0.066 A 
HETATM    2  N   UNL     1     -33.347  40.315 -53.571  1.00  0.00    -0.177 NA
HETATM    3  N   UNL     1     -34.205  39.942 -52.600  1.00  0.00    -0.256 N 
HETATM    4  H   UNL     1     -33.832  39.594 -51.724  1.00  0.00     0.191 HD
HETATM    5  C   UNL     1     -35.502  40.131 -52.947  1.00  0.00     0.175 A 
HETATM    6  C   UNL     1     -35.509  40.614 -54.230  1.00  0.00     0.035 A 
HETATM    7  C   UNL     1     -36.802  40.942 -54.895  1.00  0.00     0.106 A 
HETATM    8  C   UNL     1     -37.964  40.781 -53.906  1.00  0.00     0.081 A 
HETATM    9  C   UNL     1     -39.247  41.206 -54.358  1.00  0.00     0.100 C 
HETATM   10  N   UNL     1     -40.296  41.549 -54.719  1.00  0.00    -0.191 NA
HETATM   11  C   UNL     1     -37.800  40.295 -52.643  1.00  0.00     0.140 A 
HETATM   12  O   UNL     1     -36.540  39.907 -52.152  1.00  0.00    -0.279 OA
ENDROOT
BRANCH   7  13
HETATM   13  C   UNL     1     -36.912  40.003 -56.100  1.00  0.00    -0.033 A 
HETATM   14  C   UNL     1     -37.056  40.485 -57.440  1.00  0.00    -0.019 A 
HETATM   15  C   UNL     1     -37.167  39.537 -58.495  1.00  0.00    -0.025 A 
HETATM   16  C   UNL     1     -37.096  41.853 -57.812  1.00  0.00     0.013 A 
HETATM   17  C   UNL     1     -37.299  39.962 -59.826  1.00  0.00     0.012 A 
HETATM   18  C   UNL     1     -37.145  38.164 -58.219  1.00  0.00     0.012 A 
HETATM   19  C   UNL     1     -37.326  41.315 -60.151  1.00  0.00     0.001 A 
HETATM   20  C   UNL     1     -37.226  42.261 -59.143  1.00  0.00     0.001 A 
HETATM   21  C   UNL     1     -37.013  37.698 -56.918  1.00  0.00     0.001 A 
HETATM   22  C   UNL     1     -36.898  38.605 -55.873  1.00  0.00     0.009 A 
ENDBRANCH   7  13
BRANCH  11  23
HETATM   23  N   UNL     1     -38.804  40.127 -51.717  1.00  0.00    -0.282 NA
HETATM   24  H   UNL     1     -38.952  40.908 -51.081  1.00  0.00     0.126 HD
HETATM   25  H   UNL     1     -39.665  39.788 -52.140  1.00  0.00     0.126 HD
ENDBRANCH  11  23
BRANCH   1  26
HETATM   26  C   UNL     1     -33.530  41.282 -55.820  1.00  0.00     0.057 C 
HETATM   27  C   UNL     1     -33.283  40.213 -56.872  1.00  0.00     0.011 C 
ENDBRANCH   1  26
TORSDOF 3
ENDMDL
