MODEL 1
REMARK VINA RESULT:      -7.0      0.000      0.000
REMARK  6 active torsions:
REMARK  status: ('A' for Active; 'I' for Inactive)
REMARK    1  A    between atoms: C_2  and  N_3 
REMARK    2  A    between atoms: C_2  and  C_11 
REMARK       I    between atoms: N_3  and  C_4 
REMARK    3  A    between atoms: C_4  and  C_5 
REMARK    4  A    between atoms: C_14  and  O_15 
REMARK    5  A    between atoms: O_15  and  C_16 
REMARK    6  A    between atoms: C_16  and  C_17 
ROOT
HETATM    1  C   UNL     1     -42.251  56.804 -50.999  1.00  0.00    -0.036 A 
HETATM    2  C   UNL     1     -43.207  55.785 -51.118  1.00  0.00     0.012 A 
HETATM    3  C   UNL     1     -42.859  54.443 -50.918  1.00  0.00     0.037 A 
HETATM    4  C   UNL     1     -41.544  54.100 -50.610  1.00  0.00     0.069 A 
HETATM    5  C   UNL     1     -40.588  55.107 -50.478  1.00  0.00     0.037 A 
HETATM    6  C   UNL     1     -40.933  56.445 -50.678  1.00  0.00     0.012 A 
ENDROOT
BRANCH   1   7
HETATM    7  C   UNL     1     -42.640  58.250 -51.255  1.00  0.00     0.113 C 
HETATM    8  C   UNL     1     -41.579  59.226 -50.736  1.00  0.00     0.037 C 
BRANCH   7   9
HETATM    9  N   UNL     1     -42.899  58.431 -52.675  1.00  0.00    -0.352 N 
HETATM   10  C   UNL     1     -44.166  58.603 -53.171  1.00  0.00     0.225 C 
HETATM   11  O   UNL     1     -45.178  58.684 -52.491  1.00  0.00    -0.273 OA
HETATM   12  H   UNL     1     -42.128  58.297 -53.315  1.00  0.00     0.163 HD
BRANCH  10  13
HETATM   13  C   UNL     1     -44.226  58.697 -54.646  1.00  0.00     0.119 A 
HETATM   14  C   UNL     1     -43.996  57.476 -55.495  1.00  0.00     0.126 A 
HETATM   15 CL   UNL     1     -43.096  57.696 -56.997  1.00  0.00    -0.101 Cl
HETATM   16 CL   UNL     1     -43.735  55.901 -54.763  1.00  0.00    -0.101 Cl
HETATM   17  C   UNL     1     -45.369  58.073 -55.414  1.00  0.00     0.060 A 
ENDBRANCH  10  13
ENDBRANCH   7   9
ENDBRANCH   1   7
BRANCH   4  18
HETATM   18  O   UNL     1     -41.071  52.834 -50.403  1.00  0.00    -0.347 OA
BRANCH  18  19
HETATM   19  C   UNL     1     -39.757  52.550 -50.883  1.00  0.00     0.215 C 
BRANCH  19  20
HETATM   20  C   UNL     1     -39.828  51.604 -52.053  1.00  0.00    -0.017 A 
HETATM   21  C   UNL     1     -39.571  50.242 -51.912  1.00  0.00     0.125 A 
HETATM   22  N   UNL     1     -39.565  49.356 -52.935  1.00  0.00    -0.272 NA
HETATM   23  C   UNL     1     -39.822  49.848 -54.164  1.00  0.00     0.116 A 
HETATM   24  C   UNL     1     -40.077  51.186 -54.418  1.00  0.00     0.020 A 
HETATM   25  C   UNL     1     -40.073  52.074 -53.346  1.00  0.00     0.012 A 
ENDBRANCH  19  20
ENDBRANCH  18  19
ENDBRANCH   4  18
TORSDOF 6
ENDMDL
MODEL 2
REMARK VINA RESULT:      -7.0      2.586      3.498
REMARK  6 active torsions:
REMARK  status: ('A' for Active; 'I' for Inactive)
REMARK    1  A    between atoms: C_2  and  N_3 
REMARK    2  A    between atoms: C_2  and  C_11 
REMARK       I    between atoms: N_3  and  C_4 
REMARK    3  A    between atoms: C_4  and  C_5 
REMARK    4  A    between atoms: C_14  and  O_15 
REMARK    5  A    between atoms: O_15  and  C_16 
REMARK    6  A    between atoms: C_16  and  C_17 
ROOT
HETATM    1  C   UNL     1     -44.032  56.706 -54.408  1.00  0.00    -0.036 A 
HETATM    2  C   UNL     1     -43.790  56.947 -53.048  1.00  0.00     0.012 A 
HETATM    3  C   UNL     1     -43.034  56.052 -52.280  1.00  0.00     0.037 A 
HETATM    4  C   UNL     1     -42.521  54.894 -52.860  1.00  0.00     0.069 A 
HETATM    5  C   UNL     1     -42.746  54.651 -54.215  1.00  0.00     0.037 A 
HETATM    6  C   UNL     1     -43.500  55.541 -54.982  1.00  0.00     0.012 A 
ENDROOT
BRANCH   1   7
HETATM    7  C   UNL     1     -44.885  57.670 -55.215  1.00  0.00     0.113 C 
HETATM    8  C   UNL     1     -45.118  58.988 -54.466  1.00  0.00     0.037 C 
BRANCH   7   9
HETATM    9  N   UNL     1     -44.266  57.884 -56.514  1.00  0.00    -0.352 N 
HETATM   10  C   UNL     1     -45.003  57.992 -57.665  1.00  0.00     0.225 C 
HETATM   11  O   UNL     1     -46.225  57.984 -57.717  1.00  0.00    -0.273 OA
HETATM   12  H   UNL     1     -43.259  57.822 -56.572  1.00  0.00     0.163 HD
BRANCH  10  13
HETATM   13  C   UNL     1     -44.186  58.134 -58.890  1.00  0.00     0.119 A 
HETATM   14  C   UNL     1     -43.440  56.951 -59.447  1.00  0.00     0.126 A 
HETATM   15 CL   UNL     1     -41.840  57.254 -60.126  1.00  0.00    -0.101 Cl
HETATM   16 CL   UNL     1     -43.584  55.363 -58.711  1.00  0.00    -0.101 Cl
HETATM   17  C   UNL     1     -44.625  57.495 -60.189  1.00  0.00     0.060 A 
ENDBRANCH  10  13
ENDBRANCH   7   9
ENDBRANCH   1   7
BRANCH   4  18
HETATM   18  O   UNL     1     -41.780  53.937 -52.225  1.00  0.00    -0.347 OA
BRANCH  18  19
HETATM   19  C   UNL     1     -40.452  53.726 -52.703  1.00  0.00     0.215 C 
BRANCH  19  20
HETATM   20  C   UNL     1     -40.195  52.253 -52.885  1.00  0.00    -0.017 A 
HETATM   21  C   UNL     1     -39.765  51.447 -51.834  1.00  0.00     0.125 A 
HETATM   22  N   UNL     1     -39.467  50.132 -51.952  1.00  0.00    -0.272 NA
HETATM   23  C   UNL     1     -39.596  49.590 -53.181  1.00  0.00     0.116 A 
HETATM   24  C   UNL     1     -40.003  50.302 -54.296  1.00  0.00     0.020 A 
HETATM   25  C   UNL     1     -40.300  51.654 -54.144  1.00  0.00     0.012 A 
ENDBRANCH  19  20
ENDBRANCH  18  19
ENDBRANCH   4  18
TORSDOF 6
ENDMDL
MODEL 3
REMARK VINA RESULT:      -6.8      2.839      3.695
REMARK  6 active torsions:
REMARK  status: ('A' for Active; 'I' for Inactive)
REMARK    1  A    between atoms: C_2  and  N_3 
REMARK    2  A    between atoms: C_2  and  C_11 
REMARK       I    between atoms: N_3  and  C_4 
REMARK    3  A    between atoms: C_4  and  C_5 
REMARK    4  A    between atoms: C_14  and  O_15 
REMARK    5  A    between atoms: O_15  and  C_16 
REMARK    6  A    between atoms: C_16  and  C_17 
ROOT
HETATM    1  C   UNL     1     -42.635  56.671 -52.159  1.00  0.00    -0.036 A 
HETATM    2  C   UNL     1     -41.463  56.706 -51.389  1.00  0.00     0.012 A 
HETATM    3  C   UNL     1     -40.911  55.532 -50.862  1.00  0.00     0.037 A 
HETATM    4  C   UNL     1     -41.532  54.305 -51.087  1.00  0.00     0.069 A 
HETATM    5  C   UNL     1     -42.691  54.258 -51.862  1.00  0.00     0.037 A 
HETATM    6  C   UNL     1     -43.244  55.428 -52.387  1.00  0.00     0.012 A 
ENDROOT
BRANCH   1   7
HETATM    7  C   UNL     1     -43.238  57.960 -52.690  1.00  0.00     0.113 C 
HETATM    8  C   UNL     1     -44.672  57.754 -53.192  1.00  0.00     0.037 C 
BRANCH   7   9
HETATM    9  N   UNL     1     -43.163  58.984 -51.659  1.00  0.00    -0.352 N 
HETATM   10  C   UNL     1     -42.641  60.228 -51.901  1.00  0.00     0.225 C 
HETATM   11  O   UNL     1     -42.250  60.623 -52.990  1.00  0.00    -0.273 OA
HETATM   12  H   UNL     1     -43.390  58.715 -50.711  1.00  0.00     0.163 HD
BRANCH  10  13
HETATM   13  C   UNL     1     -42.587  61.100 -50.707  1.00  0.00     0.119 A 
HETATM   14  C   UNL     1     -43.398  62.366 -50.655  1.00  0.00     0.126 A 
HETATM   15 CL   UNL     1     -42.653  63.769 -49.885  1.00  0.00    -0.101 Cl
HETATM   16 CL   UNL     1     -44.487  62.799 -51.963  1.00  0.00    -0.101 Cl
HETATM   17  C   UNL     1     -43.774  61.209 -49.777  1.00  0.00     0.060 A 
ENDBRANCH  10  13
ENDBRANCH   7   9
ENDBRANCH   1   7
BRANCH   4  18
HETATM   18  O   UNL     1     -41.106  53.091 -50.624  1.00  0.00    -0.347 OA
BRANCH  18  19
HETATM   19  C   UNL     1     -39.784  52.691 -50.983  1.00  0.00     0.215 C 
BRANCH  19  20
HETATM   20  C   UNL     1     -39.836  51.666 -52.085  1.00  0.00    -0.017 A 
HETATM   21  C   UNL     1     -39.581  50.317 -51.846  1.00  0.00     0.125 A 
HETATM   22  N   UNL     1     -39.559  49.363 -52.805  1.00  0.00    -0.272 NA
HETATM   23  C   UNL     1     -39.796  49.768 -54.070  1.00  0.00     0.116 A 
HETATM   24  C   UNL     1     -40.047  51.084 -54.420  1.00  0.00     0.020 A 
HETATM   25  C   UNL     1     -40.061  52.045 -53.412  1.00  0.00     0.012 A 
ENDBRANCH  19  20
ENDBRANCH  18  19
ENDBRANCH   4  18
TORSDOF 6
ENDMDL
MODEL 4
REMARK VINA RESULT:      -6.8     15.420     17.459
REMARK  6 active torsions:
REMARK  status: ('A' for Active; 'I' for Inactive)
REMARK    1  A    between atoms: C_2  and  N_3 
REMARK    2  A    between atoms: C_2  and  C_11 
REMARK       I    between atoms: N_3  and  C_4 
REMARK    3  A    between atoms: C_4  and  C_5 
REMARK    4  A    between atoms: C_14  and  O_15 
REMARK    5  A    between atoms: O_15  and  C_16 
REMARK    6  A    between atoms: C_16  and  C_17 
ROOT
HETATM    1  C   UNL     1     -36.475  41.787 -54.573  1.00  0.00    -0.036 A 
HETATM    2  C   UNL     1     -35.364  42.274 -55.276  1.00  0.00     0.012 A 
HETATM    3  C   UNL     1     -35.355  42.306 -56.676  1.00  0.00     0.037 A 
HETATM    4  C   UNL     1     -36.453  41.838 -57.394  1.00  0.00     0.069 A 
HETATM    5  C   UNL     1     -37.568  41.362 -56.704  1.00  0.00     0.037 A 
HETATM    6  C   UNL     1     -37.579  41.328 -55.308  1.00  0.00     0.012 A 
ENDROOT
BRANCH   1   7
HETATM    7  C   UNL     1     -36.452  41.726 -53.055  1.00  0.00     0.113 C 
HETATM    8  C   UNL     1     -37.816  41.332 -52.479  1.00  0.00     0.037 C 
BRANCH   7   9
HETATM    9  N   UNL     1     -35.397  40.817 -52.630  1.00  0.00    -0.352 N 
HETATM   10  C   UNL     1     -34.390  41.211 -51.788  1.00  0.00     0.225 C 
HETATM   11  O   UNL     1     -34.303  42.314 -51.268  1.00  0.00    -0.273 OA
HETATM   12  H   UNL     1     -35.349  39.911 -53.075  1.00  0.00     0.163 HD
BRANCH  10  13
HETATM   13  C   UNL     1     -33.377  40.164 -51.532  1.00  0.00     0.119 A 
HETATM   14  C   UNL     1     -32.460  39.708 -52.636  1.00  0.00     0.126 A 
HETATM   15 CL   UNL     1     -32.068  37.988 -52.700  1.00  0.00    -0.101 Cl
HETATM   16 CL   UNL     1     -32.511  40.460 -54.222  1.00  0.00    -0.101 Cl
HETATM   17  C   UNL     1     -31.905  40.506 -51.494  1.00  0.00     0.060 A 
ENDBRANCH  10  13
ENDBRANCH   7   9
ENDBRANCH   1   7
BRANCH   4  18
HETATM   18  O   UNL     1     -36.569  41.803 -58.756  1.00  0.00    -0.347 OA
BRANCH  18  19
HETATM   19  C   UNL     1     -37.631  41.016 -59.293  1.00  0.00     0.215 C 
BRANCH  19  20
HETATM   20  C   UNL     1     -37.072  39.887 -60.119  1.00  0.00    -0.017 A 
HETATM   21  C   UNL     1     -36.014  39.101 -59.668  1.00  0.00     0.125 A 
HETATM   22  N   UNL     1     -35.437  38.112 -60.388  1.00  0.00    -0.272 NA
HETATM   23  C   UNL     1     -35.931  37.895 -61.625  1.00  0.00     0.116 A 
HETATM   24  C   UNL     1     -36.970  38.625 -62.176  1.00  0.00     0.020 A 
HETATM   25  C   UNL     1     -37.543  39.639 -61.412  1.00  0.00     0.012 A 
ENDBRANCH  19  20
ENDBRANCH  18  19
ENDBRANCH   4  18
TORSDOF 6
ENDMDL
MODEL 5
REMARK VINA RESULT:      -6.7      3.432      7.276
REMARK  6 active torsions:
REMARK  status: ('A' for Active; 'I' for Inactive)
REMARK    1  A    between atoms: C_2  and  N_3 
REMARK    2  A    between atoms: C_2  and  C_11 
REMARK       I    between atoms: N_3  and  C_4 
REMARK    3  A    between atoms: C_4  and  C_5 
REMARK    4  A    between atoms: C_14  and  O_15 
REMARK    5  A    between atoms: O_15  and  C_16 
REMARK    6  A    between atoms: C_16  and  C_17 
ROOT
HETATM    1  C   UNL     1     -42.528  55.693 -52.750  1.00  0.00    -0.036 A 
HETATM    2  C   UNL     1     -41.565  56.645 -53.115  1.00  0.00     0.012 A 
HETATM    3  C   UNL     1     -41.729  57.434 -54.260  1.00  0.00     0.037 A 
HETATM    4  C   UNL     1     -42.855  57.273 -55.065  1.00  0.00     0.069 A 
HETATM    5  C   UNL     1     -43.825  56.337 -54.704  1.00  0.00     0.037 A 
HETATM    6  C   UNL     1     -43.662  55.548 -53.564  1.00  0.00     0.012 A 
ENDROOT
BRANCH   1   7
HETATM    7  C   UNL     1     -42.314  54.821 -51.525  1.00  0.00     0.113 C 
HETATM    8  C   UNL     1     -43.595  54.678 -50.696  1.00  0.00     0.037 C 
BRANCH   7   9
HETATM    9  N   UNL     1     -41.788  53.531 -51.942  1.00  0.00    -0.352 N 
HETATM   10  C   UNL     1     -40.526  53.113 -51.608  1.00  0.00     0.225 C 
HETATM   11  O   UNL     1     -39.751  53.732 -50.892  1.00  0.00    -0.273 OA
HETATM   12  H   UNL     1     -42.332  52.992 -52.603  1.00  0.00     0.163 HD
BRANCH  10  13
HETATM   13  C   UNL     1     -40.152  51.805 -52.188  1.00  0.00     0.119 A 
HETATM   14  C   UNL     1     -40.008  51.648 -53.678  1.00  0.00     0.126 A 
HETATM   15 CL   UNL     1     -40.572  50.134 -54.388  1.00  0.00    -0.101 Cl
HETATM   16 CL   UNL     1     -40.196  53.022 -54.755  1.00  0.00    -0.101 Cl
HETATM   17  C   UNL     1     -38.788  51.596 -52.807  1.00  0.00     0.060 A 
ENDBRANCH  10  13
ENDBRANCH   7   9
ENDBRANCH   1   7
BRANCH   4  18
HETATM   18  O   UNL     1     -43.131  57.967 -56.210  1.00  0.00    -0.347 OA
BRANCH  18  19
HETATM   19  C   UNL     1     -42.465  57.542 -57.399  1.00  0.00     0.215 C 
BRANCH  19  20
HETATM   20  C   UNL     1     -43.445  56.880 -58.332  1.00  0.00    -0.017 A 
HETATM   21  C   UNL     1     -44.645  57.491 -58.691  1.00  0.00     0.125 A 
HETATM   22  N   UNL     1     -45.585  56.922 -59.479  1.00  0.00    -0.272 NA
HETATM   23  C   UNL     1     -45.326  55.678 -59.931  1.00  0.00     0.116 A 
HETATM   24  C   UNL     1     -44.173  54.974 -59.625  1.00  0.00     0.020 A 
HETATM   25  C   UNL     1     -43.224  55.585 -58.809  1.00  0.00     0.012 A 
ENDBRANCH  19  20
ENDBRANCH  18  19
ENDBRANCH   4  18
TORSDOF 6
ENDMDL
MODEL 6
REMARK VINA RESULT:      -6.4     15.644     17.505
REMARK  6 active torsions:
REMARK  status: ('A' for Active; 'I' for Inactive)
REMARK    1  A    between atoms: C_2  and  N_3 
REMARK    2  A    between atoms: C_2  and  C_11 
REMARK       I    between atoms: N_3  and  C_4 
REMARK    3  A    between atoms: C_4  and  C_5 
REMARK    4  A    between atoms: C_14  and  O_15 
REMARK    5  A    between atoms: O_15  and  C_16 
REMARK    6  A    between atoms: C_16  and  C_17 
ROOT
HETATM    1  C   UNL     1     -37.059  41.585 -57.818  1.00  0.00    -0.036 A 
HETATM    2  C   UNL     1     -35.773  42.061 -57.524  1.00  0.00     0.012 A 
HETATM    3  C   UNL     1     -35.374  42.289 -56.201  1.00  0.00     0.037 A 
HETATM    4  C   UNL     1     -36.261  42.055 -55.152  1.00  0.00     0.069 A 
HETATM    5  C   UNL     1     -37.538  41.570 -55.434  1.00  0.00     0.037 A 
HETATM    6  C   UNL     1     -37.939  41.344 -56.752  1.00  0.00     0.012 A 
ENDROOT
BRANCH   1   7
HETATM    7  C   UNL     1     -37.486  41.380 -59.261  1.00  0.00     0.113 C 
HETATM    8  C   UNL     1     -37.344  42.664 -60.085  1.00  0.00     0.037 C 
BRANCH   7   9
HETATM    9  N   UNL     1     -36.726  40.278 -59.833  1.00  0.00    -0.352 N 
HETATM   10  C   UNL     1     -37.189  38.988 -59.821  1.00  0.00     0.225 C 
HETATM   11  O   UNL     1     -38.283  38.641 -59.399  1.00  0.00    -0.273 OA
HETATM   12  H   UNL     1     -35.778  40.465 -60.129  1.00  0.00     0.163 HD
BRANCH  10  13
HETATM   13  C   UNL     1     -36.239  38.004 -60.385  1.00  0.00     0.119 A 
HETATM   14  C   UNL     1     -34.940  37.713 -59.681  1.00  0.00     0.126 A 
HETATM   15 CL   UNL     1     -33.518  37.447 -60.692  1.00  0.00    -0.101 Cl
HETATM   16 CL   UNL     1     -34.558  38.464 -58.141  1.00  0.00    -0.101 Cl
HETATM   17  C   UNL     1     -36.018  36.669 -59.710  1.00  0.00     0.060 A 
ENDBRANCH  10  13
ENDBRANCH   7   9
ENDBRANCH   1   7
BRANCH   4  18
HETATM   18  O   UNL     1     -36.003  42.246 -53.823  1.00  0.00    -0.347 OA
BRANCH  18  19
HETATM   19  C   UNL     1     -36.002  41.084 -52.994  1.00  0.00     0.215 C 
BRANCH  19  20
HETATM   20  C   UNL     1     -34.623  40.849 -52.436  1.00  0.00    -0.017 A 
HETATM   21  C   UNL     1     -33.587  40.351 -53.222  1.00  0.00     0.125 A 
HETATM   22  N   UNL     1     -32.346  40.069 -52.762  1.00  0.00    -0.272 NA
HETATM   23  C   UNL     1     -32.123  40.286 -51.450  1.00  0.00     0.116 A 
HETATM   24  C   UNL     1     -33.084  40.766 -50.576  1.00  0.00     0.020 A 
HETATM   25  C   UNL     1     -34.352  41.045 -51.078  1.00  0.00     0.012 A 
ENDBRANCH  19  20
ENDBRANCH  18  19
ENDBRANCH   4  18
TORSDOF 6
ENDMDL
MODEL 7
REMARK VINA RESULT:      -6.3      1.873      2.312
REMARK  6 active torsions:
REMARK  status: ('A' for Active; 'I' for Inactive)
REMARK    1  A    between atoms: C_2  and  N_3 
REMARK    2  A    between atoms: C_2  and  C_11 
REMARK       I    between atoms: N_3  and  C_4 
REMARK    3  A    between atoms: C_4  and  C_5 
REMARK    4  A    between atoms: C_14  and  O_15 
REMARK    5  A    between atoms: O_15  and  C_16 
REMARK    6  A    between atoms: C_16  and  C_17 
ROOT
HETATM    1  C   UNL     1     -42.691  56.930 -52.816  1.00  0.00    -0.036 A 
HETATM    2  C   UNL     1     -43.615  56.057 -52.221  1.00  0.00     0.012 A 
HETATM    3  C   UNL     1     -43.189  54.897 -51.562  1.00  0.00     0.037 A 
HETATM    4  C   UNL     1     -41.832  54.585 -51.501  1.00  0.00     0.069 A 
HETATM    5  C   UNL     1     -40.905  55.452 -52.080  1.00  0.00     0.037 A 
HETATM    6  C   UNL     1     -41.328  56.609 -52.738  1.00  0.00     0.012 A 
ENDROOT
BRANCH   1   7
HETATM    7  C   UNL     1     -43.176  58.164 -53.557  1.00  0.00     0.113 C 
HETATM    8  C   UNL     1     -42.896  59.448 -52.769  1.00  0.00     0.037 C 
BRANCH   7   9
HETATM    9  N   UNL     1     -42.572  58.194 -54.881  1.00  0.00    -0.352 N 
HETATM   10  C   UNL     1     -43.059  57.448 -55.923  1.00  0.00     0.225 C 
HETATM   11  O   UNL     1     -44.059  56.747 -55.874  1.00  0.00    -0.273 OA
HETATM   12  H   UNL     1     -41.694  58.685 -54.987  1.00  0.00     0.163 HD
BRANCH  10  13
HETATM   13  C   UNL     1     -42.265  57.561 -57.166  1.00  0.00     0.119 A 
HETATM   14  C   UNL     1     -42.947  57.820 -58.482  1.00  0.00     0.126 A 
HETATM   15 CL   UNL     1     -42.301  56.992 -59.901  1.00  0.00    -0.101 Cl
HETATM   16 CL   UNL     1     -44.682  58.077 -58.568  1.00  0.00    -0.101 Cl
HETATM   17  C   UNL     1     -42.104  58.894 -57.861  1.00  0.00     0.060 A 
ENDBRANCH  10  13
ENDBRANCH   7   9
ENDBRANCH   1   7
BRANCH   4  18
HETATM   18  O   UNL     1     -41.286  53.484 -50.902  1.00  0.00    -0.347 OA
BRANCH  18  19
HETATM   19  C   UNL     1     -39.934  53.172 -51.237  1.00  0.00     0.215 C 
BRANCH  19  20
HETATM   20  C   UNL     1     -39.888  51.944 -52.107  1.00  0.00    -0.017 A 
HETATM   21  C   UNL     1     -39.608  50.683 -51.585  1.00  0.00     0.125 A 
HETATM   22  N   UNL     1     -39.499  49.557 -52.326  1.00  0.00    -0.272 NA
HETATM   23  C   UNL     1     -39.670  49.688 -53.658  1.00  0.00     0.116 A 
HETATM   24  C   UNL     1     -39.938  50.895 -54.282  1.00  0.00     0.020 A 
HETATM   25  C   UNL     1     -40.042  52.037 -53.494  1.00  0.00     0.012 A 
ENDBRANCH  19  20
ENDBRANCH  18  19
ENDBRANCH   4  18
TORSDOF 6
ENDMDL
MODEL 8
REMARK VINA RESULT:      -6.3     16.084     18.002
REMARK  6 active torsions:
REMARK  status: ('A' for Active; 'I' for Inactive)
REMARK    1  A    between atoms: C_2  and  N_3 
REMARK    2  A    between atoms: C_2  and  C_11 
REMARK       I    between atoms: N_3  and  C_4 
REMARK    3  A    between atoms: C_4  and  C_5 
REMARK    4  A    between atoms: C_14  and  O_15 
REMARK    5  A    between atoms: O_15  and  C_16 
REMARK    6  A    between atoms: C_16  and  C_17 
ROOT
HETATM    1  C   UNL     1     -37.214  41.254 -58.433  1.00  0.00    -0.036 A 
HETATM    2  C   UNL     1     -36.272  42.124 -57.867  1.00  0.00     0.012 A 
HETATM    3  C   UNL     1     -35.898  42.006 -56.523  1.00  0.00     0.037 A 
HETATM    4  C   UNL     1     -36.472  41.023 -55.720  1.00  0.00     0.069 A 
HETATM    5  C   UNL     1     -37.403  40.145 -56.277  1.00  0.00     0.037 A 
HETATM    6  C   UNL     1     -37.778  40.262 -57.617  1.00  0.00     0.012 A 
ENDROOT
BRANCH   1   7
HETATM    7  C   UNL     1     -37.634  41.421 -59.883  1.00  0.00     0.113 C 
HETATM    8  C   UNL     1     -37.454  42.865 -60.366  1.00  0.00     0.037 C 
BRANCH   7   9
HETATM    9  N   UNL     1     -36.897  40.475 -60.707  1.00  0.00    -0.352 N 
HETATM   10  C   UNL     1     -37.452  39.301 -61.145  1.00  0.00     0.225 C 
HETATM   11  O   UNL     1     -38.610  38.959 -60.951  1.00  0.00    -0.273 OA
HETATM   12  H   UNL     1     -35.910  40.642 -60.846  1.00  0.00     0.163 HD
BRANCH  10  13
HETATM   13  C   UNL     1     -36.519  38.443 -61.908  1.00  0.00     0.119 A 
HETATM   14  C   UNL     1     -35.309  37.852 -61.236  1.00  0.00     0.126 A 
HETATM   15 CL   UNL     1     -33.822  37.768 -62.183  1.00  0.00    -0.101 Cl
HETATM   16 CL   UNL     1     -35.018  38.094 -59.521  1.00  0.00    -0.101 Cl
HETATM   17  C   UNL     1     -36.442  36.957 -61.641  1.00  0.00     0.060 A 
ENDBRANCH  10  13
ENDBRANCH   7   9
ENDBRANCH   1   7
BRANCH   4  18
HETATM   18  O   UNL     1     -36.206  40.807 -54.397  1.00  0.00    -0.347 OA
BRANCH  18  19
HETATM   19  C   UNL     1     -35.604  39.559 -54.056  1.00  0.00     0.215 C 
BRANCH  19  20
HETATM   20  C   UNL     1     -34.163  39.542 -54.497  1.00  0.00    -0.017 A 
HETATM   21  C   UNL     1     -33.190  40.305 -53.856  1.00  0.00     0.125 A 
HETATM   22  N   UNL     1     -31.895  40.371 -54.243  1.00  0.00    -0.272 NA
HETATM   23  C   UNL     1     -31.548  39.646 -55.326  1.00  0.00     0.116 A 
HETATM   24  C   UNL     1     -32.437  38.865 -56.044  1.00  0.00     0.020 A 
HETATM   25  C   UNL     1     -33.764  38.818 -55.624  1.00  0.00     0.012 A 
ENDBRANCH  19  20
ENDBRANCH  18  19
ENDBRANCH   4  18
TORSDOF 6
ENDMDL
MODEL 9
REMARK VINA RESULT:      -6.2      3.881      7.234
REMARK  6 active torsions:
REMARK  status: ('A' for Active; 'I' for Inactive)
REMARK    1  A    between atoms: C_2  and  N_3 
REMARK    2  A    between atoms: C_2  and  C_11 
REMARK       I    between atoms: N_3  and  C_4 
REMARK    3  A    between atoms: C_4  and  C_5 
REMARK    4  A    between atoms: C_14  and  O_15 
REMARK    5  A    between atoms: O_15  and  C_16 
REMARK    6  A    between atoms: C_16  and  C_17 
ROOT
HETATM    1  C   UNL     1     -43.038  56.731 -52.943  1.00  0.00    -0.036 A 
HETATM    2  C   UNL     1     -44.183  56.854 -53.744  1.00  0.00     0.012 A 
HETATM    3  C   UNL     1     -44.101  56.765 -55.139  1.00  0.00     0.037 A 
HETATM    4  C   UNL     1     -42.867  56.564 -55.755  1.00  0.00     0.069 A 
HETATM    5  C   UNL     1     -41.724  56.428 -54.967  1.00  0.00     0.037 A 
HETATM    6  C   UNL     1     -41.804  56.519 -53.576  1.00  0.00     0.012 A 
ENDROOT
BRANCH   1   7
HETATM    7  C   UNL     1     -43.144  56.868 -51.435  1.00  0.00     0.113 C 
HETATM    8  C   UNL     1     -44.598  57.024 -50.976  1.00  0.00     0.037 C 
BRANCH   7   9
HETATM    9  N   UNL     1     -42.492  55.730 -50.804  1.00  0.00    -0.352 N 
HETATM   10  C   UNL     1     -41.406  55.874 -49.980  1.00  0.00     0.225 C 
HETATM   11  O   UNL     1     -40.919  56.944 -49.645  1.00  0.00    -0.273 OA
HETATM   12  H   UNL     1     -42.780  54.804 -51.091  1.00  0.00     0.163 HD
BRANCH  10  13
HETATM   13  C   UNL     1     -40.844  54.593 -49.497  1.00  0.00     0.119 A 
HETATM   14  C   UNL     1     -40.338  53.569 -50.477  1.00  0.00     0.126 A 
HETATM   15 CL   UNL     1     -40.645  51.872 -50.100  1.00  0.00    -0.101 Cl
HETATM   16 CL   UNL     1     -40.321  53.896 -52.202  1.00  0.00    -0.101 Cl
HETATM   17  C   UNL     1     -39.363  54.309 -49.609  1.00  0.00     0.060 A 
ENDBRANCH  10  13
ENDBRANCH   7   9
ENDBRANCH   1   7
BRANCH   4  18
HETATM   18  O   UNL     1     -42.647  56.469 -57.101  1.00  0.00    -0.347 OA
BRANCH  18  19
HETATM   19  C   UNL     1     -43.290  57.437 -57.930  1.00  0.00     0.215 C 
BRANCH  19  20
HETATM   20  C   UNL     1     -44.150  56.747 -58.957  1.00  0.00    -0.017 A 
HETATM   21  C   UNL     1     -43.629  55.798 -59.833  1.00  0.00     0.125 A 
HETATM   22  N   UNL     1     -44.340  55.188 -60.810  1.00  0.00    -0.272 NA
HETATM   23  C   UNL     1     -45.635  55.545 -60.929  1.00  0.00     0.116 A 
HETATM   24  C   UNL     1     -46.250  56.487 -60.121  1.00  0.00     0.020 A 
HETATM   25  C   UNL     1     -45.492  57.099 -59.126  1.00  0.00     0.012 A 
ENDBRANCH  19  20
ENDBRANCH  18  19
ENDBRANCH   4  18
TORSDOF 6
ENDMDL
MODEL 10
REMARK VINA RESULT:      -6.2      3.529      7.627
REMARK  6 active torsions:
REMARK  status: ('A' for Active; 'I' for Inactive)
REMARK    1  A    between atoms: C_2  and  N_3 
REMARK    2  A    between atoms: C_2  and  C_11 
REMARK       I    between atoms: N_3  and  C_4 
REMARK    3  A    between atoms: C_4  and  C_5 
REMARK    4  A    between atoms: C_14  and  O_15 
REMARK    5  A    between atoms: O_15  and  C_16 
REMARK    6  A    between atoms: C_16  and  C_17 
ROOT
HETATM    1  C   UNL     1     -42.849  55.731 -52.637  1.00  0.00    -0.036 A 
HETATM    2  C   UNL     1     -42.787  57.128 -52.537  1.00  0.00     0.012 A 
HETATM    3  C   UNL     1     -42.964  57.940 -53.664  1.00  0.00     0.037 A 
HETATM    4  C   UNL     1     -43.191  57.364 -54.912  1.00  0.00     0.069 A 
HETATM    5  C   UNL     1     -43.266  55.976 -55.020  1.00  0.00     0.037 A 
HETATM    6  C   UNL     1     -43.089  55.164 -53.897  1.00  0.00     0.012 A 
ENDROOT
BRANCH   1   7
HETATM    7  C   UNL     1     -42.618  54.867 -51.409  1.00  0.00     0.113 C 
HETATM    8  C   UNL     1     -43.901  54.685 -50.591  1.00  0.00     0.037 C 
BRANCH   7   9
HETATM    9  N   UNL     1     -42.049  53.593 -51.821  1.00  0.00    -0.352 N 
HETATM   10  C   UNL     1     -40.755  53.243 -51.534  1.00  0.00     0.225 C 
HETATM   11  O   UNL     1     -39.981  53.915 -50.867  1.00  0.00    -0.273 OA
HETATM   12  H   UNL     1     -42.594  53.013 -52.445  1.00  0.00     0.163 HD
BRANCH  10  13
HETATM   13  C   UNL     1     -40.344  51.940 -52.101  1.00  0.00     0.119 A 
HETATM   14  C   UNL     1     -40.053  51.810 -53.572  1.00  0.00     0.126 A 
HETATM   15 CL   UNL     1     -40.566  50.320 -54.366  1.00  0.00    -0.101 Cl
HETATM   16 CL   UNL     1     -40.112  53.208 -54.633  1.00  0.00    -0.101 Cl
HETATM   17  C   UNL     1     -38.928  51.720 -52.584  1.00  0.00     0.060 A 
ENDBRANCH  10  13
ENDBRANCH   7   9
ENDBRANCH   1   7
BRANCH   4  18
HETATM   18  O   UNL     1     -43.368  58.038 -56.088  1.00  0.00    -0.347 OA
BRANCH  18  19
HETATM   19  C   UNL     1     -42.345  58.960 -56.464  1.00  0.00     0.215 C 
BRANCH  19  20
HETATM   20  C   UNL     1     -42.165  58.950 -57.960  1.00  0.00    -0.017 A 
HETATM   21  C   UNL     1     -42.030  60.128 -58.691  1.00  0.00     0.125 A 
HETATM   22  N   UNL     1     -41.920  60.182 -60.038  1.00  0.00    -0.272 NA
HETATM   23  C   UNL     1     -41.953  59.004 -60.697  1.00  0.00     0.116 A 
HETATM   24  C   UNL     1     -42.098  57.778 -60.070  1.00  0.00     0.020 A 
HETATM   25  C   UNL     1     -42.210  57.754 -58.683  1.00  0.00     0.012 A 
ENDBRANCH  19  20
ENDBRANCH  18  19
ENDBRANCH   4  18
TORSDOF 6
ENDMDL
