MODEL 1
REMARK VINA RESULT:      -9.4      0.000      0.000
REMARK  6 active torsions:
REMARK  status: ('A' for Active; 'I' for Inactive)
REMARK    1  A    between atoms: C_4  and  C_5 
REMARK    2  A    between atoms: C_5  and  C_6 
REMARK    3  A    between atoms: C_6  and  N_7 
REMARK    4  A    between atoms: C_16  and  C_17 
REMARK    5  A    between atoms: C_24  and  C_25 
REMARK    6  A    between atoms: C_24  and  C_29 
ROOT
HETATM    1  N   UNL     1     -42.163  55.100 -54.647  1.00  0.00    -0.284 N 
HETATM    2  C   UNL     1     -42.542  55.668 -55.862  1.00  0.00     0.331 A 
HETATM    3  O   UNL     1     -42.701  55.032 -56.897  1.00  0.00    -0.246 OA
HETATM    4  N   UNL     1     -42.734  57.015 -55.853  1.00  0.00    -0.275 N 
HETATM    5  C   UNL     1     -42.579  57.825 -54.783  1.00  0.00     0.262 A 
HETATM    6  O   UNL     1     -42.740  59.032 -54.836  1.00  0.00    -0.267 OA
HETATM    7  C   UNL     1     -42.185  57.195 -53.519  1.00  0.00     0.100 A 
HETATM    8  C   UNL     1     -41.970  55.871 -53.512  1.00  0.00     0.128 A 
HETATM    9  N   UNL     1     -41.553  55.273 -52.350  1.00  0.00    -0.326 N 
HETATM   10  C   UNL     1     -41.340  55.936 -51.234  1.00  0.00     0.138 A 
HETATM   11  N   UNL     1     -41.531  57.229 -51.147  1.00  0.00    -0.345 N 
HETATM   12  H   UNL     1     -41.339  57.702 -50.261  1.00  0.00     0.163 HD
HETATM   13  C   UNL     1     -42.062  58.088 -52.304  1.00  0.00     0.264 A 
HETATM   14  H   UNL     1     -43.001  57.435 -56.736  1.00  0.00     0.173 HD
HETATM   15  H   UNL     1     -41.360  54.276 -52.298  1.00  0.00     0.169 HD
ENDROOT
BRANCH   1  16
HETATM   16  C   UNL     1     -41.986  53.642 -54.671  1.00  0.00     0.140 C 
BRANCH  16  17
HETATM   17  C   UNL     1     -40.506  53.236 -54.747  1.00  0.00     0.059 C 
BRANCH  17  18
HETATM   18  C   UNL     1     -40.177  52.060 -53.863  1.00  0.00    -0.057 A 
HETATM   19  C   UNL     1     -40.063  50.770 -54.406  1.00  0.00     0.007 A 
HETATM   20  C   UNL     1     -39.740  49.683 -53.593  1.00  0.00     0.001 A 
HETATM   21  C   UNL     1     -39.509  49.873 -52.233  1.00  0.00     0.000 A 
HETATM   22  C   UNL     1     -39.597  51.151 -51.687  1.00  0.00     0.001 A 
HETATM   23  C   UNL     1     -39.928  52.240 -52.495  1.00  0.00     0.007 A 
ENDBRANCH  17  18
ENDBRANCH  16  17
ENDBRANCH   1  16
BRANCH  13  24
HETATM   24  C   UNL     1     -43.403  58.667 -51.841  1.00  0.00     0.426 C 
HETATM   25  F   UNL     1     -44.265  57.640 -51.608  1.00  0.00    -0.168 F 
HETATM   26  F   UNL     1     -43.245  59.301 -50.653  1.00  0.00    -0.168 F 
HETATM   27  F   UNL     1     -44.001  59.509 -52.689  1.00  0.00    -0.168 F 
ENDBRANCH  13  24
BRANCH  13  28
HETATM   28  C   UNL     1     -41.105  59.278 -52.442  1.00  0.00     0.426 C 
HETATM   29  F   UNL     1     -40.105  58.960 -53.302  1.00  0.00    -0.168 F 
HETATM   30  F   UNL     1     -41.646  60.436 -52.830  1.00  0.00    -0.168 F 
HETATM   31  F   UNL     1     -40.505  59.496 -51.239  1.00  0.00    -0.168 F 
ENDBRANCH  13  28
BRANCH  10  32
HETATM   32  C   UNL     1     -40.878  55.168 -50.097  1.00  0.00     0.118 A 
HETATM   33  O   UNL     1     -41.700  54.857 -49.046  1.00  0.00    -0.319 OA
HETATM   34  C   UNL     1     -40.967  54.149 -48.150  1.00  0.00     0.142 A 
HETATM   35  C   UNL     1     -39.679  53.994 -48.604  1.00  0.00     0.027 A 
HETATM   36  C   UNL     1     -39.618  54.650 -49.860  1.00  0.00     0.043 A 
ENDBRANCH  10  32
TORSDOF 6
ENDMDL
MODEL 2
REMARK VINA RESULT:      -9.0      1.929      5.085
REMARK  6 active torsions:
REMARK  status: ('A' for Active; 'I' for Inactive)
REMARK    1  A    between atoms: C_4  and  C_5 
REMARK    2  A    between atoms: C_5  and  C_6 
REMARK    3  A    between atoms: C_6  and  N_7 
REMARK    4  A    between atoms: C_16  and  C_17 
REMARK    5  A    between atoms: C_24  and  C_25 
REMARK    6  A    between atoms: C_24  and  C_29 
ROOT
HETATM    1  N   UNL     1     -42.412  55.119 -53.199  1.00  0.00    -0.284 N 
HETATM    2  C   UNL     1     -42.472  55.189 -51.808  1.00  0.00     0.331 A 
HETATM    3  O   UNL     1     -42.320  54.227 -51.065  1.00  0.00    -0.246 OA
HETATM    4  N   UNL     1     -42.721  56.421 -51.287  1.00  0.00    -0.275 N 
HETATM    5  C   UNL     1     -42.918  57.552 -51.998  1.00  0.00     0.262 A 
HETATM    6  O   UNL     1     -43.163  58.628 -51.481  1.00  0.00    -0.267 OA
HETATM    7  C   UNL     1     -42.842  57.445 -53.459  1.00  0.00     0.100 A 
HETATM    8  C   UNL     1     -42.620  56.235 -53.993  1.00  0.00     0.128 A 
HETATM    9  N   UNL     1     -42.595  56.107 -55.359  1.00  0.00    -0.326 N 
HETATM   10  C   UNL     1     -42.790  57.116 -56.180  1.00  0.00     0.138 A 
HETATM   11  N   UNL     1     -43.008  58.333 -55.748  1.00  0.00    -0.345 N 
HETATM   12  H   UNL     1     -43.167  59.081 -56.425  1.00  0.00     0.163 HD
HETATM   13  C   UNL     1     -43.009  58.717 -54.261  1.00  0.00     0.264 A 
HETATM   14  H   UNL     1     -42.775  56.477 -50.276  1.00  0.00     0.173 HD
HETATM   15  H   UNL     1     -42.447  55.210 -55.813  1.00  0.00     0.169 HD
ENDROOT
BRANCH   1  16
HETATM   16  C   UNL     1     -42.117  53.786 -53.742  1.00  0.00     0.140 C 
BRANCH  16  17
HETATM   17  C   UNL     1     -40.608  53.534 -53.877  1.00  0.00     0.059 C 
BRANCH  17  18
HETATM   18  C   UNL     1     -40.205  52.149 -53.434  1.00  0.00    -0.057 A 
HETATM   19  C   UNL     1     -39.842  51.905 -52.100  1.00  0.00     0.007 A 
HETATM   20  C   UNL     1     -39.487  50.621 -51.684  1.00  0.00     0.001 A 
HETATM   21  C   UNL     1     -39.508  49.563 -52.589  1.00  0.00     0.000 A 
HETATM   22  C   UNL     1     -39.887  49.789 -53.911  1.00  0.00     0.001 A 
HETATM   23  C   UNL     1     -40.235  51.074 -54.333  1.00  0.00     0.007 A 
ENDBRANCH  17  18
ENDBRANCH  16  17
ENDBRANCH   1  16
BRANCH  13  24
HETATM   24  C   UNL     1     -41.859  59.710 -54.063  1.00  0.00     0.426 C 
HETATM   25  F   UNL     1     -40.707  59.013 -53.868  1.00  0.00    -0.168 F 
HETATM   26  F   UNL     1     -41.674  60.431 -55.197  1.00  0.00    -0.168 F 
HETATM   27  F   UNL     1     -41.991  60.562 -53.042  1.00  0.00    -0.168 F 
ENDBRANCH  13  24
BRANCH  13  28
HETATM   28  C   UNL     1     -44.303  59.501 -54.010  1.00  0.00     0.426 C 
HETATM   29  F   UNL     1     -45.320  58.636 -53.771  1.00  0.00    -0.168 F 
HETATM   30  F   UNL     1     -44.271  60.403 -53.026  1.00  0.00    -0.168 F 
HETATM   31  F   UNL     1     -44.638  60.162 -55.153  1.00  0.00    -0.168 F 
ENDBRANCH  13  28
BRANCH  10  32
HETATM   32  C   UNL     1     -42.758  56.819 -57.598  1.00  0.00     0.118 A 
HETATM   33  O   UNL     1     -42.218  57.685 -58.511  1.00  0.00    -0.319 OA
HETATM   34  C   UNL     1     -42.355  57.122 -59.738  1.00  0.00     0.142 A 
HETATM   35  C   UNL     1     -42.976  55.901 -59.636  1.00  0.00     0.027 A 
HETATM   36  C   UNL     1     -43.237  55.701 -58.256  1.00  0.00     0.043 A 
ENDBRANCH  10  32
TORSDOF 6
ENDMDL
MODEL 3
REMARK VINA RESULT:      -8.4      2.275      3.090
REMARK  6 active torsions:
REMARK  status: ('A' for Active; 'I' for Inactive)
REMARK    1  A    between atoms: C_4  and  C_5 
REMARK    2  A    between atoms: C_5  and  C_6 
REMARK    3  A    between atoms: C_6  and  N_7 
REMARK    4  A    between atoms: C_16  and  C_17 
REMARK    5  A    between atoms: C_24  and  C_25 
REMARK    6  A    between atoms: C_24  and  C_29 
ROOT
HETATM    1  N   UNL     1     -41.975  55.943 -54.499  1.00  0.00    -0.284 N 
HETATM    2  C   UNL     1     -42.902  55.432 -55.405  1.00  0.00     0.331 A 
HETATM    3  O   UNL     1     -42.774  54.363 -55.990  1.00  0.00    -0.246 OA
HETATM    4  N   UNL     1     -44.002  56.202 -55.627  1.00  0.00    -0.275 N 
HETATM    5  C   UNL     1     -44.252  57.400 -55.056  1.00  0.00     0.262 A 
HETATM    6  O   UNL     1     -45.244  58.063 -55.310  1.00  0.00    -0.267 OA
HETATM    7  C   UNL     1     -43.260  57.907 -54.103  1.00  0.00     0.100 A 
HETATM    8  C   UNL     1     -42.158  57.172 -53.887  1.00  0.00     0.128 A 
HETATM    9  N   UNL     1     -41.196  57.654 -53.035  1.00  0.00    -0.326 N 
HETATM   10  C   UNL     1     -41.293  58.814 -52.423  1.00  0.00     0.138 A 
HETATM   11  N   UNL     1     -42.335  59.594 -52.569  1.00  0.00    -0.345 N 
HETATM   12  H   UNL     1     -42.357  60.492 -52.082  1.00  0.00     0.163 HD
HETATM   13  C   UNL     1     -43.559  59.222 -53.419  1.00  0.00     0.264 A 
HETATM   14  H   UNL     1     -44.675  55.840 -56.292  1.00  0.00     0.173 HD
HETATM   15  H   UNL     1     -40.336  57.144 -52.852  1.00  0.00     0.169 HD
ENDROOT
BRANCH   1  16
HETATM   16  C   UNL     1     -40.808  55.085 -54.253  1.00  0.00     0.140 C 
BRANCH  16  17
HETATM   17  C   UNL     1     -40.926  54.307 -52.934  1.00  0.00     0.059 C 
BRANCH  17  18
HETATM   18  C   UNL     1     -40.459  52.878 -53.055  1.00  0.00    -0.057 A 
HETATM   19  C   UNL     1     -39.931  52.205 -51.942  1.00  0.00     0.007 A 
HETATM   20  C   UNL     1     -39.515  50.877 -52.047  1.00  0.00     0.001 A 
HETATM   21  C   UNL     1     -39.638  50.200 -53.258  1.00  0.00     0.000 A 
HETATM   22  C   UNL     1     -40.181  50.852 -54.364  1.00  0.00     0.001 A 
HETATM   23  C   UNL     1     -40.590  52.183 -54.265  1.00  0.00     0.007 A 
ENDBRANCH  17  18
ENDBRANCH  16  17
ENDBRANCH   1  16
BRANCH  13  24
HETATM   24  C   UNL     1     -44.752  59.148 -52.460  1.00  0.00     0.426 C 
HETATM   25  F   UNL     1     -44.894  57.862 -52.038  1.00  0.00    -0.168 F 
HETATM   26  F   UNL     1     -44.496  59.881 -51.348  1.00  0.00    -0.168 F 
HETATM   27  F   UNL     1     -45.928  59.539 -52.958  1.00  0.00    -0.168 F 
ENDBRANCH  13  24
BRANCH  13  28
HETATM   28  C   UNL     1     -43.827  60.414 -54.346  1.00  0.00     0.426 C 
HETATM   29  F   UNL     1     -43.025  60.330 -55.438  1.00  0.00    -0.168 F 
HETATM   30  F   UNL     1     -45.087  60.576 -54.757  1.00  0.00    -0.168 F 
HETATM   31  F   UNL     1     -43.461  61.557 -53.703  1.00  0.00    -0.168 F 
ENDBRANCH  13  28
BRANCH  10  32
HETATM   32  C   UNL     1     -40.183  59.197 -51.573  1.00  0.00     0.118 A 
HETATM   33  O   UNL     1     -38.886  59.166 -52.012  1.00  0.00    -0.319 OA
HETATM   34  C   UNL     1     -38.097  59.568 -50.983  1.00  0.00     0.142 A 
HETATM   35  C   UNL     1     -38.863  59.860 -49.881  1.00  0.00     0.027 A 
HETATM   36  C   UNL     1     -40.210  59.624 -50.258  1.00  0.00     0.043 A 
ENDBRANCH  10  32
TORSDOF 6
ENDMDL
MODEL 4
REMARK VINA RESULT:      -8.0     15.419     17.719
REMARK  6 active torsions:
REMARK  status: ('A' for Active; 'I' for Inactive)
REMARK    1  A    between atoms: C_4  and  C_5 
REMARK    2  A    between atoms: C_5  and  C_6 
REMARK    3  A    between atoms: C_6  and  N_7 
REMARK    4  A    between atoms: C_16  and  C_17 
REMARK    5  A    between atoms: C_24  and  C_25 
REMARK    6  A    between atoms: C_24  and  C_29 
ROOT
HETATM    1  N   UNL     1     -37.014  40.230 -52.907  1.00  0.00    -0.284 N 
HETATM    2  C   UNL     1     -38.236  40.884 -53.052  1.00  0.00     0.331 A 
HETATM    3  O   UNL     1     -39.041  41.046 -52.143  1.00  0.00    -0.246 OA
HETATM    4  N   UNL     1     -38.512  41.354 -54.299  1.00  0.00    -0.275 N 
HETATM    5  C   UNL     1     -37.715  41.229 -55.382  1.00  0.00     0.262 A 
HETATM    6  O   UNL     1     -38.022  41.647 -56.485  1.00  0.00    -0.267 OA
HETATM    7  C   UNL     1     -36.434  40.541 -55.194  1.00  0.00     0.100 A 
HETATM    8  C   UNL     1     -36.152  40.051 -53.977  1.00  0.00     0.128 A 
HETATM    9  N   UNL     1     -34.980  39.362 -53.794  1.00  0.00    -0.326 N 
HETATM   10  C   UNL     1     -34.115  39.143 -54.760  1.00  0.00     0.138 A 
HETATM   11  N   UNL     1     -34.304  39.589 -55.977  1.00  0.00    -0.345 N 
HETATM   12  H   UNL     1     -33.609  39.382 -56.697  1.00  0.00     0.163 HD
HETATM   13  C   UNL     1     -35.512  40.444 -56.389  1.00  0.00     0.264 A 
HETATM   14  H   UNL     1     -39.403  41.822 -54.414  1.00  0.00     0.173 HD
HETATM   15  H   UNL     1     -34.730  38.956 -52.896  1.00  0.00     0.169 HD
ENDROOT
BRANCH   1  16
HETATM   16  C   UNL     1     -36.723  39.754 -51.548  1.00  0.00     0.140 C 
BRANCH  16  17
HETATM   17  C   UNL     1     -35.911  40.774 -50.735  1.00  0.00     0.059 C 
BRANCH  17  18
HETATM   18  C   UNL     1     -34.452  40.407 -50.627  1.00  0.00    -0.057 A 
HETATM   19  C   UNL     1     -34.040  39.364 -49.784  1.00  0.00     0.007 A 
HETATM   20  C   UNL     1     -32.693  39.010 -49.697  1.00  0.00     0.001 A 
HETATM   21  C   UNL     1     -31.745  39.681 -50.464  1.00  0.00     0.000 A 
HETATM   22  C   UNL     1     -32.144  40.704 -51.321  1.00  0.00     0.001 A 
HETATM   23  C   UNL     1     -33.490  41.067 -51.404  1.00  0.00     0.007 A 
ENDBRANCH  17  18
ENDBRANCH  16  17
ENDBRANCH   1  16
BRANCH  13  24
HETATM   24  C   UNL     1     -34.957  41.800 -56.836  1.00  0.00     0.426 C 
HETATM   25  F   UNL     1     -34.807  42.594 -55.740  1.00  0.00    -0.168 F 
HETATM   26  F   UNL     1     -33.715  41.641 -57.356  1.00  0.00    -0.168 F 
HETATM   27  F   UNL     1     -35.699  42.473 -57.720  1.00  0.00    -0.168 F 
ENDBRANCH  13  24
BRANCH  13  28
HETATM   28  C   UNL     1     -36.106  39.789 -57.642  1.00  0.00     0.426 C 
HETATM   29  F   UNL     1     -36.991  38.827 -57.275  1.00  0.00    -0.168 F 
HETATM   30  F   UNL     1     -36.702  40.605 -58.514  1.00  0.00    -0.168 F 
HETATM   31  F   UNL     1     -35.110  39.142 -58.308  1.00  0.00    -0.168 F 
ENDBRANCH  13  28
BRANCH  10  32
HETATM   32  C   UNL     1     -32.934  38.377 -54.418  1.00  0.00     0.118 A 
HETATM   33  O   UNL     1     -31.814  38.375 -55.205  1.00  0.00    -0.319 OA
HETATM   34  C   UNL     1     -30.904  37.557 -54.618  1.00  0.00     0.142 A 
HETATM   35  C   UNL     1     -31.416  37.028 -53.458  1.00  0.00     0.027 A 
HETATM   36  C   UNL     1     -32.727  37.555 -53.325  1.00  0.00     0.043 A 
ENDBRANCH  10  32
TORSDOF 6
ENDMDL
MODEL 5
REMARK VINA RESULT:      -8.0      3.420      7.729
REMARK  6 active torsions:
REMARK  status: ('A' for Active; 'I' for Inactive)
REMARK    1  A    between atoms: C_4  and  C_5 
REMARK    2  A    between atoms: C_5  and  C_6 
REMARK    3  A    between atoms: C_6  and  N_7 
REMARK    4  A    between atoms: C_16  and  C_17 
REMARK    5  A    between atoms: C_24  and  C_25 
REMARK    6  A    between atoms: C_24  and  C_29 
ROOT
HETATM    1  N   UNL     1     -42.118  59.012 -53.933  1.00  0.00    -0.284 N 
HETATM    2  C   UNL     1     -41.791  59.023 -52.578  1.00  0.00     0.331 A 
HETATM    3  O   UNL     1     -41.786  60.030 -51.880  1.00  0.00    -0.246 OA
HETATM    4  N   UNL     1     -41.461  57.818 -52.038  1.00  0.00    -0.275 N 
HETATM    5  C   UNL     1     -41.419  56.643 -52.702  1.00  0.00     0.262 A 
HETATM    6  O   UNL     1     -41.091  55.594 -52.175  1.00  0.00    -0.267 OA
HETATM    7  C   UNL     1     -41.774  56.666 -54.125  1.00  0.00     0.100 A 
HETATM    8  C   UNL     1     -42.081  57.847 -54.681  1.00  0.00     0.128 A 
HETATM    9  N   UNL     1     -42.368  57.894 -56.022  1.00  0.00    -0.326 N 
HETATM   10  C   UNL     1     -42.347  56.835 -56.800  1.00  0.00     0.138 A 
HETATM   11  N   UNL     1     -42.065  55.640 -56.343  1.00  0.00    -0.345 N 
HETATM   12  H   UNL     1     -42.048  54.850 -56.990  1.00  0.00     0.163 HD
HETATM   13  C   UNL     1     -41.781  55.346 -54.863  1.00  0.00     0.264 A 
HETATM   14  H   UNL     1     -41.213  57.821 -51.055  1.00  0.00     0.173 HD
HETATM   15  H   UNL     1     -42.590  58.767 -56.494  1.00  0.00     0.169 HD
ENDROOT
BRANCH   1  16
HETATM   16  C   UNL     1     -42.497  60.318 -54.490  1.00  0.00     0.140 C 
BRANCH  16  17
HETATM   17  C   UNL     1     -44.020  60.519 -54.520  1.00  0.00     0.059 C 
BRANCH  17  18
HETATM   18  C   UNL     1     -44.641  60.084 -55.824  1.00  0.00    -0.057 A 
HETATM   19  C   UNL     1     -44.328  60.751 -57.019  1.00  0.00     0.007 A 
HETATM   20  C   UNL     1     -44.887  60.339 -58.229  1.00  0.00     0.001 A 
HETATM   21  C   UNL     1     -45.749  59.247 -58.264  1.00  0.00     0.000 A 
HETATM   22  C   UNL     1     -46.051  58.564 -57.088  1.00  0.00     0.001 A 
HETATM   23  C   UNL     1     -45.500  58.978 -55.874  1.00  0.00     0.007 A 
ENDBRANCH  17  18
ENDBRANCH  16  17
ENDBRANCH   1  16
BRANCH  13  24
HETATM   24  C   UNL     1     -42.882  54.393 -54.386  1.00  0.00     0.426 C 
HETATM   25  F   UNL     1     -43.957  55.129 -53.992  1.00  0.00    -0.168 F 
HETATM   26  F   UNL     1     -43.310  53.629 -55.422  1.00  0.00    -0.168 F 
HETATM   27  F   UNL     1     -42.558  53.582 -53.375  1.00  0.00    -0.168 F 
ENDBRANCH  13  24
BRANCH  13  28
HETATM   28  C   UNL     1     -40.472  54.546 -54.817  1.00  0.00     0.426 C 
HETATM   29  F   UNL     1     -39.418  55.398 -54.885  1.00  0.00    -0.168 F 
HETATM   30  F   UNL     1     -40.302  53.742 -53.765  1.00  0.00    -0.168 F 
HETATM   31  F   UNL     1     -40.397  53.772 -55.935  1.00  0.00    -0.168 F 
ENDBRANCH  13  28
BRANCH  10  32
HETATM   32  C   UNL     1     -42.649  57.049 -58.201  1.00  0.00     0.118 A 
HETATM   33  O   UNL     1     -43.582  56.299 -58.868  1.00  0.00    -0.319 OA
HETATM   34  C   UNL     1     -43.617  56.737 -60.151  1.00  0.00     0.142 A 
HETATM   35  C   UNL     1     -42.719  57.762 -60.329  1.00  0.00     0.027 A 
HETATM   36  C   UNL     1     -42.093  57.967 -59.073  1.00  0.00     0.043 A 
ENDBRANCH  10  32
TORSDOF 6
ENDMDL
MODEL 6
REMARK VINA RESULT:      -8.0      3.257      6.220
REMARK  6 active torsions:
REMARK  status: ('A' for Active; 'I' for Inactive)
REMARK    1  A    between atoms: C_4  and  C_5 
REMARK    2  A    between atoms: C_5  and  C_6 
REMARK    3  A    between atoms: C_6  and  N_7 
REMARK    4  A    between atoms: C_16  and  C_17 
REMARK    5  A    between atoms: C_24  and  C_25 
REMARK    6  A    between atoms: C_24  and  C_29 
ROOT
HETATM    1  N   UNL     1     -42.304  56.528 -54.815  1.00  0.00    -0.284 N 
HETATM    2  C   UNL     1     -41.841  57.233 -53.706  1.00  0.00     0.331 A 
HETATM    3  O   UNL     1     -41.441  56.706 -52.675  1.00  0.00    -0.246 OA
HETATM    4  N   UNL     1     -41.853  58.589 -53.818  1.00  0.00    -0.275 N 
HETATM    5  C   UNL     1     -42.279  59.286 -54.893  1.00  0.00     0.262 A 
HETATM    6  O   UNL     1     -42.293  60.505 -54.932  1.00  0.00    -0.267 OA
HETATM    7  C   UNL     1     -42.755  58.514 -56.046  1.00  0.00     0.100 A 
HETATM    8  C   UNL     1     -42.771  57.176 -55.947  1.00  0.00     0.128 A 
HETATM    9  N   UNL     1     -43.258  56.439 -56.997  1.00  0.00    -0.326 N 
HETATM   10  C   UNL     1     -43.726  56.981 -58.100  1.00  0.00     0.138 A 
HETATM   11  N   UNL     1     -43.743  58.277 -58.287  1.00  0.00    -0.345 N 
HETATM   12  H   UNL     1     -44.129  58.650 -59.156  1.00  0.00     0.163 HD
HETATM   13  C   UNL     1     -43.183  59.286 -57.274  1.00  0.00     0.264 A 
HETATM   14  H   UNL     1     -41.526  59.108 -53.011  1.00  0.00     0.173 HD
HETATM   15  H   UNL     1     -43.308  55.424 -56.964  1.00  0.00     0.169 HD
ENDROOT
BRANCH   1  16
HETATM   16  C   UNL     1     -42.258  55.065 -54.685  1.00  0.00     0.140 C 
BRANCH  16  17
HETATM   17  C   UNL     1     -40.863  54.497 -54.988  1.00  0.00     0.059 C 
BRANCH  17  18
HETATM   18  C   UNL     1     -40.464  53.393 -54.041  1.00  0.00    -0.057 A 
HETATM   19  C   UNL     1     -40.096  52.131 -54.533  1.00  0.00     0.007 A 
HETATM   20  C   UNL     1     -39.708  51.113 -53.660  1.00  0.00     0.001 A 
HETATM   21  C   UNL     1     -39.666  51.349 -52.289  1.00  0.00     0.000 A 
HETATM   22  C   UNL     1     -40.008  52.604 -51.790  1.00  0.00     0.001 A 
HETATM   23  C   UNL     1     -40.405  53.622 -52.660  1.00  0.00     0.007 A 
ENDBRANCH  17  18
ENDBRANCH  16  17
ENDBRANCH   1  16
BRANCH  13  24
HETATM   24  C   UNL     1     -42.023  60.007 -57.969  1.00  0.00     0.426 C 
HETATM   25  F   UNL     1     -41.034  59.106 -58.217  1.00  0.00    -0.168 F 
HETATM   26  F   UNL     1     -42.426  60.465 -59.180  1.00  0.00    -0.168 F 
HETATM   27  F   UNL     1     -41.479  61.025 -57.296  1.00  0.00    -0.168 F 
ENDBRANCH  13  24
BRANCH  13  28
HETATM   28  C   UNL     1     -44.275  60.340 -57.055  1.00  0.00     0.426 C 
HETATM   29  F   UNL     1     -45.064  59.968 -56.015  1.00  0.00    -0.168 F 
HETATM   30  F   UNL     1     -43.860  61.592 -56.847  1.00  0.00    -0.168 F 
HETATM   31  F   UNL     1     -45.086  60.359 -58.148  1.00  0.00    -0.168 F 
ENDBRANCH  13  28
BRANCH  10  32
HETATM   32  C   UNL     1     -44.230  56.071 -59.110  1.00  0.00     0.118 A 
HETATM   33  O   UNL     1     -44.236  54.714 -58.929  1.00  0.00    -0.319 OA
HETATM   34  C   UNL     1     -44.754  54.155 -60.052  1.00  0.00     0.142 A 
HETATM   35  C   UNL     1     -45.086  55.130 -60.960  1.00  0.00     0.027 A 
HETATM   36  C   UNL     1     -44.750  56.369 -60.356  1.00  0.00     0.043 A 
ENDBRANCH  10  32
TORSDOF 6
ENDMDL
MODEL 7
REMARK VINA RESULT:      -7.9     15.269     16.987
REMARK  6 active torsions:
REMARK  status: ('A' for Active; 'I' for Inactive)
REMARK    1  A    between atoms: C_4  and  C_5 
REMARK    2  A    between atoms: C_5  and  C_6 
REMARK    3  A    between atoms: C_6  and  N_7 
REMARK    4  A    between atoms: C_16  and  C_17 
REMARK    5  A    between atoms: C_24  and  C_25 
REMARK    6  A    between atoms: C_24  and  C_29 
ROOT
HETATM    1  N   UNL     1     -36.213  41.639 -55.358  1.00  0.00    -0.284 N 
HETATM    2  C   UNL     1     -34.944  41.814 -55.906  1.00  0.00     0.331 A 
HETATM    3  O   UNL     1     -34.733  42.309 -57.006  1.00  0.00    -0.246 OA
HETATM    4  N   UNL     1     -33.903  41.390 -55.138  1.00  0.00    -0.275 N 
HETATM    5  C   UNL     1     -34.006  40.818 -53.919  1.00  0.00     0.262 A 
HETATM    6  O   UNL     1     -33.041  40.433 -53.282  1.00  0.00    -0.267 OA
HETATM    7  C   UNL     1     -35.356  40.655 -53.369  1.00  0.00     0.100 A 
HETATM    8  C   UNL     1     -36.396  41.047 -54.120  1.00  0.00     0.128 A 
HETATM    9  N   UNL     1     -37.668  40.856 -53.641  1.00  0.00    -0.326 N 
HETATM   10  C   UNL     1     -37.924  40.294 -52.480  1.00  0.00     0.138 A 
HETATM   11  N   UNL     1     -36.971  39.888 -51.678  1.00  0.00    -0.345 N 
HETATM   12  H   UNL     1     -37.222  39.446 -50.792  1.00  0.00     0.163 HD
HETATM   13  C   UNL     1     -35.476  40.065 -51.981  1.00  0.00     0.264 A 
HETATM   14  H   UNL     1     -32.978  41.505 -55.535  1.00  0.00     0.173 HD
HETATM   15  H   UNL     1     -38.490  41.119 -54.179  1.00  0.00     0.169 HD
ENDROOT
BRANCH   1  16
HETATM   16  C   UNL     1     -37.321  42.127 -56.191  1.00  0.00     0.140 C 
BRANCH  16  17
HETATM   17  C   UNL     1     -38.254  40.992 -56.641  1.00  0.00     0.059 C 
BRANCH  17  18
HETATM   18  C   UNL     1     -38.014  40.571 -58.069  1.00  0.00    -0.057 A 
HETATM   19  C   UNL     1     -37.483  41.477 -59.000  1.00  0.00     0.007 A 
HETATM   20  C   UNL     1     -37.243  41.085 -60.317  1.00  0.00     0.001 A 
HETATM   21  C   UNL     1     -37.513  39.779 -60.716  1.00  0.00     0.000 A 
HETATM   22  C   UNL     1     -38.020  38.863 -59.796  1.00  0.00     0.001 A 
HETATM   23  C   UNL     1     -38.269  39.255 -58.479  1.00  0.00     0.007 A 
ENDBRANCH  17  18
ENDBRANCH  16  17
ENDBRANCH   1  16
BRANCH  13  24
HETATM   24  C   UNL     1     -34.912  40.977 -50.886  1.00  0.00     0.426 C 
HETATM   25  F   UNL     1     -34.948  42.263 -51.327  1.00  0.00    -0.168 F 
HETATM   26  F   UNL     1     -35.713  40.933 -49.793  1.00  0.00    -0.168 F 
HETATM   27  F   UNL     1     -33.660  40.720 -50.498  1.00  0.00    -0.168 F 
ENDBRANCH  13  24
BRANCH  13  28
HETATM   28  C   UNL     1     -34.821  38.693 -51.778  1.00  0.00     0.426 C 
HETATM   29  F   UNL     1     -34.999  37.935 -52.889  1.00  0.00    -0.168 F 
HETATM   30  F   UNL     1     -33.523  38.694 -51.467  1.00  0.00    -0.168 F 
HETATM   31  F   UNL     1     -35.477  38.043 -50.776  1.00  0.00    -0.168 F 
ENDBRANCH  13  28
BRANCH  10  32
HETATM   32  C   UNL     1     -39.320  40.140 -52.124  1.00  0.00     0.118 A 
HETATM   33  O   UNL     1     -39.771  39.074 -51.391  1.00  0.00    -0.319 OA
HETATM   34  C   UNL     1     -41.112  39.219 -51.242  1.00  0.00     0.142 A 
HETATM   35  C   UNL     1     -41.540  40.365 -51.868  1.00  0.00     0.027 A 
HETATM   36  C   UNL     1     -40.386  40.963 -52.438  1.00  0.00     0.043 A 
ENDBRANCH  10  32
TORSDOF 6
ENDMDL
MODEL 8
REMARK VINA RESULT:      -7.8     15.334     17.973
REMARK  6 active torsions:
REMARK  status: ('A' for Active; 'I' for Inactive)
REMARK    1  A    between atoms: C_4  and  C_5 
REMARK    2  A    between atoms: C_5  and  C_6 
REMARK    3  A    between atoms: C_6  and  N_7 
REMARK    4  A    between atoms: C_16  and  C_17 
REMARK    5  A    between atoms: C_24  and  C_25 
REMARK    6  A    between atoms: C_24  and  C_29 
ROOT
HETATM    1  N   UNL     1     -35.532  39.486 -52.136  1.00  0.00    -0.284 N 
HETATM    2  C   UNL     1     -36.801  39.705 -51.603  1.00  0.00     0.331 A 
HETATM    3  O   UNL     1     -37.121  39.424 -50.454  1.00  0.00    -0.246 OA
HETATM    4  N   UNL     1     -37.711  40.263 -52.447  1.00  0.00    -0.275 N 
HETATM    5  C   UNL     1     -37.484  40.605 -53.733  1.00  0.00     0.262 A 
HETATM    6  O   UNL     1     -38.344  41.081 -54.455  1.00  0.00    -0.267 OA
HETATM    7  C   UNL     1     -36.137  40.368 -54.262  1.00  0.00     0.100 A 
HETATM    8  C   UNL     1     -35.232  39.797 -53.452  1.00  0.00     0.128 A 
HETATM    9  N   UNL     1     -33.981  39.523 -53.945  1.00  0.00    -0.326 N 
HETATM   10  C   UNL     1     -33.623  39.781 -55.184  1.00  0.00     0.138 A 
HETATM   11  N   UNL     1     -34.438  40.343 -56.042  1.00  0.00    -0.345 N 
HETATM   12  H   UNL     1     -34.117  40.511 -56.997  1.00  0.00     0.163 HD
HETATM   13  C   UNL     1     -35.861  40.797 -55.685  1.00  0.00     0.264 A 
HETATM   14  H   UNL     1     -38.638  40.416 -52.068  1.00  0.00     0.173 HD
HETATM   15  H   UNL     1     -33.266  39.076 -53.377  1.00  0.00     0.169 HD
ENDROOT
BRANCH   1  16
HETATM   16  C   UNL     1     -34.557  38.906 -51.202  1.00  0.00     0.140 C 
BRANCH  16  17
HETATM   17  C   UNL     1     -33.730  39.982 -50.482  1.00  0.00     0.059 C 
BRANCH  17  18
HETATM   18  C   UNL     1     -33.069  39.468 -49.228  1.00  0.00    -0.057 A 
HETATM   19  C   UNL     1     -33.645  38.417 -48.498  1.00  0.00     0.007 A 
HETATM   20  C   UNL     1     -33.026  37.927 -47.348  1.00  0.00     0.001 A 
HETATM   21  C   UNL     1     -31.815  38.467 -46.923  1.00  0.00     0.000 A 
HETATM   22  C   UNL     1     -31.222  39.497 -47.651  1.00  0.00     0.001 A 
HETATM   23  C   UNL     1     -31.843  39.995 -48.798  1.00  0.00     0.007 A 
ENDBRANCH  17  18
ENDBRANCH  16  17
ENDBRANCH   1  16
BRANCH  13  24
HETATM   24  C   UNL     1     -35.896  42.318 -55.876  1.00  0.00     0.426 C 
HETATM   25  F   UNL     1     -35.373  42.909 -54.767  1.00  0.00    -0.168 F 
HETATM   26  F   UNL     1     -35.088  42.671 -56.906  1.00  0.00    -0.168 F 
HETATM   27  F   UNL     1     -37.101  42.854 -56.086  1.00  0.00    -0.168 F 
ENDBRANCH  13  24
BRANCH  13  28
HETATM   28  C   UNL     1     -36.790  40.209 -56.755  1.00  0.00     0.426 C 
HETATM   29  F   UNL     1     -37.180  38.964 -56.383  1.00  0.00    -0.168 F 
HETATM   30  F   UNL     1     -37.878  40.923 -57.055  1.00  0.00    -0.168 F 
HETATM   31  F   UNL     1     -36.081  40.049 -57.906  1.00  0.00    -0.168 F 
ENDBRANCH  13  28
BRANCH  10  32
HETATM   32  C   UNL     1     -32.275  39.410 -55.563  1.00  0.00     0.118 A 
HETATM   33  O   UNL     1     -31.584  38.418 -54.919  1.00  0.00    -0.319 OA
HETATM   34  C   UNL     1     -30.361  38.328 -55.501  1.00  0.00     0.142 A 
HETATM   35  C   UNL     1     -30.247  39.248 -56.515  1.00  0.00     0.027 A 
HETATM   36  C   UNL     1     -31.480  39.948 -56.559  1.00  0.00     0.043 A 
ENDBRANCH  10  32
TORSDOF 6
ENDMDL
MODEL 9
REMARK VINA RESULT:      -7.7      3.425      7.891
REMARK  6 active torsions:
REMARK  status: ('A' for Active; 'I' for Inactive)
REMARK    1  A    between atoms: C_4  and  C_5 
REMARK    2  A    between atoms: C_5  and  C_6 
REMARK    3  A    between atoms: C_6  and  N_7 
REMARK    4  A    between atoms: C_16  and  C_17 
REMARK    5  A    between atoms: C_24  and  C_25 
REMARK    6  A    between atoms: C_24  and  C_29 
ROOT
HETATM    1  N   UNL     1     -42.141  59.066 -53.843  1.00  0.00    -0.284 N 
HETATM    2  C   UNL     1     -41.839  59.042 -52.482  1.00  0.00     0.331 A 
HETATM    3  O   UNL     1     -41.836  60.032 -51.761  1.00  0.00    -0.246 OA
HETATM    4  N   UNL     1     -41.531  57.821 -51.965  1.00  0.00    -0.275 N 
HETATM    5  C   UNL     1     -41.488  56.662 -52.656  1.00  0.00     0.262 A 
HETATM    6  O   UNL     1     -41.180  55.597 -52.148  1.00  0.00    -0.267 OA
HETATM    7  C   UNL     1     -41.817  56.721 -54.083  1.00  0.00     0.100 A 
HETATM    8  C   UNL     1     -42.102  57.918 -54.617  1.00  0.00     0.128 A 
HETATM    9  N   UNL     1     -42.364  58.000 -55.961  1.00  0.00    -0.326 N 
HETATM   10  C   UNL     1     -42.339  56.958 -56.764  1.00  0.00     0.138 A 
HETATM   11  N   UNL     1     -42.077  55.751 -56.330  1.00  0.00    -0.345 N 
HETATM   12  H   UNL     1     -42.056  54.976 -56.996  1.00  0.00     0.163 HD
HETATM   13  C   UNL     1     -41.823  55.419 -54.852  1.00  0.00     0.264 A 
HETATM   14  H   UNL     1     -41.301  57.798 -50.978  1.00  0.00     0.173 HD
HETATM   15  H   UNL     1     -42.569  58.886 -56.417  1.00  0.00     0.169 HD
ENDROOT
BRANCH   1  16
HETATM   16  C   UNL     1     -42.497  60.388 -54.376  1.00  0.00     0.140 C 
BRANCH  16  17
HETATM   17  C   UNL     1     -44.001  60.515 -54.663  1.00  0.00     0.059 C 
BRANCH  17  18
HETATM   18  C   UNL     1     -44.803  60.858 -53.433  1.00  0.00    -0.057 A 
HETATM   19  C   UNL     1     -45.614  59.891 -52.819  1.00  0.00     0.007 A 
HETATM   20  C   UNL     1     -46.343  60.201 -51.670  1.00  0.00     0.001 A 
HETATM   21  C   UNL     1     -46.257  61.473 -51.111  1.00  0.00     0.000 A 
HETATM   22  C   UNL     1     -45.438  62.435 -51.699  1.00  0.00     0.001 A 
HETATM   23  C   UNL     1     -44.714  62.131 -52.853  1.00  0.00     0.007 A 
ENDBRANCH  17  18
ENDBRANCH  16  17
ENDBRANCH   1  16
BRANCH  13  24
HETATM   24  C   UNL     1     -42.943  54.466 -54.419  1.00  0.00     0.426 C 
HETATM   25  F   UNL     1     -44.030  55.203 -54.063  1.00  0.00    -0.168 F 
HETATM   26  F   UNL     1     -43.333  53.705 -55.471  1.00  0.00    -0.168 F 
HETATM   27  F   UNL     1     -42.657  53.653 -53.398  1.00  0.00    -0.168 F 
ENDBRANCH  13  24
BRANCH  13  28
HETATM   28  C   UNL     1     -40.524  54.605 -54.802  1.00  0.00     0.426 C 
HETATM   29  F   UNL     1     -39.460  55.444 -54.874  1.00  0.00    -0.168 F 
HETATM   30  F   UNL     1     -40.363  53.804 -53.746  1.00  0.00    -0.168 F 
HETATM   31  F   UNL     1     -40.457  53.824 -55.916  1.00  0.00    -0.168 F 
ENDBRANCH  13  28
BRANCH  10  32
HETATM   32  C   UNL     1     -42.614  57.208 -58.165  1.00  0.00     0.118 A 
HETATM   33  O   UNL     1     -43.581  56.523 -58.851  1.00  0.00    -0.319 OA
HETATM   34  C   UNL     1     -43.577  56.980 -60.129  1.00  0.00     0.142 A 
HETATM   35  C   UNL     1     -42.620  57.953 -60.283  1.00  0.00     0.027 A 
HETATM   36  C   UNL     1     -41.997  58.105 -59.018  1.00  0.00     0.043 A 
ENDBRANCH  10  32
TORSDOF 6
ENDMDL
MODEL 10
REMARK VINA RESULT:      -7.7      2.653      3.518
REMARK  6 active torsions:
REMARK  status: ('A' for Active; 'I' for Inactive)
REMARK    1  A    between atoms: C_4  and  C_5 
REMARK    2  A    between atoms: C_5  and  C_6 
REMARK    3  A    between atoms: C_6  and  N_7 
REMARK    4  A    between atoms: C_16  and  C_17 
REMARK    5  A    between atoms: C_24  and  C_25 
REMARK    6  A    between atoms: C_24  and  C_29 
ROOT
HETATM    1  N   UNL     1     -42.749  55.627 -54.974  1.00  0.00    -0.284 N 
HETATM    2  C   UNL     1     -43.269  55.050 -56.132  1.00  0.00     0.331 A 
HETATM    3  O   UNL     1     -43.291  53.844 -56.348  1.00  0.00    -0.246 OA
HETATM    4  N   UNL     1     -43.768  55.918 -57.053  1.00  0.00    -0.275 N 
HETATM    5  C   UNL     1     -43.790  57.263 -56.938  1.00  0.00     0.262 A 
HETATM    6  O   UNL     1     -44.228  57.997 -57.807  1.00  0.00    -0.267 OA
HETATM    7  C   UNL     1     -43.241  57.837 -55.705  1.00  0.00     0.100 A 
HETATM    8  C   UNL     1     -42.724  57.000 -54.793  1.00  0.00     0.128 A 
HETATM    9  N   UNL     1     -42.161  57.523 -53.656  1.00  0.00    -0.326 N 
HETATM   10  C   UNL     1     -42.092  58.814 -53.416  1.00  0.00     0.138 A 
HETATM   11  N   UNL     1     -42.577  59.704 -54.246  1.00  0.00    -0.345 N 
HETATM   12  H   UNL     1     -42.486  60.696 -54.020  1.00  0.00     0.163 HD
HETATM   13  C   UNL     1     -43.310  59.339 -55.545  1.00  0.00     0.264 A 
HETATM   14  H   UNL     1     -44.139  55.505 -57.901  1.00  0.00     0.173 HD
HETATM   15  H   UNL     1     -41.741  56.932 -52.944  1.00  0.00     0.169 HD
ENDROOT
BRANCH   1  16
HETATM   16  C   UNL     1     -42.238  54.673 -53.980  1.00  0.00     0.140 C 
BRANCH  16  17
HETATM   17  C   UNL     1     -40.822  54.183 -54.318  1.00  0.00     0.059 C 
BRANCH  17  18
HETATM   18  C   UNL     1     -40.400  52.999 -53.485  1.00  0.00    -0.057 A 
HETATM   19  C   UNL     1     -40.063  51.781 -54.097  1.00  0.00     0.007 A 
HETATM   20  C   UNL     1     -39.654  50.689 -53.330  1.00  0.00     0.001 A 
HETATM   21  C   UNL     1     -39.559  50.805 -51.946  1.00  0.00     0.000 A 
HETATM   22  C   UNL     1     -39.870  52.015 -51.329  1.00  0.00     0.001 A 
HETATM   23  C   UNL     1     -40.287  53.107 -52.092  1.00  0.00     0.007 A 
ENDBRANCH  17  18
ENDBRANCH  16  17
ENDBRANCH   1  16
BRANCH  13  24
HETATM   24  C   UNL     1     -44.742  59.867 -55.402  1.00  0.00     0.426 C 
HETATM   25  F   UNL     1     -45.438  59.028 -54.587  1.00  0.00    -0.168 F 
HETATM   26  F   UNL     1     -44.729  61.070 -54.778  1.00  0.00    -0.168 F 
HETATM   27  F   UNL     1     -45.436  59.991 -56.537  1.00  0.00    -0.168 F 
ENDBRANCH  13  24
BRANCH  13  28
HETATM   28  C   UNL     1     -42.659  60.163 -56.663  1.00  0.00     0.426 C 
HETATM   29  F   UNL     1     -41.609  59.476 -57.180  1.00  0.00    -0.168 F 
HETATM   30  F   UNL     1     -43.455  60.541 -57.665  1.00  0.00    -0.168 F 
HETATM   31  F   UNL     1     -42.130  61.294 -56.118  1.00  0.00    -0.168 F 
ENDBRANCH  13  28
BRANCH  10  32
HETATM   32  C   UNL     1     -41.446  59.213 -52.182  1.00  0.00     0.118 A 
HETATM   33  O   UNL     1     -42.084  59.976 -51.240  1.00  0.00    -0.319 OA
HETATM   34  C   UNL     1     -41.211  60.183 -50.222  1.00  0.00     0.142 A 
HETATM   35  C   UNL     1     -40.014  59.564 -50.488  1.00  0.00     0.027 A 
HETATM   36  C   UNL     1     -40.161  58.936 -51.752  1.00  0.00     0.043 A 
ENDBRANCH  10  32
TORSDOF 6
ENDMDL
