MODEL 1
REMARK VINA RESULT:      -7.7      0.000      0.000
REMARK  7 active torsions:
REMARK  status: ('A' for Active; 'I' for Inactive)
REMARK    1  A    between atoms: C_2  and  C_3 
REMARK    2  A    between atoms: C_3  and  N_4 
REMARK    3  A    between atoms: C_3  and  C_22 
REMARK       I    between atoms: N_4  and  C_5 
REMARK       I    between atoms: C_5  and  N_6 
REMARK    4  A    between atoms: N_6  and  C_7 
REMARK    5  A    between atoms: C_7  and  C_8 
REMARK    6  A    between atoms: C_11  and  N_12 
REMARK       I    between atoms: N_12  and  C_13 
REMARK       I    between atoms: C_13  and  N_14 
REMARK    7  A    between atoms: N_14  and  C_15 
ROOT
HETATM    1  N   UNL     1     -43.253  57.948 -56.771  1.00  0.00    -0.331 N 
HETATM    2  C   UNL     1     -44.285  58.650 -56.225  1.00  0.00     0.317 C 
HETATM    3  N   UNL     1     -43.936  59.948 -55.991  1.00  0.00    -0.339 N 
HETATM    4  O   UNL     1     -45.387  58.177 -55.983  1.00  0.00    -0.247 OA
HETATM    5  H   UNL     1     -42.498  58.468 -57.201  1.00  0.00     0.165 HD
HETATM    6  H   UNL     1     -42.957  60.109 -55.803  1.00  0.00     0.164 HD
ENDROOT
BRANCH   1   7
HETATM    7  C   UNL     1     -43.398  56.576 -57.226  1.00  0.00     0.159 C 
BRANCH   7   8
HETATM    8  C   UNL     1     -42.768  56.345 -58.625  1.00  0.00     0.008 C 
HETATM    9  C   UNL     1     -42.339  57.663 -59.279  1.00  0.00     0.012 C 
HETATM   10  C   UNL     1     -43.658  55.550 -59.588  1.00  0.00     0.012 C 
ENDBRANCH   7   8
BRANCH   7  11
HETATM   11  C   UNL     1     -42.791  55.715 -56.155  1.00  0.00     0.128 A 
HETATM   12  N   UNL     1     -43.294  55.469 -54.957  1.00  0.00    -0.231 NA
HETATM   13  C   UNL     1     -42.389  54.642 -54.338  1.00  0.00     0.085 A 
HETATM   14  C   UNL     1     -41.319  54.360 -55.179  1.00  0.00     0.062 A 
HETATM   15  C   UNL     1     -42.413  54.089 -53.051  1.00  0.00     0.034 A 
HETATM   16  N   UNL     1     -41.605  55.042 -56.334  1.00  0.00    -0.341 N 
HETATM   17  C   UNL     1     -40.248  53.544 -54.809  1.00  0.00     0.032 A 
HETATM   18  H   UNL     1     -41.039  55.055 -57.168  1.00  0.00     0.167 HD
HETATM   19  C   UNL     1     -40.288  53.001 -53.519  1.00  0.00     0.002 A 
HETATM   20  C   UNL     1     -41.351  53.267 -52.652  1.00  0.00     0.002 A 
ENDBRANCH   7  11
ENDBRANCH   1   7
BRANCH   3  21
HETATM   21  C   UNL     1     -44.878  60.866 -55.391  1.00  0.00     0.162 C 
BRANCH  21  22
HETATM   22  C   UNL     1     -44.755  60.856 -53.890  1.00  0.00    -0.040 A 
HETATM   23  C   UNL     1     -43.720  61.558 -53.255  1.00  0.00     0.011 A 
HETATM   24  C   UNL     1     -43.564  61.506 -51.867  1.00  0.00     0.030 A 
HETATM   25  C   UNL     1     -44.443  60.758 -51.084  1.00  0.00     0.036 A 
HETATM   26  C   UNL     1     -45.509  60.100 -51.708  1.00  0.00     0.030 A 
HETATM   27  C   UNL     1     -45.662  60.144 -53.099  1.00  0.00     0.011 A 
BRANCH  25  28
HETATM   28  N   UNL     1     -44.317  60.611 -49.688  1.00  0.00    -0.309 N 
HETATM   29  C   UNL     1     -45.276  60.880 -48.732  1.00  0.00     0.321 C 
HETATM   30  N   UNL     1     -44.766  60.657 -47.467  1.00  0.00    -0.339 N 
HETATM   31  O   UNL     1     -46.405  61.304 -48.933  1.00  0.00    -0.247 OA
HETATM   32  H   UNL     1     -44.077  59.924 -47.408  1.00  0.00     0.164 HD
HETATM   33  H   UNL     1     -43.381  60.501 -49.332  1.00  0.00     0.170 HD
BRANCH  30  34
HETATM   34  C   UNL     1     -45.509  60.936 -46.242  1.00  0.00     0.078 C 
HETATM   35  C   UNL     1     -46.423  59.782 -45.836  1.00  0.00     0.032 C 
HETATM   36  C   UNL     1     -44.598  61.365 -45.095  1.00  0.00     0.032 C 
ENDBRANCH  30  34
ENDBRANCH  25  28
ENDBRANCH  21  22
ENDBRANCH   3  21
TORSDOF 7
ENDMDL
MODEL 2
REMARK VINA RESULT:      -7.6      4.462      8.521
REMARK  7 active torsions:
REMARK  status: ('A' for Active; 'I' for Inactive)
REMARK    1  A    between atoms: C_2  and  C_3 
REMARK    2  A    between atoms: C_3  and  N_4 
REMARK    3  A    between atoms: C_3  and  C_22 
REMARK       I    between atoms: N_4  and  C_5 
REMARK       I    between atoms: C_5  and  N_6 
REMARK    4  A    between atoms: N_6  and  C_7 
REMARK    5  A    between atoms: C_7  and  C_8 
REMARK    6  A    between atoms: C_11  and  N_12 
REMARK       I    between atoms: N_12  and  C_13 
REMARK       I    between atoms: C_13  and  N_14 
REMARK    7  A    between atoms: N_14  and  C_15 
ROOT
HETATM    1  N   UNL     1     -41.775  55.823 -52.903  1.00  0.00    -0.331 N 
HETATM    2  C   UNL     1     -41.467  57.025 -53.466  1.00  0.00     0.317 C 
HETATM    3  N   UNL     1     -42.330  57.338 -54.475  1.00  0.00    -0.339 N 
HETATM    4  O   UNL     1     -40.539  57.736 -53.106  1.00  0.00    -0.247 OA
HETATM    5  H   UNL     1     -42.704  55.451 -53.053  1.00  0.00     0.165 HD
HETATM    6  H   UNL     1     -42.734  56.552 -54.963  1.00  0.00     0.164 HD
ENDROOT
BRANCH   1   7
HETATM    7  C   UNL     1     -41.085  55.312 -51.731  1.00  0.00     0.159 C 
BRANCH   7   8
HETATM    8  C   UNL     1     -41.942  55.426 -50.442  1.00  0.00     0.008 C 
HETATM    9  C   UNL     1     -41.132  55.079 -49.189  1.00  0.00     0.012 C 
HETATM   10  C   UNL     1     -43.233  54.600 -50.475  1.00  0.00     0.012 C 
ENDBRANCH   7   8
BRANCH   7  11
HETATM   11  C   UNL     1     -40.696  53.898 -52.059  1.00  0.00     0.128 A 
HETATM   12  N   UNL     1     -40.248  52.985 -51.214  1.00  0.00    -0.231 NA
HETATM   13  C   UNL     1     -40.025  51.860 -51.970  1.00  0.00     0.085 A 
HETATM   14  C   UNL     1     -40.359  52.082 -53.301  1.00  0.00     0.062 A 
HETATM   15  C   UNL     1     -39.533  50.605 -51.586  1.00  0.00     0.034 A 
HETATM   16  N   UNL     1     -40.797  53.381 -53.329  1.00  0.00    -0.341 N 
HETATM   17  C   UNL     1     -40.230  51.110 -54.295  1.00  0.00     0.032 A 
HETATM   18  H   UNL     1     -41.129  53.876 -54.143  1.00  0.00     0.167 HD
HETATM   19  C   UNL     1     -39.736  49.863 -53.894  1.00  0.00     0.002 A 
HETATM   20  C   UNL     1     -39.392  49.611 -52.564  1.00  0.00     0.002 A 
ENDBRANCH   7  11
ENDBRANCH   1   7
BRANCH   3  21
HETATM   21  C   UNL     1     -42.170  58.563 -55.225  1.00  0.00     0.162 C 
BRANCH  21  22
HETATM   22  C   UNL     1     -42.912  58.490 -56.535  1.00  0.00    -0.040 A 
HETATM   23  C   UNL     1     -43.261  59.662 -57.221  1.00  0.00     0.011 A 
HETATM   24  C   UNL     1     -44.001  59.605 -58.407  1.00  0.00     0.030 A 
HETATM   25  C   UNL     1     -44.398  58.377 -58.935  1.00  0.00     0.036 A 
HETATM   26  C   UNL     1     -44.003  57.203 -58.282  1.00  0.00     0.030 A 
HETATM   27  C   UNL     1     -43.271  57.258 -57.090  1.00  0.00     0.011 A 
BRANCH  25  28
HETATM   28  N   UNL     1     -45.191  58.241 -60.092  1.00  0.00    -0.309 N 
HETATM   29  C   UNL     1     -46.556  58.417 -60.192  1.00  0.00     0.321 C 
HETATM   30  N   UNL     1     -46.979  58.149 -61.480  1.00  0.00    -0.339 N 
HETATM   31  O   UNL     1     -47.320  58.715 -59.285  1.00  0.00    -0.247 OA
HETATM   32  H   UNL     1     -46.311  58.366 -62.203  1.00  0.00     0.164 HD
HETATM   33  H   UNL     1     -44.764  57.768 -60.873  1.00  0.00     0.170 HD
BRANCH  30  34
HETATM   34  C   UNL     1     -48.382  58.162 -61.883  1.00  0.00     0.078 C 
HETATM   35  C   UNL     1     -48.752  59.413 -62.677  1.00  0.00     0.032 C 
HETATM   36  C   UNL     1     -48.788  56.886 -62.616  1.00  0.00     0.032 C 
ENDBRANCH  30  34
ENDBRANCH  25  28
ENDBRANCH  21  22
ENDBRANCH   3  21
TORSDOF 7
ENDMDL
MODEL 3
REMARK VINA RESULT:      -7.5      2.338      9.870
REMARK  7 active torsions:
REMARK  status: ('A' for Active; 'I' for Inactive)
REMARK    1  A    between atoms: C_2  and  C_3 
REMARK    2  A    between atoms: C_3  and  N_4 
REMARK    3  A    between atoms: C_3  and  C_22 
REMARK       I    between atoms: N_4  and  C_5 
REMARK       I    between atoms: C_5  and  N_6 
REMARK    4  A    between atoms: N_6  and  C_7 
REMARK    5  A    between atoms: C_7  and  C_8 
REMARK    6  A    between atoms: C_11  and  N_12 
REMARK       I    between atoms: N_12  and  C_13 
REMARK       I    between atoms: C_13  and  N_14 
REMARK    7  A    between atoms: N_14  and  C_15 
ROOT
HETATM    1  N   UNL     1     -43.430  59.440 -50.588  1.00  0.00    -0.331 N 
HETATM    2  C   UNL     1     -42.473  58.764 -51.284  1.00  0.00     0.317 C 
HETATM    3  N   UNL     1     -42.412  57.455 -50.906  1.00  0.00    -0.339 N 
HETATM    4  O   UNL     1     -41.763  59.268 -52.145  1.00  0.00    -0.247 OA
HETATM    5  H   UNL     1     -44.150  58.901 -50.124  1.00  0.00     0.165 HD
HETATM    6  H   UNL     1     -42.684  57.263 -49.952  1.00  0.00     0.164 HD
ENDROOT
BRANCH   1   7
HETATM    7  C   UNL     1     -43.779  60.819 -50.882  1.00  0.00     0.159 C 
BRANCH   7   8
HETATM    8  C   UNL     1     -44.881  60.932 -51.970  1.00  0.00     0.008 C 
HETATM    9  C   UNL     1     -44.946  62.342 -52.566  1.00  0.00     0.012 C 
HETATM   10  C   UNL     1     -46.273  60.501 -51.495  1.00  0.00     0.012 C 
ENDBRANCH   7   8
BRANCH   7  11
HETATM   11  C   UNL     1     -44.176  61.437 -49.571  1.00  0.00     0.128 A 
HETATM   12  N   UNL     1     -44.338  62.725 -49.321  1.00  0.00    -0.231 NA
HETATM   13  C   UNL     1     -44.693  62.803 -47.997  1.00  0.00     0.085 A 
HETATM   14  C   UNL     1     -44.770  61.537 -47.428  1.00  0.00     0.062 A 
HETATM   15  C   UNL     1     -44.968  63.928 -47.206  1.00  0.00     0.034 A 
HETATM   16  N   UNL     1     -44.452  60.685 -48.454  1.00  0.00    -0.341 N 
HETATM   17  C   UNL     1     -45.109  61.317 -46.092  1.00  0.00     0.032 A 
HETATM   18  H   UNL     1     -44.416  59.678 -48.396  1.00  0.00     0.167 HD
HETATM   19  C   UNL     1     -45.379  62.451 -45.317  1.00  0.00     0.002 A 
HETATM   20  C   UNL     1     -45.310  63.736 -45.861  1.00  0.00     0.002 A 
ENDBRANCH   7  11
ENDBRANCH   1   7
BRANCH   3  21
HETATM   21  C   UNL     1     -41.447  56.561 -51.504  1.00  0.00     0.162 C 
BRANCH  21  22
HETATM   22  C   UNL     1     -41.909  56.105 -52.863  1.00  0.00    -0.040 A 
HETATM   23  C   UNL     1     -41.020  56.084 -53.947  1.00  0.00     0.011 A 
HETATM   24  C   UNL     1     -41.455  55.719 -55.225  1.00  0.00     0.030 A 
HETATM   25  C   UNL     1     -42.784  55.358 -55.443  1.00  0.00     0.036 A 
HETATM   26  C   UNL     1     -43.662  55.324 -54.353  1.00  0.00     0.030 A 
HETATM   27  C   UNL     1     -43.231  55.699 -53.075  1.00  0.00     0.011 A 
BRANCH  25  28
HETATM   28  N   UNL     1     -43.310  55.033 -56.710  1.00  0.00    -0.309 N 
HETATM   29  C   UNL     1     -43.674  55.910 -57.711  1.00  0.00     0.321 C 
HETATM   30  N   UNL     1     -44.192  55.217 -58.789  1.00  0.00    -0.339 N 
HETATM   31  O   UNL     1     -43.609  57.130 -57.669  1.00  0.00    -0.247 OA
HETATM   32  H   UNL     1     -43.802  54.299 -58.934  1.00  0.00     0.164 HD
HETATM   33  H   UNL     1     -43.652  54.092 -56.824  1.00  0.00     0.170 HD
BRANCH  30  34
HETATM   34  C   UNL     1     -44.747  55.869 -59.971  1.00  0.00     0.078 C 
HETATM   35  C   UNL     1     -44.839  54.927 -61.170  1.00  0.00     0.032 C 
HETATM   36  C   UNL     1     -46.081  56.553 -59.686  1.00  0.00     0.032 C 
ENDBRANCH  30  34
ENDBRANCH  25  28
ENDBRANCH  21  22
ENDBRANCH   3  21
TORSDOF 7
ENDMDL
MODEL 4
REMARK VINA RESULT:      -7.3      4.549      8.350
REMARK  7 active torsions:
REMARK  status: ('A' for Active; 'I' for Inactive)
REMARK    1  A    between atoms: C_2  and  C_3 
REMARK    2  A    between atoms: C_3  and  N_4 
REMARK    3  A    between atoms: C_3  and  C_22 
REMARK       I    between atoms: N_4  and  C_5 
REMARK       I    between atoms: C_5  and  N_6 
REMARK    4  A    between atoms: N_6  and  C_7 
REMARK    5  A    between atoms: C_7  and  C_8 
REMARK    6  A    between atoms: C_11  and  N_12 
REMARK       I    between atoms: N_12  and  C_13 
REMARK       I    between atoms: C_13  and  N_14 
REMARK    7  A    between atoms: N_14  and  C_15 
ROOT
HETATM    1  N   UNL     1     -43.252  55.372 -55.945  1.00  0.00    -0.331 N 
HETATM    2  C   UNL     1     -43.020  55.937 -57.163  1.00  0.00     0.317 C 
HETATM    3  N   UNL     1     -43.772  55.348 -58.137  1.00  0.00    -0.339 N 
HETATM    4  O   UNL     1     -42.240  56.860 -57.356  1.00  0.00    -0.247 OA
HETATM    5  H   UNL     1     -44.101  54.835 -55.823  1.00  0.00     0.165 HD
HETATM    6  H   UNL     1     -44.009  54.380 -57.979  1.00  0.00     0.164 HD
ENDROOT
BRANCH   1   7
HETATM    7  C   UNL     1     -42.667  55.892 -54.721  1.00  0.00     0.159 C 
BRANCH   7   8
HETATM    8  C   UNL     1     -43.734  56.475 -53.756  1.00  0.00     0.008 C 
HETATM    9  C   UNL     1     -44.972  56.972 -54.510  1.00  0.00     0.012 C 
HETATM   10  C   UNL     1     -43.205  57.581 -52.834  1.00  0.00     0.012 C 
ENDBRANCH   7   8
BRANCH   7  11
HETATM   11  C   UNL     1     -41.881  54.761 -54.120  1.00  0.00     0.128 A 
HETATM   12  N   UNL     1     -41.389  54.703 -52.894  1.00  0.00    -0.231 NA
HETATM   13  C   UNL     1     -40.751  53.490 -52.809  1.00  0.00     0.085 A 
HETATM   14  C   UNL     1     -40.869  52.783 -53.999  1.00  0.00     0.062 A 
HETATM   15  C   UNL     1     -40.044  52.922 -51.740  1.00  0.00     0.034 A 
HETATM   16  N   UNL     1     -41.605  53.606 -54.812  1.00  0.00    -0.341 N 
HETATM   17  C   UNL     1     -40.314  51.517 -54.196  1.00  0.00     0.032 A 
HETATM   18  H   UNL     1     -41.888  53.403 -55.759  1.00  0.00     0.167 HD
HETATM   19  C   UNL     1     -39.610  50.965 -53.119  1.00  0.00     0.002 A 
HETATM   20  C   UNL     1     -39.474  51.654 -51.911  1.00  0.00     0.002 A 
ENDBRANCH   7  11
ENDBRANCH   1   7
BRANCH   3  21
HETATM   21  C   UNL     1     -43.663  55.780 -59.512  1.00  0.00     0.162 C 
BRANCH  21  22
HETATM   22  C   UNL     1     -44.810  56.685 -59.882  1.00  0.00    -0.040 A 
HETATM   23  C   UNL     1     -46.102  56.167 -60.045  1.00  0.00     0.011 A 
HETATM   24  C   UNL     1     -47.159  56.990 -60.446  1.00  0.00     0.030 A 
HETATM   25  C   UNL     1     -46.949  58.347 -60.683  1.00  0.00     0.036 A 
HETATM   26  C   UNL     1     -45.671  58.880 -60.467  1.00  0.00     0.030 A 
HETATM   27  C   UNL     1     -44.609  58.056 -60.075  1.00  0.00     0.011 A 
BRANCH  25  28
HETATM   28  N   UNL     1     -47.949  59.228 -61.142  1.00  0.00    -0.309 N 
HETATM   29  C   UNL     1     -48.698  60.106 -60.385  1.00  0.00     0.321 C 
HETATM   30  N   UNL     1     -49.611  60.768 -61.184  1.00  0.00    -0.339 N 
HETATM   31  O   UNL     1     -48.628  60.267 -59.175  1.00  0.00    -0.247 OA
HETATM   32  H   UNL     1     -49.311  60.929 -62.133  1.00  0.00     0.164 HD
HETATM   33  H   UNL     1     -48.302  59.058 -62.070  1.00  0.00     0.170 HD
BRANCH  30  34
HETATM   34  C   UNL     1     -50.607  61.699 -60.663  1.00  0.00     0.078 C 
HETATM   35  C   UNL     1     -50.620  63.025 -61.420  1.00  0.00     0.032 C 
HETATM   36  C   UNL     1     -52.000  61.078 -60.587  1.00  0.00     0.032 C 
ENDBRANCH  30  34
ENDBRANCH  25  28
ENDBRANCH  21  22
ENDBRANCH   3  21
TORSDOF 7
ENDMDL
MODEL 5
REMARK VINA RESULT:      -7.2      4.358      7.034
REMARK  7 active torsions:
REMARK  status: ('A' for Active; 'I' for Inactive)
REMARK    1  A    between atoms: C_2  and  C_3 
REMARK    2  A    between atoms: C_3  and  N_4 
REMARK    3  A    between atoms: C_3  and  C_22 
REMARK       I    between atoms: N_4  and  C_5 
REMARK       I    between atoms: C_5  and  N_6 
REMARK    4  A    between atoms: N_6  and  C_7 
REMARK    5  A    between atoms: C_7  and  C_8 
REMARK    6  A    between atoms: C_11  and  N_12 
REMARK       I    between atoms: N_12  and  C_13 
REMARK       I    between atoms: C_13  and  N_14 
REMARK    7  A    between atoms: N_14  and  C_15 
ROOT
HETATM    1  N   UNL     1     -42.085  60.858 -57.940  1.00  0.00    -0.331 N 
HETATM    2  C   UNL     1     -42.848  60.595 -56.842  1.00  0.00     0.317 C 
HETATM    3  N   UNL     1     -42.168  60.858 -55.688  1.00  0.00    -0.339 N 
HETATM    4  O   UNL     1     -43.999  60.181 -56.886  1.00  0.00    -0.247 OA
HETATM    5  H   UNL     1     -41.279  61.459 -57.826  1.00  0.00     0.165 HD
HETATM    6  H   UNL     1     -41.165  60.755 -55.740  1.00  0.00     0.164 HD
ENDROOT
BRANCH   1   7
HETATM    7  C   UNL     1     -42.611  60.775 -59.291  1.00  0.00     0.159 C 
BRANCH   7   8
HETATM    8  C   UNL     1     -41.570  61.205 -60.360  1.00  0.00     0.008 C 
HETATM    9  C   UNL     1     -41.017  62.607 -60.081  1.00  0.00     0.012 C 
HETATM   10  C   UNL     1     -42.086  61.124 -61.801  1.00  0.00     0.012 C 
ENDBRANCH   7   8
BRANCH   7  11
HETATM   11  C   UNL     1     -43.088  59.360 -59.468  1.00  0.00     0.128 A 
HETATM   12  N   UNL     1     -42.358  58.262 -59.375  1.00  0.00    -0.231 NA
HETATM   13  C   UNL     1     -43.222  57.222 -59.617  1.00  0.00     0.085 A 
HETATM   14  C   UNL     1     -44.511  57.691 -59.845  1.00  0.00     0.062 A 
HETATM   15  C   UNL     1     -42.976  55.843 -59.661  1.00  0.00     0.034 A 
HETATM   16  N   UNL     1     -44.402  59.052 -59.729  1.00  0.00    -0.341 N 
HETATM   17  C   UNL     1     -45.593  56.853 -60.120  1.00  0.00     0.032 A 
HETATM   18  H   UNL     1     -45.156  59.716 -59.828  1.00  0.00     0.167 HD
HETATM   19  C   UNL     1     -45.329  55.478 -60.161  1.00  0.00     0.002 A 
HETATM   20  C   UNL     1     -44.043  54.979 -59.936  1.00  0.00     0.002 A 
ENDBRANCH   7  11
ENDBRANCH   1   7
BRANCH   3  21
HETATM   21  C   UNL     1     -42.785  60.626 -54.402  1.00  0.00     0.162 C 
BRANCH  21  22
HETATM   22  C   UNL     1     -42.423  59.262 -53.872  1.00  0.00    -0.040 A 
HETATM   23  C   UNL     1     -41.172  59.038 -53.281  1.00  0.00     0.011 A 
HETATM   24  C   UNL     1     -40.806  57.762 -52.841  1.00  0.00     0.030 A 
HETATM   25  C   UNL     1     -41.685  56.688 -52.974  1.00  0.00     0.036 A 
HETATM   26  C   UNL     1     -42.956  56.920 -53.513  1.00  0.00     0.030 A 
HETATM   27  C   UNL     1     -43.322  58.194 -53.963  1.00  0.00     0.011 A 
BRANCH  25  28
HETATM   28  N   UNL     1     -41.367  55.365 -52.606  1.00  0.00    -0.309 N 
HETATM   29  C   UNL     1     -40.621  54.456 -53.328  1.00  0.00     0.321 C 
HETATM   30  N   UNL     1     -40.567  53.246 -52.663  1.00  0.00    -0.339 N 
HETATM   31  O   UNL     1     -40.110  54.640 -54.424  1.00  0.00    -0.247 OA
HETATM   32  H   UNL     1     -40.589  53.310 -51.657  1.00  0.00     0.164 HD
HETATM   33  H   UNL     1     -41.904  54.970 -51.850  1.00  0.00     0.170 HD
BRANCH  30  34
HETATM   34  C   UNL     1     -39.925  52.055 -53.212  1.00  0.00     0.078 C 
HETATM   35  C   UNL     1     -39.493  51.071 -52.127  1.00  0.00     0.032 C 
HETATM   36  C   UNL     1     -40.774  51.379 -54.284  1.00  0.00     0.032 C 
ENDBRANCH  30  34
ENDBRANCH  25  28
ENDBRANCH  21  22
ENDBRANCH   3  21
TORSDOF 7
ENDMDL
MODEL 6
REMARK VINA RESULT:      -7.2      2.696      5.323
REMARK  7 active torsions:
REMARK  status: ('A' for Active; 'I' for Inactive)
REMARK    1  A    between atoms: C_2  and  C_3 
REMARK    2  A    between atoms: C_3  and  N_4 
REMARK    3  A    between atoms: C_3  and  C_22 
REMARK       I    between atoms: N_4  and  C_5 
REMARK       I    between atoms: C_5  and  N_6 
REMARK    4  A    between atoms: N_6  and  C_7 
REMARK    5  A    between atoms: C_7  and  C_8 
REMARK    6  A    between atoms: C_11  and  N_12 
REMARK       I    between atoms: N_12  and  C_13 
REMARK       I    between atoms: C_13  and  N_14 
REMARK    7  A    between atoms: N_14  and  C_15 
ROOT
HETATM    1  N   UNL     1     -43.709  55.715 -57.412  1.00  0.00    -0.331 N 
HETATM    2  C   UNL     1     -42.970  55.315 -56.339  1.00  0.00     0.317 C 
HETATM    3  N   UNL     1     -43.718  55.294 -55.198  1.00  0.00    -0.339 N 
HETATM    4  O   UNL     1     -41.787  55.007 -56.395  1.00  0.00    -0.247 OA
HETATM    5  H   UNL     1     -44.717  55.666 -57.340  1.00  0.00     0.165 HD
HETATM    6  H   UNL     1     -44.483  55.952 -55.166  1.00  0.00     0.164 HD
ENDROOT
BRANCH   1   7
HETATM    7  C   UNL     1     -43.183  55.710 -58.765  1.00  0.00     0.159 C 
BRANCH   7   8
HETATM    8  C   UNL     1     -44.209  55.169 -59.798  1.00  0.00     0.008 C 
HETATM    9  C   UNL     1     -45.447  56.067 -59.892  1.00  0.00     0.012 C 
HETATM   10  C   UNL     1     -44.634  53.717 -59.554  1.00  0.00     0.012 C 
ENDBRANCH   7   8
BRANCH   7  11
HETATM   11  C   UNL     1     -42.746  57.120 -59.049  1.00  0.00     0.128 A 
HETATM   12  N   UNL     1     -42.492  58.064 -58.159  1.00  0.00    -0.231 NA
HETATM   13  C   UNL     1     -42.137  59.173 -58.887  1.00  0.00     0.085 A 
HETATM   14  C   UNL     1     -42.155  58.898 -60.250  1.00  0.00     0.062 A 
HETATM   15  C   UNL     1     -41.784  60.457 -58.450  1.00  0.00     0.034 A 
HETATM   16  N   UNL     1     -42.531  57.582 -60.326  1.00  0.00    -0.341 N 
HETATM   17  C   UNL     1     -41.838  59.845 -61.226  1.00  0.00     0.032 A 
HETATM   18  H   UNL     1     -42.641  57.047 -61.174  1.00  0.00     0.167 HD
HETATM   19  C   UNL     1     -41.489  61.123 -60.772  1.00  0.00     0.002 A 
HETATM   20  C   UNL     1     -41.462  61.427 -59.408  1.00  0.00     0.002 A 
ENDBRANCH   7  11
ENDBRANCH   1   7
BRANCH   3  21
HETATM   21  C   UNL     1     -43.122  54.920 -53.935  1.00  0.00     0.162 C 
BRANCH  21  22
HETATM   22  C   UNL     1     -43.014  56.112 -53.020  1.00  0.00    -0.040 A 
HETATM   23  C   UNL     1     -43.972  56.332 -52.020  1.00  0.00     0.011 A 
HETATM   24  C   UNL     1     -43.911  57.467 -51.206  1.00  0.00     0.030 A 
HETATM   25  C   UNL     1     -42.888  58.399 -51.367  1.00  0.00     0.036 A 
HETATM   26  C   UNL     1     -41.898  58.155 -52.327  1.00  0.00     0.030 A 
HETATM   27  C   UNL     1     -41.962  57.025 -53.150  1.00  0.00     0.011 A 
BRANCH  25  28
HETATM   28  N   UNL     1     -42.791  59.593 -50.625  1.00  0.00    -0.309 N 
HETATM   29  C   UNL     1     -43.642  60.678 -50.676  1.00  0.00     0.321 C 
HETATM   30  N   UNL     1     -43.193  61.679 -49.835  1.00  0.00    -0.339 N 
HETATM   31  O   UNL     1     -44.630  60.795 -51.387  1.00  0.00    -0.247 OA
HETATM   32  H   UNL     1     -42.709  61.359 -49.010  1.00  0.00     0.164 HD
HETATM   33  H   UNL     1     -41.909  59.766 -50.168  1.00  0.00     0.170 HD
BRANCH  30  34
HETATM   34  C   UNL     1     -43.830  62.989 -49.734  1.00  0.00     0.078 C 
HETATM   35  C   UNL     1     -44.710  63.116 -48.492  1.00  0.00     0.032 C 
HETATM   36  C   UNL     1     -42.825  64.133 -49.835  1.00  0.00     0.032 C 
ENDBRANCH  30  34
ENDBRANCH  25  28
ENDBRANCH  21  22
ENDBRANCH   3  21
TORSDOF 7
ENDMDL
MODEL 7
REMARK VINA RESULT:      -7.1      4.721      8.727
REMARK  7 active torsions:
REMARK  status: ('A' for Active; 'I' for Inactive)
REMARK    1  A    between atoms: C_2  and  C_3 
REMARK    2  A    between atoms: C_3  and  N_4 
REMARK    3  A    between atoms: C_3  and  C_22 
REMARK       I    between atoms: N_4  and  C_5 
REMARK       I    between atoms: C_5  and  N_6 
REMARK    4  A    between atoms: N_6  and  C_7 
REMARK    5  A    between atoms: C_7  and  C_8 
REMARK    6  A    between atoms: C_11  and  N_12 
REMARK       I    between atoms: N_12  and  C_13 
REMARK       I    between atoms: C_13  and  N_14 
REMARK    7  A    between atoms: N_14  and  C_15 
ROOT
HETATM    1  N   UNL     1     -45.078  57.294 -58.203  1.00  0.00    -0.331 N 
HETATM    2  C   UNL     1     -44.288  57.788 -57.209  1.00  0.00     0.317 C 
HETATM    3  N   UNL     1     -44.773  57.460 -55.976  1.00  0.00    -0.339 N 
HETATM    4  O   UNL     1     -43.268  58.437 -57.399  1.00  0.00    -0.247 OA
HETATM    5  H   UNL     1     -45.715  56.541 -57.974  1.00  0.00     0.165 HD
HETATM    6  H   UNL     1     -45.774  57.339 -55.920  1.00  0.00     0.164 HD
ENDROOT
BRANCH   1   7
HETATM    7  C   UNL     1     -44.721  57.400 -59.607  1.00  0.00     0.159 C 
BRANCH   7   8
HETATM    8  C   UNL     1     -43.938  56.160 -60.114  1.00  0.00     0.008 C 
HETATM    9  C   UNL     1     -44.437  54.866 -59.461  1.00  0.00     0.012 C 
HETATM   10  C   UNL     1     -42.417  56.273 -59.955  1.00  0.00     0.012 C 
ENDBRANCH   7   8
BRANCH   7  11
HETATM   11  C   UNL     1     -46.008  57.630 -60.348  1.00  0.00     0.128 A 
HETATM   12  N   UNL     1     -46.770  56.711 -60.915  1.00  0.00    -0.231 NA
HETATM   13  C   UNL     1     -47.824  57.394 -61.470  1.00  0.00     0.085 A 
HETATM   14  C   UNL     1     -47.717  58.758 -61.222  1.00  0.00     0.062 A 
HETATM   15  C   UNL     1     -48.917  56.914 -62.204  1.00  0.00     0.034 A 
HETATM   16  N   UNL     1     -46.561  58.880 -60.494  1.00  0.00    -0.341 N 
HETATM   17  C   UNL     1     -48.650  59.694 -61.671  1.00  0.00     0.032 A 
HETATM   18  H   UNL     1     -46.178  59.742 -60.135  1.00  0.00     0.167 HD
HETATM   19  C   UNL     1     -49.735  59.197 -62.405  1.00  0.00     0.002 A 
HETATM   20  C   UNL     1     -49.869  57.832 -62.669  1.00  0.00     0.002 A 
ENDBRANCH   7  11
ENDBRANCH   1   7
BRANCH   3  21
HETATM   21  C   UNL     1     -44.098  57.905 -54.778  1.00  0.00     0.162 C 
BRANCH  21  22
HETATM   22  C   UNL     1     -43.174  56.837 -54.256  1.00  0.00    -0.040 A 
HETATM   23  C   UNL     1     -41.863  56.729 -54.742  1.00  0.00     0.011 A 
HETATM   24  C   UNL     1     -41.018  55.704 -54.305  1.00  0.00     0.030 A 
HETATM   25  C   UNL     1     -41.462  54.772 -53.368  1.00  0.00     0.036 A 
HETATM   26  C   UNL     1     -42.751  54.909 -52.839  1.00  0.00     0.030 A 
HETATM   27  C   UNL     1     -43.602  55.929 -53.282  1.00  0.00     0.011 A 
BRANCH  25  28
HETATM   28  N   UNL     1     -40.691  53.680 -52.922  1.00  0.00    -0.309 N 
HETATM   29  C   UNL     1     -40.735  52.383 -53.390  1.00  0.00     0.321 C 
HETATM   30  N   UNL     1     -39.862  51.586 -52.673  1.00  0.00    -0.339 N 
HETATM   31  O   UNL     1     -41.462  51.952 -54.274  1.00  0.00    -0.247 OA
HETATM   32  H   UNL     1     -39.036  52.054 -52.335  1.00  0.00     0.164 HD
HETATM   33  H   UNL     1     -40.214  53.799 -52.042  1.00  0.00     0.170 HD
BRANCH  30  34
HETATM   34  C   UNL     1     -39.744  50.144 -52.871  1.00  0.00     0.078 C 
HETATM   35  C   UNL     1     -38.738  49.785 -53.963  1.00  0.00     0.032 C 
HETATM   36  C   UNL     1     -39.456  49.400 -51.571  1.00  0.00     0.032 C 
ENDBRANCH  30  34
ENDBRANCH  25  28
ENDBRANCH  21  22
ENDBRANCH   3  21
TORSDOF 7
ENDMDL
MODEL 8
REMARK VINA RESULT:      -7.0      3.676      7.662
REMARK  7 active torsions:
REMARK  status: ('A' for Active; 'I' for Inactive)
REMARK    1  A    between atoms: C_2  and  C_3 
REMARK    2  A    between atoms: C_3  and  N_4 
REMARK    3  A    between atoms: C_3  and  C_22 
REMARK       I    between atoms: N_4  and  C_5 
REMARK       I    between atoms: C_5  and  N_6 
REMARK    4  A    between atoms: N_6  and  C_7 
REMARK    5  A    between atoms: C_7  and  C_8 
REMARK    6  A    between atoms: C_11  and  N_12 
REMARK       I    between atoms: N_12  and  C_13 
REMARK       I    between atoms: C_13  and  N_14 
REMARK    7  A    between atoms: N_14  and  C_15 
ROOT
HETATM    1  N   UNL     1     -44.239  59.785 -55.917  1.00  0.00    -0.331 N 
HETATM    2  C   UNL     1     -44.250  59.309 -54.641  1.00  0.00     0.317 C 
HETATM    3  N   UNL     1     -43.073  59.567 -54.001  1.00  0.00    -0.339 N 
HETATM    4  O   UNL     1     -45.200  58.729 -54.131  1.00  0.00    -0.247 OA
HETATM    5  H   UNL     1     -43.553  60.490 -56.156  1.00  0.00     0.165 HD
HETATM    6  H   UNL     1     -42.258  59.625 -54.595  1.00  0.00     0.164 HD
ENDROOT
BRANCH   1   7
HETATM    7  C   UNL     1     -45.411  59.746 -56.774  1.00  0.00     0.159 C 
BRANCH   7   8
HETATM    8  C   UNL     1     -45.633  61.080 -57.536  1.00  0.00     0.008 C 
HETATM    9  C   UNL     1     -44.318  61.837 -57.751  1.00  0.00     0.012 C 
HETATM   10  C   UNL     1     -46.669  62.005 -56.886  1.00  0.00     0.012 C 
ENDBRANCH   7   8
BRANCH   7  11
HETATM   11  C   UNL     1     -45.221  58.568 -57.688  1.00  0.00     0.128 A 
HETATM   12  N   UNL     1     -44.145  57.805 -57.782  1.00  0.00    -0.231 NA
HETATM   13  C   UNL     1     -44.437  56.871 -58.746  1.00  0.00     0.085 A 
HETATM   14  C   UNL     1     -45.724  57.054 -59.240  1.00  0.00     0.062 A 
HETATM   15  C   UNL     1     -43.648  55.831 -59.255  1.00  0.00     0.034 A 
HETATM   16  N   UNL     1     -46.206  58.130 -58.540  1.00  0.00    -0.341 N 
HETATM   17  C   UNL     1     -46.284  56.248 -60.232  1.00  0.00     0.032 A 
HETATM   18  H   UNL     1     -47.124  58.536 -58.640  1.00  0.00     0.167 HD
HETATM   19  C   UNL     1     -45.481  55.215 -60.730  1.00  0.00     0.002 A 
HETATM   20  C   UNL     1     -44.185  55.007 -60.253  1.00  0.00     0.002 A 
ENDBRANCH   7  11
ENDBRANCH   1   7
BRANCH   3  21
HETATM   21  C   UNL     1     -42.863  59.126 -52.641  1.00  0.00     0.162 C 
BRANCH  21  22
HETATM   22  C   UNL     1     -42.268  57.742 -52.612  1.00  0.00    -0.040 A 
HETATM   23  C   UNL     1     -42.505  56.888 -51.526  1.00  0.00     0.011 A 
HETATM   24  C   UNL     1     -41.908  55.625 -51.463  1.00  0.00     0.030 A 
HETATM   25  C   UNL     1     -41.071  55.186 -52.488  1.00  0.00     0.036 A 
HETATM   26  C   UNL     1     -40.876  56.014 -53.601  1.00  0.00     0.030 A 
HETATM   27  C   UNL     1     -41.465  57.283 -53.661  1.00  0.00     0.011 A 
BRANCH  25  28
HETATM   28  N   UNL     1     -40.391  53.952 -52.471  1.00  0.00    -0.309 N 
HETATM   29  C   UNL     1     -40.725  52.806 -53.164  1.00  0.00     0.321 C 
HETATM   30  N   UNL     1     -39.845  51.787 -52.855  1.00  0.00    -0.339 N 
HETATM   31  O   UNL     1     -41.682  52.661 -53.911  1.00  0.00    -0.247 OA
HETATM   32  H   UNL     1     -38.905  52.083 -52.642  1.00  0.00     0.164 HD
HETATM   33  H   UNL     1     -39.722  53.821 -51.729  1.00  0.00     0.170 HD
BRANCH  30  34
HETATM   34  C   UNL     1     -39.986  50.424 -53.359  1.00  0.00     0.078 C 
HETATM   35  C   UNL     1     -39.227  50.204 -54.667  1.00  0.00     0.032 C 
HETATM   36  C   UNL     1     -39.624  49.375 -52.312  1.00  0.00     0.032 C 
ENDBRANCH  30  34
ENDBRANCH  25  28
ENDBRANCH  21  22
ENDBRANCH   3  21
TORSDOF 7
ENDMDL
MODEL 9
REMARK VINA RESULT:      -7.0      5.402      9.721
REMARK  7 active torsions:
REMARK  status: ('A' for Active; 'I' for Inactive)
REMARK    1  A    between atoms: C_2  and  C_3 
REMARK    2  A    between atoms: C_3  and  N_4 
REMARK    3  A    between atoms: C_3  and  C_22 
REMARK       I    between atoms: N_4  and  C_5 
REMARK       I    between atoms: C_5  and  N_6 
REMARK    4  A    between atoms: N_6  and  C_7 
REMARK    5  A    between atoms: C_7  and  C_8 
REMARK    6  A    between atoms: C_11  and  N_12 
REMARK       I    between atoms: N_12  and  C_13 
REMARK       I    between atoms: C_13  and  N_14 
REMARK    7  A    between atoms: N_14  and  C_15 
ROOT
HETATM    1  N   UNL     1     -49.805  60.253 -57.315  1.00  0.00    -0.331 N 
HETATM    2  C   UNL     1     -48.698  60.225 -58.109  1.00  0.00     0.317 C 
HETATM    3  N   UNL     1     -47.808  59.278 -57.693  1.00  0.00    -0.339 N 
HETATM    4  O   UNL     1     -48.528  60.953 -59.079  1.00  0.00    -0.247 OA
HETATM    5  H   UNL     1     -49.995  59.445 -56.735  1.00  0.00     0.165 HD
HETATM    6  H   UNL     1     -47.822  59.073 -56.704  1.00  0.00     0.164 HD
ENDROOT
BRANCH   1   7
HETATM    7  C   UNL     1     -50.955  61.088 -57.611  1.00  0.00     0.159 C 
BRANCH   7   8
HETATM    8  C   UNL     1     -52.051  60.328 -58.406  1.00  0.00     0.008 C 
HETATM    9  C   UNL     1     -52.841  61.268 -59.323  1.00  0.00     0.012 C 
HETATM   10  C   UNL     1     -53.014  59.522 -57.527  1.00  0.00     0.012 C 
ENDBRANCH   7   8
BRANCH   7  11
HETATM   11  C   UNL     1     -51.441  61.613 -56.289  1.00  0.00     0.128 A 
HETATM   12  N   UNL     1     -52.287  62.611 -56.097  1.00  0.00    -0.231 NA
HETATM   13  C   UNL     1     -52.422  62.725 -54.735  1.00  0.00     0.085 A 
HETATM   14  C   UNL     1     -51.659  61.765 -54.079  1.00  0.00     0.062 A 
HETATM   15  C   UNL     1     -53.182  63.629 -53.981  1.00  0.00     0.034 A 
HETATM   16  N   UNL     1     -51.057  61.062 -55.090  1.00  0.00    -0.341 N 
HETATM   17  C   UNL     1     -51.604  61.649 -52.689  1.00  0.00     0.032 A 
HETATM   18  H   UNL     1     -50.431  60.279 -54.974  1.00  0.00     0.167 HD
HETATM   19  C   UNL     1     -52.368  62.562 -51.952  1.00  0.00     0.002 A 
HETATM   20  C   UNL     1     -53.145  63.537 -52.584  1.00  0.00     0.002 A 
ENDBRANCH   7  11
ENDBRANCH   1   7
BRANCH   3  21
HETATM   21  C   UNL     1     -46.552  59.096 -58.383  1.00  0.00     0.162 C 
BRANCH  21  22
HETATM   22  C   UNL     1     -45.529  58.463 -57.476  1.00  0.00    -0.040 A 
HETATM   23  C   UNL     1     -44.485  57.693 -58.008  1.00  0.00     0.011 A 
HETATM   24  C   UNL     1     -43.566  57.054 -57.170  1.00  0.00     0.030 A 
HETATM   25  C   UNL     1     -43.667  57.178 -55.785  1.00  0.00     0.036 A 
HETATM   26  C   UNL     1     -44.675  57.990 -55.251  1.00  0.00     0.030 A 
HETATM   27  C   UNL     1     -45.601  58.623 -56.088  1.00  0.00     0.011 A 
BRANCH  25  28
HETATM   28  N   UNL     1     -42.815  56.520 -54.875  1.00  0.00    -0.309 N 
HETATM   29  C   UNL     1     -42.919  55.218 -54.427  1.00  0.00     0.321 C 
HETATM   30  N   UNL     1     -41.926  54.948 -53.505  1.00  0.00    -0.339 N 
HETATM   31  O   UNL     1     -43.781  54.408 -54.739  1.00  0.00    -0.247 OA
HETATM   32  H   UNL     1     -41.061  55.444 -53.651  1.00  0.00     0.164 HD
HETATM   33  H   UNL     1     -42.196  57.106 -54.337  1.00  0.00     0.170 HD
BRANCH  30  34
HETATM   34  C   UNL     1     -41.823  53.684 -52.783  1.00  0.00     0.078 C 
HETATM   35  C   UNL     1     -40.489  52.980 -53.025  1.00  0.00     0.032 C 
HETATM   36  C   UNL     1     -42.119  53.838 -51.294  1.00  0.00     0.032 C 
ENDBRANCH  30  34
ENDBRANCH  25  28
ENDBRANCH  21  22
ENDBRANCH   3  21
TORSDOF 7
ENDMDL
MODEL 10
REMARK VINA RESULT:      -7.0      4.460      9.007
REMARK  7 active torsions:
REMARK  status: ('A' for Active; 'I' for Inactive)
REMARK    1  A    between atoms: C_2  and  C_3 
REMARK    2  A    between atoms: C_3  and  N_4 
REMARK    3  A    between atoms: C_3  and  C_22 
REMARK       I    between atoms: N_4  and  C_5 
REMARK       I    between atoms: C_5  and  N_6 
REMARK    4  A    between atoms: N_6  and  C_7 
REMARK    5  A    between atoms: C_7  and  C_8 
REMARK    6  A    between atoms: C_11  and  N_12 
REMARK       I    between atoms: N_12  and  C_13 
REMARK       I    between atoms: C_13  and  N_14 
REMARK    7  A    between atoms: N_14  and  C_15 
ROOT
HETATM    1  N   UNL     1     -41.243  55.945 -54.008  1.00  0.00    -0.331 N 
HETATM    2  C   UNL     1     -42.284  55.796 -54.875  1.00  0.00     0.317 C 
HETATM    3  N   UNL     1     -41.969  56.261 -56.118  1.00  0.00    -0.339 N 
HETATM    4  O   UNL     1     -43.363  55.300 -54.576  1.00  0.00    -0.247 OA
HETATM    5  H   UNL     1     -40.318  56.084 -54.396  1.00  0.00     0.165 HD
HETATM    6  H   UNL     1     -41.291  57.008 -56.145  1.00  0.00     0.164 HD
ENDROOT
BRANCH   1   7
HETATM    7  C   UNL     1     -41.276  55.424 -52.654  1.00  0.00     0.159 C 
BRANCH   7   8
HETATM    8  C   UNL     1     -42.671  55.582 -51.991  1.00  0.00     0.008 C 
HETATM    9  C   UNL     1     -42.704  56.759 -51.010  1.00  0.00     0.012 C 
HETATM   10  C   UNL     1     -43.183  54.312 -51.301  1.00  0.00     0.012 C 
ENDBRANCH   7   8
BRANCH   7  11
HETATM   11  C   UNL     1     -40.824  53.993 -52.745  1.00  0.00     0.128 A 
HETATM   12  N   UNL     1     -40.302  53.265 -51.774  1.00  0.00    -0.231 NA
HETATM   13  C   UNL     1     -40.045  52.036 -52.330  1.00  0.00     0.085 A 
HETATM   14  C   UNL     1     -40.434  52.004 -53.664  1.00  0.00     0.062 A 
HETATM   15  C   UNL     1     -39.476  50.892 -51.754  1.00  0.00     0.034 A 
HETATM   16  N   UNL     1     -40.940  53.256 -53.900  1.00  0.00    -0.341 N 
HETATM   17  C   UNL     1     -40.288  50.879 -54.478  1.00  0.00     0.032 A 
HETATM   18  H   UNL     1     -41.324  53.584 -54.774  1.00  0.00     0.167 HD
HETATM   19  C   UNL     1     -39.716  49.746 -53.887  1.00  0.00     0.002 A 
HETATM   20  C   UNL     1     -39.316  49.749 -52.548  1.00  0.00     0.002 A 
ENDBRANCH   7  11
ENDBRANCH   1   7
BRANCH   3  21
HETATM   21  C   UNL     1     -42.942  56.219 -57.187  1.00  0.00     0.162 C 
BRANCH  21  22
HETATM   22  C   UNL     1     -42.627  57.252 -58.238  1.00  0.00    -0.040 A 
HETATM   23  C   UNL     1     -42.692  58.619 -57.935  1.00  0.00     0.011 A 
HETATM   24  C   UNL     1     -42.460  59.584 -58.920  1.00  0.00     0.030 A 
HETATM   25  C   UNL     1     -42.149  59.202 -60.224  1.00  0.00     0.036 A 
HETATM   26  C   UNL     1     -42.029  57.839 -60.518  1.00  0.00     0.030 A 
HETATM   27  C   UNL     1     -42.271  56.871 -59.536  1.00  0.00     0.011 A 
BRANCH  25  28
HETATM   28  N   UNL     1     -41.957  60.113 -61.283  1.00  0.00    -0.309 N 
HETATM   29  C   UNL     1     -41.315  61.333 -61.226  1.00  0.00     0.321 C 
HETATM   30  N   UNL     1     -41.369  61.960 -62.457  1.00  0.00    -0.339 N 
HETATM   31  O   UNL     1     -40.806  61.843 -60.238  1.00  0.00    -0.247 OA
HETATM   32  H   UNL     1     -41.369  61.340 -63.252  1.00  0.00     0.164 HD
HETATM   33  H   UNL     1     -42.518  59.965 -62.107  1.00  0.00     0.170 HD
BRANCH  30  34
HETATM   34  C   UNL     1     -40.855  63.305 -62.696  1.00  0.00     0.078 C 
HETATM   35  C   UNL     1     -40.244  63.459 -64.087  1.00  0.00     0.032 C 
HETATM   36  C   UNL     1     -41.897  64.384 -62.415  1.00  0.00     0.032 C 
ENDBRANCH  30  34
ENDBRANCH  25  28
ENDBRANCH  21  22
ENDBRANCH   3  21
TORSDOF 7
ENDMDL
