MODEL 1
REMARK VINA RESULT:      -8.0      0.000      0.000
REMARK  3 active torsions:
REMARK  status: ('A' for Active; 'I' for Inactive)
REMARK    1  A    between atoms: C_2  and  N_3 
REMARK    2  A    between atoms: N_10  and  C_11 
REMARK    3  A    between atoms: C_11  and  C_12 
ROOT
HETATM    1  N   UNL     1     -43.883  58.915 -50.959  1.00  0.00    -0.063 N 
HETATM    2  H   UNL     1     -43.705  58.320 -50.127  1.00  0.00     0.280 HD
HETATM    3  C   UNL     1     -43.824  57.913 -52.107  1.00  0.00     0.277 C 
HETATM    4  C   UNL     1     -42.710  56.873 -51.860  1.00  0.00     0.132 C 
HETATM    5  O   UNL     1     -42.960  56.358 -50.523  1.00  0.00    -0.373 OA
HETATM    6  C   UNL     1     -42.152  55.204 -50.231  1.00  0.00     0.199 C 
HETATM    7  C   UNL     1     -42.431  54.069 -51.228  1.00  0.00     0.299 C 
HETATM    8  N   UNL     1     -42.231  54.471 -52.629  1.00  0.00     0.097 N 
HETATM    9  C   UNL     1     -42.888  55.745 -52.920  1.00  0.00     0.314 C 
HETATM   10  C   UNL     1     -41.327  57.562 -51.943  1.00  0.00     0.209 C 
HETATM   11  O   UNL     1     -40.946  58.159 -50.710  1.00  0.00    -0.386 OA
HETATM   12  C   UNL     1     -41.494  59.406 -50.317  1.00  0.00     0.195 C 
HETATM   13  C   UNL     1     -42.746  59.921 -51.026  1.00  0.00     0.261 C 
ENDROOT
BRANCH   1  14
HETATM   14  C   UNL     1     -45.240  59.573 -50.732  1.00  0.00     0.180 C 
HETATM   15  C   UNL     1     -45.835  60.044 -52.056  1.00  0.00     0.039 C 
HETATM   16  C   UNL     1     -45.140  60.699 -49.709  1.00  0.00     0.039 C 
ENDBRANCH   1  14
BRANCH   8  17
HETATM   17  C   UNL     1     -40.852  54.340 -53.096  1.00  0.00     0.311 C 
BRANCH  17  18
HETATM   18  C   UNL     1     -40.425  52.889 -53.091  1.00  0.00    -0.030 A 
HETATM   19  C   UNL     1     -39.842  52.335 -51.937  1.00  0.00     0.012 A 
HETATM   20  C   UNL     1     -39.442  50.998 -51.917  1.00  0.00     0.043 A 
HETATM   21  C   UNL     1     -39.617  50.214 -53.052  1.00  0.00     0.116 A 
HETATM   22  F   UNL     1     -39.235  48.933 -53.032  1.00  0.00    -0.206 F 
HETATM   23  C   UNL     1     -40.180  50.747 -54.206  1.00  0.00     0.043 A 
HETATM   24  C   UNL     1     -40.582  52.084 -54.228  1.00  0.00     0.012 A 
ENDBRANCH  17  18
ENDBRANCH   8  17
TORSDOF 3
ENDMDL
MODEL 2
REMARK VINA RESULT:      -7.9      0.928      1.092
REMARK  3 active torsions:
REMARK  status: ('A' for Active; 'I' for Inactive)
REMARK    1  A    between atoms: C_2  and  N_3 
REMARK    2  A    between atoms: N_10  and  C_11 
REMARK    3  A    between atoms: C_11  and  C_12 
ROOT
HETATM    1  N   UNL     1     -44.248  59.089 -52.504  1.00  0.00    -0.063 N 
HETATM    2  H   UNL     1     -44.432  58.582 -51.617  1.00  0.00     0.280 HD
HETATM    3  C   UNL     1     -43.768  57.978 -53.432  1.00  0.00     0.277 C 
HETATM    4  C   UNL     1     -42.876  56.980 -52.663  1.00  0.00     0.132 C 
HETATM    5  O   UNL     1     -43.651  56.599 -51.493  1.00  0.00    -0.373 OA
HETATM    6  C   UNL     1     -43.059  55.489 -50.793  1.00  0.00     0.199 C 
HETATM    7  C   UNL     1     -42.954  54.257 -51.705  1.00  0.00     0.299 C 
HETATM    8  N   UNL     1     -42.203  54.518 -52.943  1.00  0.00     0.097 N 
HETATM    9  C   UNL     1     -42.652  55.750 -53.592  1.00  0.00     0.314 C 
HETATM   10  C   UNL     1     -41.553  57.672 -52.255  1.00  0.00     0.209 C 
HETATM   11  O   UNL     1     -41.675  58.394 -51.036  1.00  0.00    -0.386 OA
HETATM   12  C   UNL     1     -42.296  59.668 -51.016  1.00  0.00     0.195 C 
HETATM   13  C   UNL     1     -43.148  60.096 -52.211  1.00  0.00     0.261 C 
ENDROOT
BRANCH   1  14
HETATM   14  C   UNL     1     -45.563  59.751 -52.900  1.00  0.00     0.180 C 
HETATM   15  C   UNL     1     -45.316  60.881 -53.897  1.00  0.00     0.039 C 
HETATM   16  C   UNL     1     -46.333  60.222 -51.671  1.00  0.00     0.039 C 
ENDBRANCH   1  14
BRANCH   8  17
HETATM   17  C   UNL     1     -40.757  54.356 -52.808  1.00  0.00     0.311 C 
BRANCH  17  18
HETATM   18  C   UNL     1     -40.374  52.896 -52.911  1.00  0.00    -0.030 A 
HETATM   19  C   UNL     1     -39.827  52.235 -51.797  1.00  0.00     0.012 A 
HETATM   20  C   UNL     1     -39.468  50.889 -51.877  1.00  0.00     0.043 A 
HETATM   21  C   UNL     1     -39.648  50.202 -53.073  1.00  0.00     0.116 A 
HETATM   22  F   UNL     1     -39.305  48.912 -53.149  1.00  0.00    -0.206 F 
HETATM   23  C   UNL     1     -40.176  50.842 -54.189  1.00  0.00     0.043 A 
HETATM   24  C   UNL     1     -40.536  52.189 -54.111  1.00  0.00     0.012 A 
ENDBRANCH  17  18
ENDBRANCH   8  17
TORSDOF 3
ENDMDL
MODEL 3
REMARK VINA RESULT:      -7.7      1.513      1.767
REMARK  3 active torsions:
REMARK  status: ('A' for Active; 'I' for Inactive)
REMARK    1  A    between atoms: C_2  and  N_3 
REMARK    2  A    between atoms: N_10  and  C_11 
REMARK    3  A    between atoms: C_11  and  C_12 
ROOT
HETATM    1  N   UNL     1     -44.174  59.105 -53.190  1.00  0.00    -0.063 N 
HETATM    2  H   UNL     1     -43.597  59.205 -52.332  1.00  0.00     0.280 HD
HETATM    3  C   UNL     1     -44.141  57.603 -53.444  1.00  0.00     0.277 C 
HETATM    4  C   UNL     1     -42.743  57.031 -53.126  1.00  0.00     0.132 C 
HETATM    5  O   UNL     1     -42.437  57.498 -51.784  1.00  0.00    -0.373 OA
HETATM    6  C   UNL     1     -41.269  56.854 -51.242  1.00  0.00     0.199 C 
HETATM    7  C   UNL     1     -41.461  55.331 -51.175  1.00  0.00     0.299 C 
HETATM    8  N   UNL     1     -41.797  54.734 -52.476  1.00  0.00     0.097 N 
HETATM    9  C   UNL     1     -42.863  55.478 -53.149  1.00  0.00     0.314 C 
HETATM   10  C   UNL     1     -41.716  57.568 -54.152  1.00  0.00     0.209 C 
HETATM   11  O   UNL     1     -41.202  58.842 -53.784  1.00  0.00    -0.386 OA
HETATM   12  C   UNL     1     -41.966  60.015 -54.003  1.00  0.00     0.195 C 
HETATM   13  C   UNL     1     -43.463  59.881 -54.286  1.00  0.00     0.261 C 
ENDROOT
BRANCH   1  14
HETATM   14  C   UNL     1     -45.544  59.684 -52.852  1.00  0.00     0.180 C 
HETATM   15  C   UNL     1     -45.679  61.100 -53.406  1.00  0.00     0.039 C 
HETATM   16  C   UNL     1     -45.813  59.620 -51.353  1.00  0.00     0.039 C 
ENDBRANCH   1  14
BRANCH   8  17
HETATM   17  C   UNL     1     -40.634  54.400 -53.297  1.00  0.00     0.311 C 
BRANCH  17  18
HETATM   18  C   UNL     1     -40.303  52.929 -53.175  1.00  0.00    -0.030 A 
HETATM   19  C   UNL     1     -39.852  52.412 -51.948  1.00  0.00     0.012 A 
HETATM   20  C   UNL     1     -39.541  51.058 -51.820  1.00  0.00     0.043 A 
HETATM   21  C   UNL     1     -39.675  50.218 -52.921  1.00  0.00     0.116 A 
HETATM   22  F   UNL     1     -39.380  48.920 -52.799  1.00  0.00    -0.206 F 
HETATM   23  C   UNL     1     -40.109  50.713 -54.146  1.00  0.00     0.043 A 
HETATM   24  C   UNL     1     -40.420  52.068 -54.276  1.00  0.00     0.012 A 
ENDBRANCH  17  18
ENDBRANCH   8  17
TORSDOF 3
ENDMDL
MODEL 4
REMARK VINA RESULT:      -7.6      4.082      5.089
REMARK  3 active torsions:
REMARK  status: ('A' for Active; 'I' for Inactive)
REMARK    1  A    between atoms: C_2  and  N_3 
REMARK    2  A    between atoms: N_10  and  C_11 
REMARK    3  A    between atoms: C_11  and  C_12 
ROOT
HETATM    1  N   UNL     1     -43.930  57.374 -58.123  1.00  0.00    -0.063 N 
HETATM    2  H   UNL     1     -44.522  57.595 -57.299  1.00  0.00     0.280 HD
HETATM    3  C   UNL     1     -43.239  56.082 -57.704  1.00  0.00     0.277 C 
HETATM    4  C   UNL     1     -42.865  56.130 -56.207  1.00  0.00     0.132 C 
HETATM    5  O   UNL     1     -44.093  56.496 -55.520  1.00  0.00    -0.373 OA
HETATM    6  C   UNL     1     -43.975  56.350 -54.092  1.00  0.00     0.199 C 
HETATM    7  C   UNL     1     -43.642  54.899 -53.713  1.00  0.00     0.299 C 
HETATM    8  N   UNL     1     -42.422  54.398 -54.363  1.00  0.00     0.097 N 
HETATM    9  C   UNL     1     -42.418  54.695 -55.796  1.00  0.00     0.314 C 
HETATM   10  C   UNL     1     -41.761  57.190 -55.980  1.00  0.00     0.209 C 
HETATM   11  O   UNL     1     -42.295  58.498 -55.817  1.00  0.00    -0.386 OA
HETATM   12  C   UNL     1     -42.718  59.246 -56.944  1.00  0.00     0.195 C 
HETATM   13  C   UNL     1     -42.944  58.521 -58.271  1.00  0.00     0.261 C 
ENDROOT
BRANCH   1  14
HETATM   14  C   UNL     1     -44.878  57.255 -59.312  1.00  0.00     0.180 C 
HETATM   15  C   UNL     1     -46.324  57.461 -58.867  1.00  0.00     0.039 C 
HETATM   16  C   UNL     1     -44.680  55.932 -60.042  1.00  0.00     0.039 C 
ENDBRANCH   1  14
BRANCH   8  17
HETATM   17  C   UNL     1     -41.190  54.712 -53.642  1.00  0.00     0.311 C 
BRANCH  17  18
HETATM   18  C   UNL     1     -40.607  53.463 -53.018  1.00  0.00    -0.030 A 
HETATM   19  C   UNL     1     -40.459  53.382 -51.622  1.00  0.00     0.012 A 
HETATM   20  C   UNL     1     -39.922  52.237 -51.031  1.00  0.00     0.043 A 
HETATM   21  C   UNL     1     -39.527  51.173 -51.835  1.00  0.00     0.116 A 
HETATM   22  F   UNL     1     -39.014  50.076 -51.270  1.00  0.00    -0.206 F 
HETATM   23  C   UNL     1     -39.655  51.239 -53.218  1.00  0.00     0.043 A 
HETATM   24  C   UNL     1     -40.192  52.384 -53.811  1.00  0.00     0.012 A 
ENDBRANCH  17  18
ENDBRANCH   8  17
TORSDOF 3
ENDMDL
MODEL 5
REMARK VINA RESULT:      -7.6      2.778      3.298
REMARK  3 active torsions:
REMARK  status: ('A' for Active; 'I' for Inactive)
REMARK    1  A    between atoms: C_2  and  N_3 
REMARK    2  A    between atoms: N_10  and  C_11 
REMARK    3  A    between atoms: C_11  and  C_12 
ROOT
HETATM    1  N   UNL     1     -43.192  58.809 -55.618  1.00  0.00    -0.063 N 
HETATM    2  H   UNL     1     -43.758  58.648 -54.762  1.00  0.00     0.280 HD
HETATM    3  C   UNL     1     -42.609  57.428 -55.900  1.00  0.00     0.277 C 
HETATM    4  C   UNL     1     -42.224  56.725 -54.582  1.00  0.00     0.132 C 
HETATM    5  O   UNL     1     -43.412  56.802 -53.747  1.00  0.00    -0.373 OA
HETATM    6  C   UNL     1     -43.298  55.979 -52.571  1.00  0.00     0.199 C 
HETATM    7  C   UNL     1     -43.086  54.505 -52.948  1.00  0.00     0.299 C 
HETATM    8  N   UNL     1     -41.916  54.294 -53.814  1.00  0.00     0.097 N 
HETATM    9  C   UNL     1     -41.896  55.241 -54.929  1.00  0.00     0.314 C 
HETATM   10  C   UNL     1     -41.032  57.464 -53.927  1.00  0.00     0.209 C 
HETATM   11  O   UNL     1     -41.453  58.567 -53.133  1.00  0.00    -0.386 OA
HETATM   12  C   UNL     1     -41.819  59.792 -53.744  1.00  0.00     0.195 C 
HETATM   13  C   UNL     1     -42.114  59.813 -55.244  1.00  0.00     0.261 C 
ENDROOT
BRANCH   1  14
HETATM   14  C   UNL     1     -44.154  59.343 -56.673  1.00  0.00     0.180 C 
HETATM   15  C   UNL     1     -45.465  58.562 -56.648  1.00  0.00     0.039 C 
HETATM   16  C   UNL     1     -43.508  59.346 -58.054  1.00  0.00     0.039 C 
ENDBRANCH   1  14
BRANCH   8  17
HETATM   17  C   UNL     1     -40.657  54.134 -53.088  1.00  0.00     0.311 C 
BRANCH  17  18
HETATM   18  C   UNL     1     -40.279  52.672 -52.997  1.00  0.00    -0.030 A 
HETATM   19  C   UNL     1     -39.890  52.124 -51.761  1.00  0.00     0.012 A 
HETATM   20  C   UNL     1     -39.537  50.778 -51.662  1.00  0.00     0.043 A 
HETATM   21  C   UNL     1     -39.566  49.977 -52.798  1.00  0.00     0.116 A 
HETATM   22  F   UNL     1     -39.229  48.686 -52.703  1.00  0.00    -0.206 F 
HETATM   23  C   UNL     1     -39.936  50.502 -54.031  1.00  0.00     0.043 A 
HETATM   24  C   UNL     1     -40.290  51.850 -54.133  1.00  0.00     0.012 A 
ENDBRANCH  17  18
ENDBRANCH   8  17
TORSDOF 3
ENDMDL
MODEL 6
REMARK VINA RESULT:      -7.4      5.082      6.050
REMARK  3 active torsions:
REMARK  status: ('A' for Active; 'I' for Inactive)
REMARK    1  A    between atoms: C_2  and  N_3 
REMARK    2  A    between atoms: N_10  and  C_11 
REMARK    3  A    between atoms: C_11  and  C_12 
ROOT
HETATM    1  N   UNL     1     -44.784  57.912 -59.247  1.00  0.00    -0.063 N 
HETATM    2  H   UNL     1     -45.119  58.344 -58.364  1.00  0.00     0.280 HD
HETATM    3  C   UNL     1     -44.179  56.598 -58.768  1.00  0.00     0.277 C 
HETATM    4  C   UNL     1     -43.440  56.799 -57.428  1.00  0.00     0.132 C 
HETATM    5  O   UNL     1     -44.401  57.459 -56.559  1.00  0.00    -0.373 OA
HETATM    6  C   UNL     1     -43.950  57.503 -55.193  1.00  0.00     0.199 C 
HETATM    7  C   UNL     1     -43.718  56.087 -54.643  1.00  0.00     0.299 C 
HETATM    8  N   UNL     1     -42.771  55.303 -55.451  1.00  0.00     0.097 N 
HETATM    9  C   UNL     1     -43.088  55.385 -56.877  1.00  0.00     0.314 C 
HETATM   10  C   UNL     1     -42.190  57.684 -57.650  1.00  0.00     0.209 C 
HETATM   11  O   UNL     1     -42.497  59.072 -57.609  1.00  0.00    -0.386 OA
HETATM   12  C   UNL     1     -43.091  59.709 -58.727  1.00  0.00     0.195 C 
HETATM   13  C   UNL     1     -43.731  58.847 -59.817  1.00  0.00     0.261 C 
ENDROOT
BRANCH   1  14
HETATM   14  C   UNL     1     -46.006  57.781 -60.149  1.00  0.00     0.180 C 
HETATM   15  C   UNL     1     -47.071  58.806 -59.764  1.00  0.00     0.039 C 
HETATM   16  C   UNL     1     -46.546  56.355 -60.140  1.00  0.00     0.039 C 
ENDBRANCH   1  14
BRANCH   8  17
HETATM   17  C   UNL     1     -41.369  55.510 -55.094  1.00  0.00     0.311 C 
BRANCH  17  18
HETATM   18  C   UNL     1     -40.881  54.397 -54.194  1.00  0.00    -0.030 A 
HETATM   19  C   UNL     1     -40.398  53.201 -54.756  1.00  0.00     0.012 A 
HETATM   20  C   UNL     1     -39.946  52.165 -53.939  1.00  0.00     0.043 A 
HETATM   21  C   UNL     1     -39.980  52.318 -52.557  1.00  0.00     0.116 A 
HETATM   22  F   UNL     1     -39.545  51.326 -51.773  1.00  0.00    -0.206 F 
HETATM   23  C   UNL     1     -40.465  53.487 -51.982  1.00  0.00     0.043 A 
HETATM   24  C   UNL     1     -40.918  54.526 -52.798  1.00  0.00     0.012 A 
ENDBRANCH  17  18
ENDBRANCH   8  17
TORSDOF 3
ENDMDL
MODEL 7
REMARK VINA RESULT:      -7.1     15.925     17.827
REMARK  3 active torsions:
REMARK  status: ('A' for Active; 'I' for Inactive)
REMARK    1  A    between atoms: C_2  and  N_3 
REMARK    2  A    between atoms: N_10  and  C_11 
REMARK    3  A    between atoms: C_11  and  C_12 
ROOT
HETATM    1  N   UNL     1     -38.087  39.561 -59.360  1.00  0.00    -0.063 N 
HETATM    2  H   UNL     1     -38.749  40.162 -58.831  1.00  0.00     0.280 HD
HETATM    3  C   UNL     1     -37.163  39.037 -58.267  1.00  0.00     0.277 C 
HETATM    4  C   UNL     1     -36.875  40.142 -57.228  1.00  0.00     0.132 C 
HETATM    5  O   UNL     1     -38.181  40.640 -56.830  1.00  0.00    -0.373 OA
HETATM    6  C   UNL     1     -38.100  41.512 -55.687  1.00  0.00     0.199 C 
HETATM    7  C   UNL     1     -37.490  40.782 -54.480  1.00  0.00     0.299 C 
HETATM    8  N   UNL     1     -36.164  40.210 -54.762  1.00  0.00     0.097 N 
HETATM    9  C   UNL     1     -36.157  39.466 -56.021  1.00  0.00     0.314 C 
HETATM   10  C   UNL     1     -36.026  41.260 -57.880  1.00  0.00     0.209 C 
HETATM   11  O   UNL     1     -36.826  42.213 -58.568  1.00  0.00    -0.386 OA
HETATM   12  C   UNL     1     -37.345  41.920 -59.853  1.00  0.00     0.195 C 
HETATM   13  C   UNL     1     -37.356  40.469 -60.334  1.00  0.00     0.261 C 
ENDROOT
BRANCH   1  14
HETATM   14  C   UNL     1     -38.936  38.506 -60.061  1.00  0.00     0.180 C 
HETATM   15  C   UNL     1     -38.980  37.219 -59.240  1.00  0.00     0.039 C 
HETATM   16  C   UNL     1     -38.447  38.265 -61.486  1.00  0.00     0.039 C 
ENDBRANCH   1  14
BRANCH   8  17
HETATM   17  C   UNL     1     -35.058  41.145 -54.566  1.00  0.00     0.311 C 
BRANCH  17  18
HETATM   18  C   UNL     1     -34.436  40.953 -53.200  1.00  0.00    -0.030 A 
HETATM   19  C   UNL     1     -34.886  41.720 -52.111  1.00  0.00     0.012 A 
HETATM   20  C   UNL     1     -34.322  41.556 -50.845  1.00  0.00     0.043 A 
HETATM   21  C   UNL     1     -33.301  40.628 -50.667  1.00  0.00     0.116 A 
HETATM   22  F   UNL     1     -32.761  40.468 -49.454  1.00  0.00    -0.206 F 
HETATM   23  C   UNL     1     -32.834  39.868 -51.734  1.00  0.00     0.043 A 
HETATM   24  C   UNL     1     -33.398  40.032 -53.001  1.00  0.00     0.012 A 
ENDBRANCH  17  18
ENDBRANCH   8  17
TORSDOF 3
ENDMDL
MODEL 8
REMARK VINA RESULT:      -7.0     15.440     17.651
REMARK  3 active torsions:
REMARK  status: ('A' for Active; 'I' for Inactive)
REMARK    1  A    between atoms: C_2  and  N_3 
REMARK    2  A    between atoms: N_10  and  C_11 
REMARK    3  A    between atoms: C_11  and  C_12 
ROOT
HETATM    1  N   UNL     1     -34.314  39.366 -51.011  1.00  0.00    -0.063 N 
HETATM    2  H   UNL     1     -34.369  40.397 -50.901  1.00  0.00     0.280 HD
HETATM    3  C   UNL     1     -34.431  39.182 -52.520  1.00  0.00     0.277 C 
HETATM    4  C   UNL     1     -35.448  40.183 -53.109  1.00  0.00     0.132 C 
HETATM    5  O   UNL     1     -35.031  41.485 -52.614  1.00  0.00    -0.373 OA
HETATM    6  C   UNL     1     -35.734  42.559 -53.266  1.00  0.00     0.199 C 
HETATM    7  C   UNL     1     -35.492  42.535 -54.783  1.00  0.00     0.299 C 
HETATM    8  N   UNL     1     -35.859  41.254 -55.406  1.00  0.00     0.097 N 
HETATM    9  C   UNL     1     -35.314  40.120 -54.660  1.00  0.00     0.314 C 
HETATM   10  C   UNL     1     -36.872  39.829 -52.616  1.00  0.00     0.209 C 
HETATM   11  O   UNL     1     -37.158  40.395 -51.343  1.00  0.00    -0.386 OA
HETATM   12  C   UNL     1     -36.650  39.798 -50.162  1.00  0.00     0.195 C 
HETATM   13  C   UNL     1     -35.510  38.785 -50.275  1.00  0.00     0.261 C 
ENDROOT
BRANCH   1  14
HETATM   14  C   UNL     1     -32.984  38.940 -50.400  1.00  0.00     0.180 C 
HETATM   15  C   UNL     1     -32.441  40.034 -49.483  1.00  0.00     0.039 C 
HETATM   16  C   UNL     1     -31.984  38.544 -51.481  1.00  0.00     0.039 C 
ENDBRANCH   1  14
BRANCH   8  17
HETATM   17  C   UNL     1     -37.269  41.156 -55.780  1.00  0.00     0.311 C 
BRANCH  17  18
HETATM   18  C   UNL     1     -37.407  40.906 -57.266  1.00  0.00    -0.030 A 
HETATM   19  C   UNL     1     -37.828  39.646 -57.729  1.00  0.00     0.012 A 
HETATM   20  C   UNL     1     -37.958  39.400 -59.096  1.00  0.00     0.043 A 
HETATM   21  C   UNL     1     -37.663  40.411 -60.005  1.00  0.00     0.116 A 
HETATM   22  F   UNL     1     -37.790  40.176 -61.315  1.00  0.00    -0.206 F 
HETATM   23  C   UNL     1     -37.234  41.659 -59.567  1.00  0.00     0.043 A 
HETATM   24  C   UNL     1     -37.103  41.908 -58.199  1.00  0.00     0.012 A 
ENDBRANCH  17  18
ENDBRANCH   8  17
TORSDOF 3
ENDMDL
MODEL 9
REMARK VINA RESULT:      -6.9     16.052     18.301
REMARK  3 active torsions:
REMARK  status: ('A' for Active; 'I' for Inactive)
REMARK    1  A    between atoms: C_2  and  N_3 
REMARK    2  A    between atoms: N_10  and  C_11 
REMARK    3  A    between atoms: C_11  and  C_12 
ROOT
HETATM    1  N   UNL     1     -38.154  39.412 -59.267  1.00  0.00    -0.063 N 
HETATM    2  H   UNL     1     -38.769  40.052 -58.728  1.00  0.00     0.280 HD
HETATM    3  C   UNL     1     -37.149  38.949 -58.219  1.00  0.00     0.277 C 
HETATM    4  C   UNL     1     -36.775  40.113 -57.277  1.00  0.00     0.132 C 
HETATM    5  O   UNL     1     -38.044  40.648 -56.811  1.00  0.00    -0.373 OA
HETATM    6  C   UNL     1     -37.869  41.588 -55.734  1.00  0.00     0.199 C 
HETATM    7  C   UNL     1     -37.170  40.929 -54.536  1.00  0.00     0.299 C 
HETATM    8  N   UNL     1     -35.873  40.328 -54.883  1.00  0.00     0.097 N 
HETATM    9  C   UNL     1     -35.969  39.506 -56.090  1.00  0.00     0.314 C 
HETATM   10  C   UNL     1     -35.975  41.180 -58.062  1.00  0.00     0.209 C 
HETATM   11  O   UNL     1     -36.821  42.096 -58.744  1.00  0.00    -0.386 OA
HETATM   12  C   UNL     1     -37.441  41.729 -59.965  1.00  0.00     0.195 C 
HETATM   13  C   UNL     1     -37.497  40.250 -60.351  1.00  0.00     0.261 C 
ENDROOT
BRANCH   1  14
HETATM   14  C   UNL     1     -39.061  38.324 -59.833  1.00  0.00     0.180 C 
HETATM   15  C   UNL     1     -38.820  36.998 -59.115  1.00  0.00     0.039 C 
HETATM   16  C   UNL     1     -38.896  38.202 -61.344  1.00  0.00     0.039 C 
ENDBRANCH   1  14
BRANCH   8  17
HETATM   17  C   UNL     1     -34.750  41.262 -54.833  1.00  0.00     0.311 C 
BRANCH  17  18
HETATM   18  C   UNL     1     -33.440  40.526 -55.006  1.00  0.00    -0.030 A 
HETATM   19  C   UNL     1     -32.891  39.809 -53.928  1.00  0.00     0.012 A 
HETATM   20  C   UNL     1     -31.682  39.127 -54.071  1.00  0.00     0.043 A 
HETATM   21  C   UNL     1     -31.016  39.165 -55.292  1.00  0.00     0.116 A 
HETATM   22  F   UNL     1     -29.859  38.510 -55.431  1.00  0.00    -0.206 F 
HETATM   23  C   UNL     1     -31.536  39.878 -56.366  1.00  0.00     0.043 A 
HETATM   24  C   UNL     1     -32.746  40.561 -56.224  1.00  0.00     0.012 A 
ENDBRANCH  17  18
ENDBRANCH   8  17
TORSDOF 3
ENDMDL
MODEL 10
REMARK VINA RESULT:      -6.7      5.453      7.936
REMARK  3 active torsions:
REMARK  status: ('A' for Active; 'I' for Inactive)
REMARK    1  A    between atoms: C_2  and  N_3 
REMARK    2  A    between atoms: N_10  and  C_11 
REMARK    3  A    between atoms: C_11  and  C_12 
ROOT
HETATM    1  N   UNL     1     -41.587  54.317 -53.457  1.00  0.00    -0.063 N 
HETATM    2  H   UNL     1     -41.197  55.266 -53.300  1.00  0.00     0.280 HD
HETATM    3  C   UNL     1     -42.103  54.399 -54.889  1.00  0.00     0.277 C 
HETATM    4  C   UNL     1     -42.737  55.780 -55.158  1.00  0.00     0.132 C 
HETATM    5  O   UNL     1     -41.733  56.746 -54.743  1.00  0.00    -0.373 OA
HETATM    6  C   UNL     1     -42.073  58.085 -55.151  1.00  0.00     0.199 C 
HETATM    7  C   UNL     1     -42.207  58.177 -56.678  1.00  0.00     0.299 C 
HETATM    8  N   UNL     1     -43.186  57.229 -57.230  1.00  0.00     0.097 N 
HETATM    9  C   UNL     1     -42.990  55.882 -56.692  1.00  0.00     0.314 C 
HETATM   10  C   UNL     1     -44.033  55.929 -54.325  1.00  0.00     0.209 C 
HETATM   11  O   UNL     1     -43.775  56.382 -53.002  1.00  0.00    -0.386 OA
HETATM   12  C   UNL     1     -43.297  55.483 -52.016  1.00  0.00     0.195 C 
HETATM   13  C   UNL     1     -42.717  54.139 -52.457  1.00  0.00     0.261 C 
ENDROOT
BRANCH   1  14
HETATM   14  C   UNL     1     -40.439  53.340 -53.228  1.00  0.00     0.180 C 
HETATM   15  C   UNL     1     -40.515  52.181 -54.219  1.00  0.00     0.039 C 
HETATM   16  C   UNL     1     -40.404  52.863 -51.781  1.00  0.00     0.039 C 
ENDBRANCH   1  14
BRANCH   8  17
HETATM   17  C   UNL     1     -44.562  57.724 -57.229  1.00  0.00     0.311 C 
BRANCH  17  18
HETATM   18  C   UNL     1     -45.288  57.276 -58.478  1.00  0.00    -0.030 A 
HETATM   19  C   UNL     1     -44.622  56.482 -59.429  1.00  0.00     0.012 A 
HETATM   20  C   UNL     1     -45.277  56.063 -60.587  1.00  0.00     0.043 A 
HETATM   21  C   UNL     1     -46.599  56.441 -60.801  1.00  0.00     0.116 A 
HETATM   22  F   UNL     1     -47.228  56.038 -61.909  1.00  0.00    -0.206 F 
HETATM   23  C   UNL     1     -47.271  57.235 -59.878  1.00  0.00     0.043 A 
HETATM   24  C   UNL     1     -46.616  57.655 -58.718  1.00  0.00     0.012 A 
ENDBRANCH  17  18
ENDBRANCH   8  17
TORSDOF 3
ENDMDL
