MODEL 1
REMARK VINA RESULT:      -7.3      0.000      0.000
REMARK  4 active torsions:
REMARK  status: ('A' for Active; 'I' for Inactive)
REMARK    1  A    between atoms: S_2  and  N_3 
REMARK    2  A    between atoms: N_3  and  N_4 
REMARK    3  A    between atoms: C_10  and  C_11 
REMARK    4  A    between atoms: C_12  and  O_13 
ROOT
HETATM    1  N   UNL     1     -43.134  56.272 -54.416  1.00  0.00    -0.241 N 
HETATM    2  C   UNL     1     -42.324  55.450 -55.180  1.00  0.00     0.272 C 
HETATM    3  O   UNL     1     -42.376  55.439 -56.409  1.00  0.00    -0.266 OA
HETATM    4  C   UNL     1     -41.512  54.473 -54.436  1.00  0.00     0.054 A 
HETATM    5  C   UNL     1     -41.855  54.235 -53.099  1.00  0.00     0.026 A 
HETATM    6  N   UNL     1     -42.883  54.965 -52.443  1.00  0.00    -0.265 NA
HETATM    7  C   UNL     1     -43.024  56.352 -52.956  1.00  0.00     0.219 C 
HETATM    8  C   UNL     1     -40.552  53.697 -55.090  1.00  0.00     0.019 A 
HETATM    9  C   UNL     1     -39.931  52.655 -54.403  1.00  0.00     0.001 A 
HETATM   10  C   UNL     1     -40.295  52.377 -53.084  1.00  0.00     0.002 A 
HETATM   11  C   UNL     1     -41.265  53.153 -52.442  1.00  0.00     0.024 A 
HETATM   12  H   UNL     1     -43.768  54.489 -52.638  1.00  0.00     0.130 HD
ENDROOT
BRANCH   7  13
HETATM   13  C   UNL     1     -41.893  57.254 -52.448  1.00  0.00     0.014 A 
HETATM   14  C   UNL     1     -41.569  57.383 -51.086  1.00  0.00     0.075 A 
HETATM   15  C   UNL     1     -40.575  58.258 -50.644  1.00  0.00     0.037 A 
HETATM   16  C   UNL     1     -39.892  59.056 -51.555  1.00  0.00     0.003 A 
HETATM   17  C   UNL     1     -40.210  58.979 -52.905  1.00  0.00     0.001 A 
HETATM   18  C   UNL     1     -41.199  58.093 -53.344  1.00  0.00     0.013 A 
BRANCH  14  19
HETATM   19  O   UNL     1     -42.201  56.671 -50.102  1.00  0.00    -0.360 OA
HETATM   20  H   UNL     1     -41.652  55.881 -49.919  1.00  0.00     0.217 HD
ENDBRANCH  14  19
ENDBRANCH   7  13
BRANCH   1  21
HETATM   21  N   UNL     1     -44.478  56.512 -55.013  1.00  0.00    -0.123 NA
HETATM   22  H   UNL     1     -44.649  55.921 -55.840  1.00  0.00     0.165 HD
BRANCH  21  23
HETATM   23  S   UNL     1     -44.997  58.100 -55.301  1.00  0.00     0.222 S 
HETATM   24  C   UNL     1     -43.566  58.782 -56.112  1.00  0.00     0.181 C 
HETATM   25  O   UNL     1     -45.177  58.766 -54.032  1.00  0.00    -0.210 OA
HETATM   26  O   UNL     1     -46.064  58.017 -56.274  1.00  0.00    -0.210 OA
ENDBRANCH  21  23
ENDBRANCH   1  21
TORSDOF 4
ENDMDL
MODEL 2
REMARK VINA RESULT:      -7.1      2.891      5.197
REMARK  4 active torsions:
REMARK  status: ('A' for Active; 'I' for Inactive)
REMARK    1  A    between atoms: S_2  and  N_3 
REMARK    2  A    between atoms: N_3  and  N_4 
REMARK    3  A    between atoms: C_10  and  C_11 
REMARK    4  A    between atoms: C_12  and  O_13 
ROOT
HETATM    1  N   UNL     1     -42.757  58.468 -55.548  1.00  0.00    -0.241 N 
HETATM    2  C   UNL     1     -42.186  58.791 -56.767  1.00  0.00     0.272 C 
HETATM    3  O   UNL     1     -41.520  59.812 -56.927  1.00  0.00    -0.266 OA
HETATM    4  C   UNL     1     -42.556  57.928 -57.900  1.00  0.00     0.054 A 
HETATM    5  C   UNL     1     -43.666  57.089 -57.736  1.00  0.00     0.026 A 
HETATM    6  N   UNL     1     -44.362  56.992 -56.502  1.00  0.00    -0.265 NA
HETATM    7  C   UNL     1     -43.484  57.214 -55.324  1.00  0.00     0.219 C 
HETATM    8  C   UNL     1     -41.928  58.069 -59.140  1.00  0.00     0.019 A 
HETATM    9  C   UNL     1     -42.422  57.371 -60.241  1.00  0.00     0.001 A 
HETATM   10  C   UNL     1     -43.554  56.566 -60.103  1.00  0.00     0.002 A 
HETATM   11  C   UNL     1     -44.182  56.440 -58.860  1.00  0.00     0.024 A 
HETATM   12  H   UNL     1     -45.065  57.738 -56.489  1.00  0.00     0.130 HD
ENDROOT
BRANCH   7  13
HETATM   13  C   UNL     1     -42.592  55.997 -55.054  1.00  0.00     0.014 A 
HETATM   14  C   UNL     1     -43.104  54.734 -54.709  1.00  0.00     0.075 A 
HETATM   15  C   UNL     1     -42.270  53.657 -54.407  1.00  0.00     0.037 A 
HETATM   16  C   UNL     1     -40.888  53.821 -54.415  1.00  0.00     0.003 A 
HETATM   17  C   UNL     1     -40.349  55.064 -54.718  1.00  0.00     0.001 A 
HETATM   18  C   UNL     1     -41.190  56.138 -55.030  1.00  0.00     0.013 A 
BRANCH  14  19
HETATM   19  O   UNL     1     -44.446  54.470 -54.639  1.00  0.00    -0.360 OA
HETATM   20  H   UNL     1     -44.869  55.240 -54.204  1.00  0.00     0.217 HD
ENDBRANCH  14  19
ENDBRANCH   7  13
BRANCH   1  21
HETATM   21  N   UNL     1     -43.181  59.654 -54.752  1.00  0.00    -0.123 NA
HETATM   22  H   UNL     1     -43.381  60.472 -55.346  1.00  0.00     0.165 HD
BRANCH  21  23
HETATM   23  S   UNL     1     -42.282  60.117 -53.390  1.00  0.00     0.222 S 
HETATM   24  C   UNL     1     -42.964  59.035 -52.150  1.00  0.00     0.181 C 
HETATM   25  O   UNL     1     -42.618  61.481 -53.055  1.00  0.00    -0.210 OA
HETATM   26  O   UNL     1     -40.918  59.709 -53.637  1.00  0.00    -0.210 OA
ENDBRANCH  21  23
ENDBRANCH   1  21
TORSDOF 4
ENDMDL
MODEL 3
REMARK VINA RESULT:      -7.1      1.622      1.882
REMARK  4 active torsions:
REMARK  status: ('A' for Active; 'I' for Inactive)
REMARK    1  A    between atoms: S_2  and  N_3 
REMARK    2  A    between atoms: N_3  and  N_4 
REMARK    3  A    between atoms: C_10  and  C_11 
REMARK    4  A    between atoms: C_12  and  O_13 
ROOT
HETATM    1  N   UNL     1     -42.737  55.830 -54.658  1.00  0.00    -0.241 N 
HETATM    2  C   UNL     1     -41.730  54.882 -54.657  1.00  0.00     0.272 C 
HETATM    3  O   UNL     1     -41.211  54.478 -55.696  1.00  0.00    -0.266 OA
HETATM    4  C   UNL     1     -41.426  54.264 -53.355  1.00  0.00     0.054 A 
HETATM    5  C   UNL     1     -42.364  54.433 -52.328  1.00  0.00     0.026 A 
HETATM    6  N   UNL     1     -43.521  55.242 -52.488  1.00  0.00    -0.265 NA
HETATM    7  C   UNL     1     -43.307  56.378 -53.422  1.00  0.00     0.219 C 
HETATM    8  C   UNL     1     -40.333  53.407 -53.209  1.00  0.00     0.019 A 
HETATM    9  C   UNL     1     -40.177  52.694 -52.022  1.00  0.00     0.001 A 
HETATM   10  C   UNL     1     -41.127  52.818 -51.006  1.00  0.00     0.002 A 
HETATM   11  C   UNL     1     -42.224  53.670 -51.166  1.00  0.00     0.024 A 
HETATM   12  H   UNL     1     -44.249  54.654 -52.904  1.00  0.00     0.130 HD
ENDROOT
BRANCH   7  13
HETATM   13  C   UNL     1     -42.474  57.488 -52.771  1.00  0.00     0.014 A 
HETATM   14  C   UNL     1     -42.798  58.060 -51.528  1.00  0.00     0.075 A 
HETATM   15  C   UNL     1     -42.059  59.112 -50.985  1.00  0.00     0.037 A 
HETATM   16  C   UNL     1     -40.984  59.646 -51.688  1.00  0.00     0.003 A 
HETATM   17  C   UNL     1     -40.657  59.127 -52.934  1.00  0.00     0.001 A 
HETATM   18  C   UNL     1     -41.394  58.065 -53.469  1.00  0.00     0.013 A 
BRANCH  14  19
HETATM   19  O   UNL     1     -43.855  57.635 -50.768  1.00  0.00    -0.360 OA
HETATM   20  H   UNL     1     -44.088  56.735 -51.074  1.00  0.00     0.217 HD
ENDBRANCH  14  19
ENDBRANCH   7  13
BRANCH   1  21
HETATM   21  N   UNL     1     -43.634  55.752 -55.845  1.00  0.00    -0.123 NA
HETATM   22  H   UNL     1     -43.696  54.795 -56.224  1.00  0.00     0.165 HD
BRANCH  21  23
HETATM   23  S   UNL     1     -43.463  56.877 -57.102  1.00  0.00     0.222 S 
HETATM   24  C   UNL     1     -43.348  55.796 -58.512  1.00  0.00     0.181 C 
HETATM   25  O   UNL     1     -42.204  57.567 -56.938  1.00  0.00    -0.210 OA
HETATM   26  O   UNL     1     -44.716  57.594 -57.189  1.00  0.00    -0.210 OA
ENDBRANCH  21  23
ENDBRANCH   1  21
TORSDOF 4
ENDMDL
MODEL 4
REMARK VINA RESULT:      -7.0      2.858      6.199
REMARK  4 active torsions:
REMARK  status: ('A' for Active; 'I' for Inactive)
REMARK    1  A    between atoms: S_2  and  N_3 
REMARK    2  A    between atoms: N_3  and  N_4 
REMARK    3  A    between atoms: C_10  and  C_11 
REMARK    4  A    between atoms: C_12  and  O_13 
ROOT
HETATM    1  N   UNL     1     -42.095  56.165 -50.973  1.00  0.00    -0.241 N 
HETATM    2  C   UNL     1     -41.747  57.505 -50.963  1.00  0.00     0.272 C 
HETATM    3  O   UNL     1     -40.879  57.950 -50.213  1.00  0.00    -0.266 OA
HETATM    4  C   UNL     1     -42.585  58.395 -51.782  1.00  0.00     0.054 A 
HETATM    5  C   UNL     1     -43.817  57.894 -52.224  1.00  0.00     0.026 A 
HETATM    6  N   UNL     1     -44.216  56.552 -51.980  1.00  0.00    -0.265 NA
HETATM    7  C   UNL     1     -43.070  55.610 -51.918  1.00  0.00     0.219 C 
HETATM    8  C   UNL     1     -42.238  59.735 -51.964  1.00  0.00     0.019 A 
HETATM    9  C   UNL     1     -43.140  60.597 -52.586  1.00  0.00     0.001 A 
HETATM   10  C   UNL     1     -44.389  60.123 -52.992  1.00  0.00     0.002 A 
HETATM   11  C   UNL     1     -44.731  58.782 -52.796  1.00  0.00     0.024 A 
HETATM   12  H   UNL     1     -44.665  56.530 -51.059  1.00  0.00     0.130 HD
ENDROOT
BRANCH   7  13
HETATM   13  C   UNL     1     -42.510  55.316 -53.314  1.00  0.00     0.014 A 
HETATM   14  C   UNL     1     -43.325  54.982 -54.411  1.00  0.00     0.075 A 
HETATM   15  C   UNL     1     -42.787  54.659 -55.658  1.00  0.00     0.037 A 
HETATM   16  C   UNL     1     -41.409  54.631 -55.838  1.00  0.00     0.003 A 
HETATM   17  C   UNL     1     -40.573  54.923 -54.767  1.00  0.00     0.001 A 
HETATM   18  C   UNL     1     -41.117  55.257 -53.522  1.00  0.00     0.013 A 
BRANCH  14  19
HETATM   19  O   UNL     1     -44.691  54.946 -54.337  1.00  0.00    -0.360 OA
HETATM   20  H   UNL     1     -44.946  55.361 -53.487  1.00  0.00     0.217 HD
ENDBRANCH  14  19
ENDBRANCH   7  13
BRANCH   1  21
HETATM   21  N   UNL     1     -41.986  55.508 -49.640  1.00  0.00    -0.123 NA
HETATM   22  H   UNL     1     -42.026  56.186 -48.866  1.00  0.00     0.165 HD
BRANCH  21  23
HETATM   23  S   UNL     1     -40.763  54.366 -49.365  1.00  0.00     0.222 S 
HETATM   24  C   UNL     1     -41.208  53.102 -50.539  1.00  0.00     0.181 C 
HETATM   25  O   UNL     1     -40.915  53.836 -48.029  1.00  0.00    -0.210 OA
HETATM   26  O   UNL     1     -39.526  54.969 -49.807  1.00  0.00    -0.210 OA
ENDBRANCH  21  23
ENDBRANCH   1  21
TORSDOF 4
ENDMDL
MODEL 5
REMARK VINA RESULT:      -6.9      2.976      4.596
REMARK  4 active torsions:
REMARK  status: ('A' for Active; 'I' for Inactive)
REMARK    1  A    between atoms: S_2  and  N_3 
REMARK    2  A    between atoms: N_3  and  N_4 
REMARK    3  A    between atoms: C_10  and  C_11 
REMARK    4  A    between atoms: C_12  and  O_13 
ROOT
HETATM    1  N   UNL     1     -43.173  58.426 -51.291  1.00  0.00    -0.241 N 
HETATM    2  C   UNL     1     -42.588  58.944 -52.433  1.00  0.00     0.272 C 
HETATM    3  O   UNL     1     -42.091  60.069 -52.460  1.00  0.00    -0.266 OA
HETATM    4  C   UNL     1     -42.739  58.141 -53.657  1.00  0.00     0.054 A 
HETATM    5  C   UNL     1     -43.703  57.125 -53.646  1.00  0.00     0.026 A 
HETATM    6  N   UNL     1     -44.451  56.807 -52.480  1.00  0.00    -0.265 NA
HETATM    7  C   UNL     1     -43.697  57.057 -51.225  1.00  0.00     0.219 C 
HETATM    8  C   UNL     1     -42.066  58.492 -54.830  1.00  0.00     0.019 A 
HETATM    9  C   UNL     1     -42.368  57.828 -56.017  1.00  0.00     0.001 A 
HETATM   10  C   UNL     1     -43.359  56.844 -56.031  1.00  0.00     0.002 A 
HETATM   11  C   UNL     1     -44.035  56.507 -54.855  1.00  0.00     0.024 A 
HETATM   12  H   UNL     1     -45.266  57.427 -52.462  1.00  0.00     0.130 HD
ENDROOT
BRANCH   7  13
HETATM   13  C   UNL     1     -42.635  55.977 -50.985  1.00  0.00     0.014 A 
HETATM   14  C   UNL     1     -42.865  54.611 -51.225  1.00  0.00     0.075 A 
HETATM   15  C   UNL     1     -41.903  53.640 -50.941  1.00  0.00     0.037 A 
HETATM   16  C   UNL     1     -40.686  54.008 -50.377  1.00  0.00     0.003 A 
HETATM   17  C   UNL     1     -40.438  55.345 -50.095  1.00  0.00     0.001 A 
HETATM   18  C   UNL     1     -41.402  56.316 -50.392  1.00  0.00     0.013 A 
BRANCH  14  19
HETATM   19  O   UNL     1     -44.038  54.135 -51.746  1.00  0.00    -0.360 OA
HETATM   20  H   UNL     1     -44.180  53.242 -51.370  1.00  0.00     0.217 HD
ENDBRANCH  14  19
ENDBRANCH   7  13
BRANCH   1  21
HETATM   21  N   UNL     1     -43.836  59.451 -50.438  1.00  0.00    -0.123 NA
HETATM   22  H   UNL     1     -43.581  59.357 -49.444  1.00  0.00     0.165 HD
BRANCH  21  23
HETATM   23  S   UNL     1     -45.502  59.727 -50.598  1.00  0.00     0.222 S 
HETATM   24  C   UNL     1     -45.611  61.436 -50.109  1.00  0.00     0.181 C 
HETATM   25  O   UNL     1     -46.201  58.918 -49.627  1.00  0.00    -0.210 OA
HETATM   26  O   UNL     1     -45.801  59.647 -52.010  1.00  0.00    -0.210 OA
ENDBRANCH  21  23
ENDBRANCH   1  21
TORSDOF 4
ENDMDL
MODEL 6
REMARK VINA RESULT:      -6.6     16.132     18.439
REMARK  4 active torsions:
REMARK  status: ('A' for Active; 'I' for Inactive)
REMARK    1  A    between atoms: S_2  and  N_3 
REMARK    2  A    between atoms: N_3  and  N_4 
REMARK    3  A    between atoms: C_10  and  C_11 
REMARK    4  A    between atoms: C_12  and  O_13 
ROOT
HETATM    1  N   UNL     1     -33.781  39.937 -56.568  1.00  0.00    -0.241 N 
HETATM    2  C   UNL     1     -34.525  39.264 -57.522  1.00  0.00     0.272 C 
HETATM    3  O   UNL     1     -34.158  38.192 -58.000  1.00  0.00    -0.266 OA
HETATM    4  C   UNL     1     -35.697  39.981 -58.049  1.00  0.00     0.054 A 
HETATM    5  C   UNL     1     -35.775  41.358 -57.803  1.00  0.00     0.026 A 
HETATM    6  N   UNL     1     -34.819  42.035 -56.999  1.00  0.00    -0.265 NA
HETATM    7  C   UNL     1     -34.247  41.174 -55.932  1.00  0.00     0.219 C 
HETATM    8  C   UNL     1     -36.600  39.343 -58.903  1.00  0.00     0.019 A 
HETATM    9  C   UNL     1     -37.592  40.092 -59.533  1.00  0.00     0.001 A 
HETATM   10  C   UNL     1     -37.655  41.472 -59.332  1.00  0.00     0.002 A 
HETATM   11  C   UNL     1     -36.739  42.104 -58.485  1.00  0.00     0.024 A 
HETATM   12  H   UNL     1     -34.041  42.302 -57.609  1.00  0.00     0.130 HD
ENDROOT
BRANCH   7  13
HETATM   13  C   UNL     1     -35.244  40.967 -54.786  1.00  0.00     0.014 A 
HETATM   14  C   UNL     1     -35.673  42.011 -53.946  1.00  0.00     0.075 A 
HETATM   15  C   UNL     1     -36.533  41.786 -52.871  1.00  0.00     0.037 A 
HETATM   16  C   UNL     1     -36.970  40.497 -52.584  1.00  0.00     0.003 A 
HETATM   17  C   UNL     1     -36.539  39.437 -53.372  1.00  0.00     0.001 A 
HETATM   18  C   UNL     1     -35.684  39.670 -54.455  1.00  0.00     0.013 A 
BRANCH  14  19
HETATM   19  O   UNL     1     -35.279  43.311 -54.117  1.00  0.00    -0.360 OA
HETATM   20  H   UNL     1     -34.492  43.451 -53.551  1.00  0.00     0.217 HD
ENDBRANCH  14  19
ENDBRANCH   7  13
BRANCH   1  21
HETATM   21  N   UNL     1     -32.310  39.762 -56.722  1.00  0.00    -0.123 NA
HETATM   22  H   UNL     1     -32.067  39.210 -57.558  1.00  0.00     0.165 HD
BRANCH  21  23
HETATM   23  S   UNL     1     -31.380  39.265 -55.394  1.00  0.00     0.222 S 
HETATM   24  C   UNL     1     -32.213  37.756 -54.943  1.00  0.00     0.181 C 
HETATM   25  O   UNL     1     -31.545  40.226 -54.327  1.00  0.00    -0.210 OA
HETATM   26  O   UNL     1     -30.074  38.918 -55.908  1.00  0.00    -0.210 OA
ENDBRANCH  21  23
ENDBRANCH   1  21
TORSDOF 4
ENDMDL
MODEL 7
REMARK VINA RESULT:      -6.5      1.182      4.563
REMARK  4 active torsions:
REMARK  status: ('A' for Active; 'I' for Inactive)
REMARK    1  A    between atoms: S_2  and  N_3 
REMARK    2  A    between atoms: N_3  and  N_4 
REMARK    3  A    between atoms: C_10  and  C_11 
REMARK    4  A    between atoms: C_12  and  O_13 
ROOT
HETATM    1  N   UNL     1     -43.440  56.330 -53.655  1.00  0.00    -0.241 N 
HETATM    2  C   UNL     1     -43.441  57.058 -52.478  1.00  0.00     0.272 C 
HETATM    3  O   UNL     1     -44.476  57.293 -51.856  1.00  0.00    -0.266 OA
HETATM    4  C   UNL     1     -42.159  57.673 -52.099  1.00  0.00     0.054 A 
HETATM    5  C   UNL     1     -41.165  57.750 -53.083  1.00  0.00     0.026 A 
HETATM    6  N   UNL     1     -41.336  57.180 -54.373  1.00  0.00    -0.265 NA
HETATM    7  C   UNL     1     -42.204  55.975 -54.362  1.00  0.00     0.219 C 
HETATM    8  C   UNL     1     -42.007  58.303 -50.861  1.00  0.00     0.019 A 
HETATM    9  C   UNL     1     -40.849  59.034 -50.603  1.00  0.00     0.001 A 
HETATM   10  C   UNL     1     -39.870  59.158 -51.590  1.00  0.00     0.002 A 
HETATM   11  C   UNL     1     -40.036  58.533 -52.830  1.00  0.00     0.024 A 
HETATM   12  H   UNL     1     -41.809  57.878 -54.955  1.00  0.00     0.130 HD
ENDROOT
BRANCH   7  13
HETATM   13  C   UNL     1     -41.467  54.759 -53.790  1.00  0.00     0.014 A 
HETATM   14  C   UNL     1     -40.568  53.984 -54.544  1.00  0.00     0.075 A 
HETATM   15  C   UNL     1     -39.956  52.845 -54.019  1.00  0.00     0.037 A 
HETATM   16  C   UNL     1     -40.250  52.428 -52.725  1.00  0.00     0.003 A 
HETATM   17  C   UNL     1     -41.159  53.151 -51.964  1.00  0.00     0.001 A 
HETATM   18  C   UNL     1     -41.762  54.298 -52.491  1.00  0.00     0.013 A 
BRANCH  14  19
HETATM   19  O   UNL     1     -40.234  54.283 -55.838  1.00  0.00    -0.360 OA
HETATM   20  H   UNL     1     -41.062  54.270 -56.361  1.00  0.00     0.217 HD
ENDBRANCH  14  19
ENDBRANCH   7  13
BRANCH   1  21
HETATM   21  N   UNL     1     -44.666  56.520 -54.479  1.00  0.00    -0.123 NA
HETATM   22  H   UNL     1     -44.955  55.653 -54.956  1.00  0.00     0.165 HD
BRANCH  21  23
HETATM   23  S   UNL     1     -44.770  57.841 -55.538  1.00  0.00     0.222 S 
HETATM   24  C   UNL     1     -43.980  57.174 -56.989  1.00  0.00     0.181 C 
HETATM   25  O   UNL     1     -43.958  58.917 -55.018  1.00  0.00    -0.210 OA
HETATM   26  O   UNL     1     -46.172  58.023 -55.837  1.00  0.00    -0.210 OA
ENDBRANCH  21  23
ENDBRANCH   1  21
TORSDOF 4
ENDMDL
MODEL 8
REMARK VINA RESULT:      -6.4      3.542      5.118
REMARK  4 active torsions:
REMARK  status: ('A' for Active; 'I' for Inactive)
REMARK    1  A    between atoms: S_2  and  N_3 
REMARK    2  A    between atoms: N_3  and  N_4 
REMARK    3  A    between atoms: C_10  and  C_11 
REMARK    4  A    between atoms: C_12  and  O_13 
ROOT
HETATM    1  N   UNL     1     -42.731  55.481 -50.738  1.00  0.00    -0.241 N 
HETATM    2  C   UNL     1     -43.220  54.648 -51.729  1.00  0.00     0.272 C 
HETATM    3  O   UNL     1     -43.782  53.585 -51.472  1.00  0.00    -0.266 OA
HETATM    4  C   UNL     1     -42.887  55.027 -53.112  1.00  0.00     0.054 A 
HETATM    5  C   UNL     1     -41.867  55.970 -53.294  1.00  0.00     0.026 A 
HETATM    6  N   UNL     1     -41.232  56.615 -52.199  1.00  0.00    -0.265 NA
HETATM    7  C   UNL     1     -42.133  56.788 -51.030  1.00  0.00     0.219 C 
HETATM    8  C   UNL     1     -43.449  54.345 -54.194  1.00  0.00     0.019 A 
HETATM    9  C   UNL     1     -42.978  54.598 -55.481  1.00  0.00     0.001 A 
HETATM   10  C   UNL     1     -41.932  55.503 -55.674  1.00  0.00     0.002 A 
HETATM   11  C   UNL     1     -41.368  56.171 -54.583  1.00  0.00     0.024 A 
HETATM   12  H   UNL     1     -40.465  56.010 -51.891  1.00  0.00     0.130 HD
ENDROOT
BRANCH   7  13
HETATM   13  C   UNL     1     -43.144  57.916 -51.264  1.00  0.00     0.014 A 
HETATM   14  C   UNL     1     -42.764  59.228 -51.601  1.00  0.00     0.075 A 
HETATM   15  C   UNL     1     -43.700  60.252 -51.749  1.00  0.00     0.037 A 
HETATM   16  C   UNL     1     -45.051  59.999 -51.535  1.00  0.00     0.003 A 
HETATM   17  C   UNL     1     -45.458  58.723 -51.169  1.00  0.00     0.001 A 
HETATM   18  C   UNL     1     -44.517  57.697 -51.032  1.00  0.00     0.013 A 
BRANCH  14  19
HETATM   19  O   UNL     1     -41.460  59.595 -51.801  1.00  0.00    -0.360 OA
HETATM   20  H   UNL     1     -40.911  59.054 -51.195  1.00  0.00     0.217 HD
ENDBRANCH  14  19
ENDBRANCH   7  13
BRANCH   1  21
HETATM   21  N   UNL     1     -42.231  54.755 -49.537  1.00  0.00    -0.123 NA
HETATM   22  H   UNL     1     -42.377  55.290 -48.669  1.00  0.00     0.165 HD
BRANCH  21  23
HETATM   23  S   UNL     1     -40.681  54.068 -49.557  1.00  0.00     0.222 S 
HETATM   24  C   UNL     1     -40.423  53.764 -47.821  1.00  0.00     0.181 C 
HETATM   25  O   UNL     1     -39.737  55.068 -50.001  1.00  0.00    -0.210 OA
HETATM   26  O   UNL     1     -40.802  52.790 -50.221  1.00  0.00    -0.210 OA
ENDBRANCH  21  23
ENDBRANCH   1  21
TORSDOF 4
ENDMDL
MODEL 9
REMARK VINA RESULT:      -6.4     16.200     18.355
REMARK  4 active torsions:
REMARK  status: ('A' for Active; 'I' for Inactive)
REMARK    1  A    between atoms: S_2  and  N_3 
REMARK    2  A    between atoms: N_3  and  N_4 
REMARK    3  A    between atoms: C_10  and  C_11 
REMARK    4  A    between atoms: C_12  and  O_13 
ROOT
HETATM    1  N   UNL     1     -36.234  40.454 -55.491  1.00  0.00    -0.241 N 
HETATM    2  C   UNL     1     -36.617  41.489 -56.327  1.00  0.00     0.272 C 
HETATM    3  O   UNL     1     -36.954  42.589 -55.893  1.00  0.00    -0.266 OA
HETATM    4  C   UNL     1     -36.753  41.150 -57.753  1.00  0.00     0.054 A 
HETATM    5  C   UNL     1     -36.808  39.791 -58.089  1.00  0.00     0.026 A 
HETATM    6  N   UNL     1     -36.646  38.767 -57.118  1.00  0.00    -0.265 NA
HETATM    7  C   UNL     1     -35.753  39.165 -56.001  1.00  0.00     0.219 C 
HETATM    8  C   UNL     1     -36.988  42.145 -58.704  1.00  0.00     0.019 A 
HETATM    9  C   UNL     1     -37.297  41.781 -60.013  1.00  0.00     0.001 A 
HETATM   10  C   UNL     1     -37.399  40.431 -60.354  1.00  0.00     0.002 A 
HETATM   11  C   UNL     1     -37.173  39.442 -59.392  1.00  0.00     0.024 A 
HETATM   12  H   UNL     1     -37.568  38.587 -56.708  1.00  0.00     0.130 HD
ENDROOT
BRANCH   7  13
HETATM   13  C   UNL     1     -34.282  39.157 -56.430  1.00  0.00     0.014 A 
HETATM   14  C   UNL     1     -33.703  38.103 -57.159  1.00  0.00     0.075 A 
HETATM   15  C   UNL     1     -32.346  38.089 -57.485  1.00  0.00     0.037 A 
HETATM   16  C   UNL     1     -31.516  39.123 -57.063  1.00  0.00     0.003 A 
HETATM   17  C   UNL     1     -32.048  40.163 -56.312  1.00  0.00     0.001 A 
HETATM   18  C   UNL     1     -33.411  40.177 -55.997  1.00  0.00     0.013 A 
BRANCH  14  19
HETATM   19  O   UNL     1     -34.419  37.020 -57.595  1.00  0.00    -0.360 OA
HETATM   20  H   UNL     1     -35.279  37.356 -57.923  1.00  0.00     0.217 HD
ENDBRANCH  14  19
ENDBRANCH   7  13
BRANCH   1  21
HETATM   21  N   UNL     1     -36.944  40.448 -54.181  1.00  0.00    -0.123 NA
HETATM   22  H   UNL     1     -37.894  40.842 -54.250  1.00  0.00     0.165 HD
BRANCH  21  23
HETATM   23  S   UNL     1     -36.158  41.034 -52.798  1.00  0.00     0.222 S 
HETATM   24  C   UNL     1     -37.175  40.340 -51.511  1.00  0.00     0.181 C 
HETATM   25  O   UNL     1     -36.284  42.473 -52.768  1.00  0.00    -0.210 OA
HETATM   26  O   UNL     1     -34.868  40.384 -52.747  1.00  0.00    -0.210 OA
ENDBRANCH  21  23
ENDBRANCH   1  21
TORSDOF 4
ENDMDL
MODEL 10
REMARK VINA RESULT:      -6.3      2.477      5.129
REMARK  4 active torsions:
REMARK  status: ('A' for Active; 'I' for Inactive)
REMARK    1  A    between atoms: S_2  and  N_3 
REMARK    2  A    between atoms: N_3  and  N_4 
REMARK    3  A    between atoms: C_10  and  C_11 
REMARK    4  A    between atoms: C_12  and  O_13 
ROOT
HETATM    1  N   UNL     1     -43.795  57.909 -53.976  1.00  0.00    -0.241 N 
HETATM    2  C   UNL     1     -43.095  58.880 -54.672  1.00  0.00     0.272 C 
HETATM    3  O   UNL     1     -42.850  59.983 -54.188  1.00  0.00    -0.266 OA
HETATM    4  C   UNL     1     -42.802  58.576 -56.082  1.00  0.00     0.054 A 
HETATM    5  C   UNL     1     -43.511  57.524 -56.676  1.00  0.00     0.026 A 
HETATM    6  N   UNL     1     -44.413  56.711 -55.938  1.00  0.00    -0.265 NA
HETATM    7  C   UNL     1     -44.022  56.563 -54.512  1.00  0.00     0.219 C 
HETATM    8  C   UNL     1     -41.977  59.414 -56.837  1.00  0.00     0.019 A 
HETATM    9  C   UNL     1     -41.866  59.208 -58.210  1.00  0.00     0.001 A 
HETATM   10  C   UNL     1     -42.600  58.192 -58.824  1.00  0.00     0.002 A 
HETATM   11  C   UNL     1     -43.432  57.365 -58.062  1.00  0.00     0.024 A 
HETATM   12  H   UNL     1     -45.323  57.180 -55.945  1.00  0.00     0.130 HD
ENDROOT
BRANCH   7  13
HETATM   13  C   UNL     1     -42.838  55.603 -54.353  1.00  0.00     0.014 A 
HETATM   14  C   UNL     1     -42.768  54.358 -55.002  1.00  0.00     0.075 A 
HETATM   15  C   UNL     1     -41.708  53.475 -54.793  1.00  0.00     0.037 A 
HETATM   16  C   UNL     1     -40.692  53.802 -53.901  1.00  0.00     0.003 A 
HETATM   17  C   UNL     1     -40.746  55.010 -53.217  1.00  0.00     0.001 A 
HETATM   18  C   UNL     1     -41.806  55.896 -53.438  1.00  0.00     0.013 A 
BRANCH  14  19
HETATM   19  O   UNL     1     -43.728  53.921 -55.874  1.00  0.00    -0.360 OA
HETATM   20  H   UNL     1     -43.600  52.956 -55.987  1.00  0.00     0.217 HD
ENDBRANCH  14  19
ENDBRANCH   7  13
BRANCH   1  21
HETATM   21  N   UNL     1     -44.829  58.460 -53.055  1.00  0.00    -0.123 NA
HETATM   22  H   UNL     1     -45.152  59.394 -53.346  1.00  0.00     0.165 HD
BRANCH  21  23
HETATM   23  S   UNL     1     -44.569  58.417 -51.380  1.00  0.00     0.222 S 
HETATM   24  C   UNL     1     -44.961  60.097 -50.934  1.00  0.00     0.181 C 
HETATM   25  O   UNL     1     -43.164  58.185 -51.135  1.00  0.00    -0.210 OA
HETATM   26  O   UNL     1     -45.590  57.557 -50.825  1.00  0.00    -0.210 OA
ENDBRANCH  21  23
ENDBRANCH   1  21
TORSDOF 4
ENDMDL
