MODEL 1
REMARK VINA RESULT:      -8.2      0.000      0.000
REMARK  5 active torsions:
REMARK  status: ('A' for Active; 'I' for Inactive)
REMARK    1  A    between atoms: O_2  and  C_3 
REMARK    2  A    between atoms: C_7  and  C_8 
REMARK    3  A    between atoms: C_8  and  C_9 
REMARK       I    between atoms: C_9  and  N_10 
REMARK    4  A    between atoms: N_10  and  C_11 
REMARK    5  A    between atoms: C_11  and  C_12 
ROOT
HETATM    1  C   UNL     1     -42.670  56.365 -51.960  1.00  0.00     0.222 C 
HETATM    2  N   UNL     1     -42.589  56.630 -53.305  1.00  0.00    -0.354 N 
HETATM    3  O   UNL     1     -43.748  56.221 -51.384  1.00  0.00    -0.273 OA
HETATM    4  H   UNL     1     -41.701  56.530 -53.791  1.00  0.00     0.162 HD
ENDROOT
BRANCH   1   5
HETATM    5  C   UNL     1     -41.349  56.327 -51.213  1.00  0.00     0.144 C 
BRANCH   5   6
HETATM    6  C   UNL     1     -40.911  54.956 -50.817  1.00  0.00    -0.014 A 
HETATM    7  C   UNL     1     -40.591  53.844 -51.662  1.00  0.00     0.006 A 
HETATM    8  C   UNL     1     -40.235  52.806 -50.811  1.00  0.00     0.088 A 
HETATM    9  C   UNL     1     -40.555  53.607 -53.047  1.00  0.00     0.017 A 
HETATM   10  C   UNL     1     -39.828  51.539 -51.231  1.00  0.00     0.074 A 
HETATM   11  O   UNL     1     -40.338  53.202 -49.513  1.00  0.00    -0.321 OA
HETATM   12  C   UNL     1     -39.777  51.326 -52.612  1.00  0.00     0.070 A 
HETATM   13  C   UNL     1     -40.143  52.345 -53.500  1.00  0.00     0.038 A 
HETATM   14  C   UNL     1     -40.747  54.494 -49.524  1.00  0.00     0.151 A 
BRANCH  12  15
HETATM   15  O   UNL     1     -39.391  50.159 -53.220  1.00  0.00    -0.356 OA
HETATM   16  C   UNL     1     -39.884  49.930 -54.534  1.00  0.00     0.210 C 
ENDBRANCH  12  15
ENDBRANCH   5   6
ENDBRANCH   1   5
BRANCH   2  17
HETATM   17  C   UNL     1     -43.769  56.565 -54.131  1.00  0.00     0.201 C 
BRANCH  17  18
HETATM   18  C   UNL     1     -43.375  56.780 -55.549  1.00  0.00     0.123 A 
HETATM   19  N   UNL     1     -42.757  57.832 -56.055  1.00  0.00    -0.232 NA
HETATM   20  C   UNL     1     -42.579  57.550 -57.388  1.00  0.00     0.085 A 
HETATM   21  C   UNL     1     -43.109  56.305 -57.706  1.00  0.00     0.062 A 
HETATM   22  C   UNL     1     -41.966  58.311 -58.393  1.00  0.00     0.034 A 
HETATM   23  N   UNL     1     -43.614  55.837 -56.521  1.00  0.00    -0.341 N 
HETATM   24  C   UNL     1     -43.069  55.760 -58.992  1.00  0.00     0.032 A 
HETATM   25  H   UNL     1     -44.072  54.949 -56.385  1.00  0.00     0.167 HD
HETATM   26  C   UNL     1     -42.453  56.534 -59.982  1.00  0.00     0.002 A 
HETATM   27  C   UNL     1     -41.909  57.788 -59.691  1.00  0.00     0.002 A 
ENDBRANCH  17  18
ENDBRANCH   2  17
TORSDOF 5
ENDMDL
MODEL 2
REMARK VINA RESULT:      -8.0      1.755      2.163
REMARK  5 active torsions:
REMARK  status: ('A' for Active; 'I' for Inactive)
REMARK    1  A    between atoms: O_2  and  C_3 
REMARK    2  A    between atoms: C_7  and  C_8 
REMARK    3  A    between atoms: C_8  and  C_9 
REMARK       I    between atoms: C_9  and  N_10 
REMARK    4  A    between atoms: N_10  and  C_11 
REMARK    5  A    between atoms: C_11  and  C_12 
ROOT
HETATM    1  C   UNL     1     -41.901  57.086 -53.780  1.00  0.00     0.222 C 
HETATM    2  N   UNL     1     -42.653  56.917 -54.918  1.00  0.00    -0.354 N 
HETATM    3  O   UNL     1     -40.828  57.687 -53.788  1.00  0.00    -0.273 OA
HETATM    4  H   UNL     1     -43.621  56.614 -54.847  1.00  0.00     0.162 HD
ENDROOT
BRANCH   1   5
HETATM    5  C   UNL     1     -42.443  56.426 -52.526  1.00  0.00     0.144 C 
BRANCH   5   6
HETATM    6  C   UNL     1     -41.557  55.363 -51.965  1.00  0.00    -0.014 A 
HETATM    7  C   UNL     1     -41.126  54.145 -52.583  1.00  0.00     0.006 A 
HETATM    8  C   UNL     1     -40.312  53.510 -51.654  1.00  0.00     0.088 A 
HETATM    9  C   UNL     1     -41.327  53.517 -53.825  1.00  0.00     0.017 A 
HETATM   10  C   UNL     1     -39.663  52.293 -51.867  1.00  0.00     0.074 A 
HETATM   11  O   UNL     1     -40.237  54.245 -50.511  1.00  0.00    -0.321 OA
HETATM   12  C   UNL     1     -39.856  51.692 -53.114  1.00  0.00     0.070 A 
HETATM   13  C   UNL     1     -40.682  52.296 -54.071  1.00  0.00     0.038 A 
HETATM   14  C   UNL     1     -40.990  55.355 -50.704  1.00  0.00     0.151 A 
BRANCH  12  15
HETATM   15  O   UNL     1     -39.295  50.508 -53.519  1.00  0.00    -0.356 OA
HETATM   16  C   UNL     1     -39.916  49.851 -54.618  1.00  0.00     0.210 C 
ENDBRANCH  12  15
ENDBRANCH   5   6
ENDBRANCH   1   5
BRANCH   2  17
HETATM   17  C   UNL     1     -42.296  57.605 -56.133  1.00  0.00     0.201 C 
BRANCH  17  18
HETATM   18  C   UNL     1     -43.172  57.122 -57.234  1.00  0.00     0.123 A 
HETATM   19  N   UNL     1     -44.319  57.645 -57.629  1.00  0.00    -0.232 NA
HETATM   20  C   UNL     1     -44.726  56.878 -58.694  1.00  0.00     0.085 A 
HETATM   21  C   UNL     1     -43.815  55.860 -58.949  1.00  0.00     0.062 A 
HETATM   22  C   UNL     1     -45.867  56.995 -59.500  1.00  0.00     0.034 A 
HETATM   23  N   UNL     1     -42.838  56.034 -58.004  1.00  0.00    -0.341 N 
HETATM   24  C   UNL     1     -43.974  54.928 -59.977  1.00  0.00     0.032 A 
HETATM   25  H   UNL     1     -42.011  55.465 -57.900  1.00  0.00     0.167 HD
HETATM   26  C   UNL     1     -45.119  55.060 -60.771  1.00  0.00     0.002 A 
HETATM   27  C   UNL     1     -46.051  56.075 -60.541  1.00  0.00     0.002 A 
ENDBRANCH  17  18
ENDBRANCH   2  17
TORSDOF 5
ENDMDL
MODEL 3
REMARK VINA RESULT:      -7.8      2.850      6.642
REMARK  5 active torsions:
REMARK  status: ('A' for Active; 'I' for Inactive)
REMARK    1  A    between atoms: O_2  and  C_3 
REMARK    2  A    between atoms: C_7  and  C_8 
REMARK    3  A    between atoms: C_8  and  C_9 
REMARK       I    between atoms: C_9  and  N_10 
REMARK    4  A    between atoms: N_10  and  C_11 
REMARK    5  A    between atoms: C_11  and  C_12 
ROOT
HETATM    1  C   UNL     1     -41.581  57.603 -50.920  1.00  0.00     0.222 C 
HETATM    2  N   UNL     1     -41.883  56.295 -50.627  1.00  0.00    -0.354 N 
HETATM    3  O   UNL     1     -40.543  58.138 -50.536  1.00  0.00    -0.273 OA
HETATM    4  H   UNL     1     -42.628  55.820 -51.129  1.00  0.00     0.162 HD
ENDROOT
BRANCH   1   5
HETATM    5  C   UNL     1     -42.643  58.369 -51.690  1.00  0.00     0.144 C 
BRANCH   5   6
HETATM    6  C   UNL     1     -42.350  58.518 -53.146  1.00  0.00    -0.014 A 
HETATM    7  C   UNL     1     -42.607  57.590 -54.206  1.00  0.00     0.006 A 
HETATM    8  C   UNL     1     -42.159  58.203 -55.369  1.00  0.00     0.088 A 
HETATM    9  C   UNL     1     -43.176  56.308 -54.310  1.00  0.00     0.017 A 
HETATM   10  C   UNL     1     -42.243  57.643 -56.645  1.00  0.00     0.074 A 
HETATM   11  O   UNL     1     -41.629  59.424 -55.087  1.00  0.00    -0.321 OA
HETATM   12  C   UNL     1     -42.830  56.377 -56.733  1.00  0.00     0.070 A 
HETATM   13  C   UNL     1     -43.281  55.722 -55.580  1.00  0.00     0.038 A 
HETATM   14  C   UNL     1     -41.746  59.606 -53.748  1.00  0.00     0.151 A 
BRANCH  12  15
HETATM   15  O   UNL     1     -43.017  55.669 -57.893  1.00  0.00    -0.356 OA
HETATM   16  C   UNL     1     -43.936  56.213 -58.833  1.00  0.00     0.210 C 
ENDBRANCH  12  15
ENDBRANCH   5   6
ENDBRANCH   1   5
BRANCH   2  17
HETATM   17  C   UNL     1     -40.896  55.443 -50.011  1.00  0.00     0.201 C 
BRANCH  17  18
HETATM   18  C   UNL     1     -40.601  54.310 -50.928  1.00  0.00     0.123 A 
HETATM   19  N   UNL     1     -40.005  53.171 -50.621  1.00  0.00    -0.232 NA
HETATM   20  C   UNL     1     -39.996  52.436 -51.782  1.00  0.00     0.085 A 
HETATM   21  C   UNL     1     -40.588  53.143 -52.822  1.00  0.00     0.062 A 
HETATM   22  C   UNL     1     -39.501  51.147 -52.025  1.00  0.00     0.034 A 
HETATM   23  N   UNL     1     -40.960  54.334 -52.254  1.00  0.00    -0.341 N 
HETATM   24  C   UNL     1     -40.718  52.638 -54.117  1.00  0.00     0.032 A 
HETATM   25  H   UNL     1     -41.427  55.093 -52.727  1.00  0.00     0.167 HD
HETATM   26  C   UNL     1     -40.218  51.350 -54.341  1.00  0.00     0.002 A 
HETATM   27  C   UNL     1     -39.620  50.614 -53.315  1.00  0.00     0.002 A 
ENDBRANCH  17  18
ENDBRANCH   2  17
TORSDOF 5
ENDMDL
MODEL 4
REMARK VINA RESULT:      -7.8      1.957      3.757
REMARK  5 active torsions:
REMARK  status: ('A' for Active; 'I' for Inactive)
REMARK    1  A    between atoms: O_2  and  C_3 
REMARK    2  A    between atoms: C_7  and  C_8 
REMARK    3  A    between atoms: C_8  and  C_9 
REMARK       I    between atoms: C_9  and  N_10 
REMARK    4  A    between atoms: N_10  and  C_11 
REMARK    5  A    between atoms: C_11  and  C_12 
ROOT
HETATM    1  C   UNL     1     -41.679  54.630 -55.571  1.00  0.00     0.222 C 
HETATM    2  N   UNL     1     -41.680  55.855 -56.193  1.00  0.00    -0.354 N 
HETATM    3  O   UNL     1     -42.718  54.070 -55.225  1.00  0.00    -0.273 OA
HETATM    4  H   UNL     1     -40.839  56.192 -56.656  1.00  0.00     0.162 HD
ENDROOT
BRANCH   1   5
HETATM    5  C   UNL     1     -40.312  54.042 -55.274  1.00  0.00     0.144 C 
BRANCH   5   6
HETATM    6  C   UNL     1     -40.244  53.270 -53.997  1.00  0.00    -0.014 A 
HETATM    7  C   UNL     1     -40.557  53.712 -52.671  1.00  0.00     0.006 A 
HETATM    8  C   UNL     1     -40.341  52.620 -51.841  1.00  0.00     0.088 A 
HETATM    9  C   UNL     1     -41.007  54.909 -52.086  1.00  0.00     0.017 A 
HETATM   10  C   UNL     1     -40.549  52.617 -50.462  1.00  0.00     0.074 A 
HETATM   11  O   UNL     1     -39.898  51.557 -52.566  1.00  0.00    -0.321 OA
HETATM   12  C   UNL     1     -41.017  53.808 -49.899  1.00  0.00     0.070 A 
HETATM   13  C   UNL     1     -41.234  54.935 -50.702  1.00  0.00     0.038 A 
HETATM   14  C   UNL     1     -39.840  51.955 -53.860  1.00  0.00     0.151 A 
BRANCH  12  15
HETATM   15  O   UNL     1     -41.296  54.001 -48.570  1.00  0.00    -0.356 OA
HETATM   16  C   UNL     1     -40.202  53.900 -47.666  1.00  0.00     0.210 C 
ENDBRANCH  12  15
ENDBRANCH   5   6
ENDBRANCH   1   5
BRANCH   2  17
HETATM   17  C   UNL     1     -42.920  56.445 -56.632  1.00  0.00     0.201 C 
BRANCH  17  18
HETATM   18  C   UNL     1     -42.615  57.608 -57.508  1.00  0.00     0.123 A 
HETATM   19  N   UNL     1     -42.218  58.810 -57.129  1.00  0.00    -0.232 NA
HETATM   20  C   UNL     1     -42.030  59.519 -58.290  1.00  0.00     0.085 A 
HETATM   21  C   UNL     1     -42.327  58.740 -59.402  1.00  0.00     0.062 A 
HETATM   22  C   UNL     1     -41.599  60.841 -58.476  1.00  0.00     0.034 A 
HETATM   23  N   UNL     1     -42.701  57.529 -58.878  1.00  0.00    -0.341 N 
HETATM   24  C   UNL     1     -42.223  59.204 -60.715  1.00  0.00     0.032 A 
HETATM   25  H   UNL     1     -42.981  56.718 -59.408  1.00  0.00     0.167 HD
HETATM   26  C   UNL     1     -41.792  60.525 -60.880  1.00  0.00     0.002 A 
HETATM   27  C   UNL     1     -41.483  61.332 -59.783  1.00  0.00     0.002 A 
ENDBRANCH  17  18
ENDBRANCH   2  17
TORSDOF 5
ENDMDL
MODEL 5
REMARK VINA RESULT:      -7.6      1.938      2.683
REMARK  5 active torsions:
REMARK  status: ('A' for Active; 'I' for Inactive)
REMARK    1  A    between atoms: O_2  and  C_3 
REMARK    2  A    between atoms: C_7  and  C_8 
REMARK    3  A    between atoms: C_8  and  C_9 
REMARK       I    between atoms: C_9  and  N_10 
REMARK    4  A    between atoms: N_10  and  C_11 
REMARK    5  A    between atoms: C_11  and  C_12 
ROOT
HETATM    1  C   UNL     1     -42.553  56.445 -55.039  1.00  0.00     0.222 C 
HETATM    2  N   UNL     1     -42.081  56.247 -56.314  1.00  0.00    -0.354 N 
HETATM    3  O   UNL     1     -43.751  56.377 -54.766  1.00  0.00    -0.273 OA
HETATM    4  H   UNL     1     -41.087  56.095 -56.470  1.00  0.00     0.162 HD
ENDROOT
BRANCH   1   5
HETATM    5  C   UNL     1     -41.512  56.820 -54.000  1.00  0.00     0.144 C 
BRANCH   5   6
HETATM    6  C   UNL     1     -41.218  55.738 -53.014  1.00  0.00    -0.014 A 
HETATM    7  C   UNL     1     -40.788  54.396 -53.266  1.00  0.00     0.006 A 
HETATM    8  C   UNL     1     -40.647  53.797 -52.021  1.00  0.00     0.088 A 
HETATM    9  C   UNL     1     -40.495  53.627 -54.407  1.00  0.00     0.017 A 
HETATM   10  C   UNL     1     -40.221  52.485 -51.814  1.00  0.00     0.074 A 
HETATM   11  O   UNL     1     -40.982  54.673 -51.035  1.00  0.00    -0.321 OA
HETATM   12  C   UNL     1     -39.914  51.741 -52.957  1.00  0.00     0.070 A 
HETATM   13  C   UNL     1     -40.057  52.306 -54.230  1.00  0.00     0.038 A 
HETATM   14  C   UNL     1     -41.326  55.837 -51.639  1.00  0.00     0.151 A 
BRANCH  12  15
HETATM   15  O   UNL     1     -39.467  50.444 -52.963  1.00  0.00    -0.356 OA
HETATM   16  C   UNL     1     -39.512  49.759 -54.208  1.00  0.00     0.210 C 
ENDBRANCH  12  15
ENDBRANCH   5   6
ENDBRANCH   1   5
BRANCH   2  17
HETATM   17  C   UNL     1     -42.962  55.766 -57.348  1.00  0.00     0.201 C 
BRANCH  17  18
HETATM   18  C   UNL     1     -43.139  56.837 -58.365  1.00  0.00     0.123 A 
HETATM   19  N   UNL     1     -44.274  57.398 -58.744  1.00  0.00    -0.232 NA
HETATM   20  C   UNL     1     -43.924  58.352 -59.668  1.00  0.00     0.085 A 
HETATM   21  C   UNL     1     -42.548  58.368 -59.867  1.00  0.00     0.062 A 
HETATM   22  C   UNL     1     -44.730  59.251 -60.380  1.00  0.00     0.034 A 
HETATM   23  N   UNL     1     -42.072  57.392 -59.030  1.00  0.00    -0.341 N 
HETATM   24  C   UNL     1     -41.912  59.240 -60.753  1.00  0.00     0.032 A 
HETATM   25  H   UNL     1     -41.104  57.134 -58.916  1.00  0.00     0.167 HD
HETATM   26  C   UNL     1     -42.732  60.130 -61.455  1.00  0.00     0.002 A 
HETATM   27  C   UNL     1     -44.117  60.139 -61.274  1.00  0.00     0.002 A 
ENDBRANCH  17  18
ENDBRANCH   2  17
TORSDOF 5
ENDMDL
MODEL 6
REMARK VINA RESULT:      -7.5      2.798      3.529
REMARK  5 active torsions:
REMARK  status: ('A' for Active; 'I' for Inactive)
REMARK    1  A    between atoms: O_2  and  C_3 
REMARK    2  A    between atoms: C_7  and  C_8 
REMARK    3  A    between atoms: C_8  and  C_9 
REMARK       I    between atoms: C_9  and  N_10 
REMARK    4  A    between atoms: N_10  and  C_11 
REMARK    5  A    between atoms: C_11  and  C_12 
ROOT
HETATM    1  C   UNL     1     -42.500  55.314 -56.111  1.00  0.00     0.222 C 
HETATM    2  N   UNL     1     -42.532  55.713 -57.426  1.00  0.00    -0.354 N 
HETATM    3  O   UNL     1     -43.247  54.441 -55.674  1.00  0.00    -0.273 OA
HETATM    4  H   UNL     1     -41.771  56.271 -57.807  1.00  0.00     0.162 HD
ENDROOT
BRANCH   1   5
HETATM    5  C   UNL     1     -41.532  56.066 -55.216  1.00  0.00     0.144 C 
BRANCH   5   6
HETATM    6  C   UNL     1     -41.299  55.419 -53.891  1.00  0.00    -0.014 A 
HETATM    7  C   UNL     1     -40.772  54.116 -53.616  1.00  0.00     0.006 A 
HETATM    8  C   UNL     1     -40.748  53.996 -52.233  1.00  0.00     0.088 A 
HETATM    9  C   UNL     1     -40.305  53.033 -54.383  1.00  0.00     0.017 A 
HETATM   10  C   UNL     1     -40.280  52.878 -51.541  1.00  0.00     0.074 A 
HETATM   11  O   UNL     1     -41.243  55.122 -51.652  1.00  0.00    -0.321 OA
HETATM   12  C   UNL     1     -39.800  51.819 -52.317  1.00  0.00     0.070 A 
HETATM   13  C   UNL     1     -39.822  51.898 -53.715  1.00  0.00     0.038 A 
HETATM   14  C   UNL     1     -41.575  55.972 -52.654  1.00  0.00     0.151 A 
BRANCH  12  15
HETATM   15  O   UNL     1     -39.288  50.645 -51.827  1.00  0.00    -0.356 OA
HETATM   16  C   UNL     1     -39.612  49.458 -52.541  1.00  0.00     0.210 C 
ENDBRANCH  12  15
ENDBRANCH   5   6
ENDBRANCH   1   5
BRANCH   2  17
HETATM   17  C   UNL     1     -43.322  54.985 -58.387  1.00  0.00     0.201 C 
BRANCH  17  18
HETATM   18  C   UNL     1     -44.297  55.918 -59.013  1.00  0.00     0.123 A 
HETATM   19  N   UNL     1     -44.183  57.229 -59.134  1.00  0.00    -0.232 NA
HETATM   20  C   UNL     1     -45.307  57.636 -59.810  1.00  0.00     0.085 A 
HETATM   21  C   UNL     1     -46.131  56.555 -60.100  1.00  0.00     0.062 A 
HETATM   22  C   UNL     1     -45.693  58.920 -60.218  1.00  0.00     0.034 A 
HETATM   23  N   UNL     1     -45.468  55.474 -59.579  1.00  0.00    -0.341 N 
HETATM   24  C   UNL     1     -47.343  56.675 -60.783  1.00  0.00     0.032 A 
HETATM   25  H   UNL     1     -45.783  54.516 -59.614  1.00  0.00     0.167 HD
HETATM   26  C   UNL     1     -47.712  57.964 -61.183  1.00  0.00     0.002 A 
HETATM   27  C   UNL     1     -46.904  59.070 -60.908  1.00  0.00     0.002 A 
ENDBRANCH  17  18
ENDBRANCH   2  17
TORSDOF 5
ENDMDL
MODEL 7
REMARK VINA RESULT:      -7.4      2.242      3.039
REMARK  5 active torsions:
REMARK  status: ('A' for Active; 'I' for Inactive)
REMARK    1  A    between atoms: O_2  and  C_3 
REMARK    2  A    between atoms: C_7  and  C_8 
REMARK    3  A    between atoms: C_8  and  C_9 
REMARK       I    between atoms: C_9  and  N_10 
REMARK    4  A    between atoms: N_10  and  C_11 
REMARK    5  A    between atoms: C_11  and  C_12 
ROOT
HETATM    1  C   UNL     1     -41.948  59.113 -54.359  1.00  0.00     0.222 C 
HETATM    2  N   UNL     1     -42.147  58.823 -55.687  1.00  0.00    -0.354 N 
HETATM    3  O   UNL     1     -42.596  59.979 -53.773  1.00  0.00    -0.273 OA
HETATM    4  H   UNL     1     -41.760  57.971 -56.085  1.00  0.00     0.162 HD
ENDROOT
BRANCH   1   5
HETATM    5  C   UNL     1     -40.829  58.347 -53.676  1.00  0.00     0.144 C 
BRANCH   5   6
HETATM    6  C   UNL     1     -41.245  57.022 -53.126  1.00  0.00    -0.014 A 
HETATM    7  C   UNL     1     -40.996  55.717 -53.662  1.00  0.00     0.006 A 
HETATM    8  C   UNL     1     -41.582  54.821 -52.777  1.00  0.00     0.088 A 
HETATM    9  C   UNL     1     -40.332  55.198 -54.788  1.00  0.00     0.017 A 
HETATM   10  C   UNL     1     -41.550  53.433 -52.916  1.00  0.00     0.074 A 
HETATM   11  O   UNL     1     -42.187  55.490 -51.759  1.00  0.00    -0.321 OA
HETATM   12  C   UNL     1     -40.869  52.932 -54.030  1.00  0.00     0.070 A 
HETATM   13  C   UNL     1     -40.278  53.806 -54.951  1.00  0.00     0.038 A 
HETATM   14  C   UNL     1     -41.983  56.812 -51.976  1.00  0.00     0.151 A 
BRANCH  12  15
HETATM   15  O   UNL     1     -40.715  51.604 -54.333  1.00  0.00    -0.356 OA
HETATM   16  C   UNL     1     -39.568  50.955 -53.798  1.00  0.00     0.210 C 
ENDBRANCH  12  15
ENDBRANCH   5   6
ENDBRANCH   1   5
BRANCH   2  17
HETATM   17  C   UNL     1     -43.261  59.400 -56.397  1.00  0.00     0.201 C 
BRANCH  17  18
HETATM   18  C   UNL     1     -43.806  58.387 -57.341  1.00  0.00     0.123 A 
HETATM   19  N   UNL     1     -44.998  58.387 -57.909  1.00  0.00    -0.232 NA
HETATM   20  C   UNL     1     -45.020  57.278 -58.720  1.00  0.00     0.085 A 
HETATM   21  C   UNL     1     -43.821  56.580 -58.638  1.00  0.00     0.062 A 
HETATM   22  C   UNL     1     -46.033  56.803 -59.565  1.00  0.00     0.034 A 
HETATM   23  N   UNL     1     -43.067  57.303 -57.751  1.00  0.00    -0.341 N 
HETATM   24  C   UNL     1     -43.563  55.411 -59.358  1.00  0.00     0.032 A 
HETATM   25  H   UNL     1     -42.127  57.082 -57.458  1.00  0.00     0.167 HD
HETATM   26  C   UNL     1     -44.585  54.952 -60.195  1.00  0.00     0.002 A 
HETATM   27  C   UNL     1     -45.800  55.634 -60.301  1.00  0.00     0.002 A 
ENDBRANCH  17  18
ENDBRANCH   2  17
TORSDOF 5
ENDMDL
MODEL 8
REMARK VINA RESULT:      -7.4      2.474      3.459
REMARK  5 active torsions:
REMARK  status: ('A' for Active; 'I' for Inactive)
REMARK    1  A    between atoms: O_2  and  C_3 
REMARK    2  A    between atoms: C_7  and  C_8 
REMARK    3  A    between atoms: C_8  and  C_9 
REMARK       I    between atoms: C_9  and  N_10 
REMARK    4  A    between atoms: N_10  and  C_11 
REMARK    5  A    between atoms: C_11  and  C_12 
ROOT
HETATM    1  C   UNL     1     -41.207  58.465 -53.404  1.00  0.00     0.222 C 
HETATM    2  N   UNL     1     -42.258  58.952 -54.144  1.00  0.00    -0.354 N 
HETATM    3  O   UNL     1     -40.121  59.040 -53.352  1.00  0.00    -0.273 OA
HETATM    4  H   UNL     1     -43.195  58.583 -54.000  1.00  0.00     0.162 HD
ENDROOT
BRANCH   1   5
HETATM    5  C   UNL     1     -41.447  57.137 -52.710  1.00  0.00     0.144 C 
BRANCH   5   6
HETATM    6  C   UNL     1     -41.178  55.944 -53.567  1.00  0.00    -0.014 A 
HETATM    7  C   UNL     1     -40.760  54.634 -53.165  1.00  0.00     0.006 A 
HETATM    8  C   UNL     1     -40.659  53.889 -54.333  1.00  0.00     0.088 A 
HETATM    9  C   UNL     1     -40.467  53.998 -51.946  1.00  0.00     0.017 A 
HETATM   10  C   UNL     1     -40.297  52.542 -54.386  1.00  0.00     0.074 A 
HETATM   11  O   UNL     1     -40.963  54.659 -55.413  1.00  0.00    -0.321 OA
HETATM   12  C   UNL     1     -40.030  51.919 -53.164  1.00  0.00     0.070 A 
HETATM   13  C   UNL     1     -40.108  52.642 -51.967  1.00  0.00     0.038 A 
HETATM   14  C   UNL     1     -41.272  55.893 -54.945  1.00  0.00     0.151 A 
BRANCH  12  15
HETATM   15  O   UNL     1     -39.675  50.604 -53.006  1.00  0.00    -0.356 OA
HETATM   16  C   UNL     1     -39.609  49.813 -54.186  1.00  0.00     0.210 C 
ENDBRANCH  12  15
ENDBRANCH   5   6
ENDBRANCH   1   5
BRANCH   2  17
HETATM   17  C   UNL     1     -42.181  60.262 -54.740  1.00  0.00     0.201 C 
BRANCH  17  18
HETATM   18  C   UNL     1     -42.083  60.113 -56.217  1.00  0.00     0.123 A 
HETATM   19  N   UNL     1     -42.225  59.002 -56.918  1.00  0.00    -0.232 NA
HETATM   20  C   UNL     1     -42.087  59.376 -58.233  1.00  0.00     0.085 A 
HETATM   21  C   UNL     1     -41.846  60.741 -58.338  1.00  0.00     0.062 A 
HETATM   22  C   UNL     1     -42.160  58.602 -59.399  1.00  0.00     0.034 A 
HETATM   23  N   UNL     1     -41.844  61.186 -57.041  1.00  0.00    -0.341 N 
HETATM   24  C   UNL     1     -41.667  61.397 -59.558  1.00  0.00     0.032 A 
HETATM   25  H   UNL     1     -41.701  62.140 -56.746  1.00  0.00     0.167 HD
HETATM   26  C   UNL     1     -41.743  60.608 -60.711  1.00  0.00     0.002 A 
HETATM   27  C   UNL     1     -41.986  59.234 -60.637  1.00  0.00     0.002 A 
ENDBRANCH  17  18
ENDBRANCH   2  17
TORSDOF 5
ENDMDL
MODEL 9
REMARK VINA RESULT:      -7.3      4.453      7.147
REMARK  5 active torsions:
REMARK  status: ('A' for Active; 'I' for Inactive)
REMARK    1  A    between atoms: O_2  and  C_3 
REMARK    2  A    between atoms: C_7  and  C_8 
REMARK    3  A    between atoms: C_8  and  C_9 
REMARK       I    between atoms: C_9  and  N_10 
REMARK    4  A    between atoms: N_10  and  C_11 
REMARK    5  A    between atoms: C_11  and  C_12 
ROOT
HETATM    1  C   UNL     1     -43.778  57.457 -51.600  1.00  0.00     0.222 C 
HETATM    2  N   UNL     1     -45.090  57.834 -51.443  1.00  0.00    -0.354 N 
HETATM    3  O   UNL     1     -42.928  58.220 -52.059  1.00  0.00    -0.273 OA
HETATM    4  H   UNL     1     -45.715  57.271 -50.871  1.00  0.00     0.162 HD
ENDROOT
BRANCH   1   5
HETATM    5  C   UNL     1     -43.455  56.019 -51.238  1.00  0.00     0.144 C 
BRANCH   5   6
HETATM    6  C   UNL     1     -43.015  55.183 -52.394  1.00  0.00    -0.014 A 
HETATM    7  C   UNL     1     -41.970  54.205 -52.439  1.00  0.00     0.006 A 
HETATM    8  C   UNL     1     -41.966  53.707 -53.736  1.00  0.00     0.088 A 
HETATM    9  C   UNL     1     -41.036  53.682 -51.527  1.00  0.00     0.017 A 
HETATM   10  C   UNL     1     -41.108  52.710 -54.201  1.00  0.00     0.074 A 
HETATM   11  O   UNL     1     -42.918  54.329 -54.483  1.00  0.00    -0.321 OA
HETATM   12  C   UNL     1     -40.201  52.185 -53.276  1.00  0.00     0.070 A 
HETATM   13  C   UNL     1     -40.165  52.673 -51.963  1.00  0.00     0.038 A 
HETATM   14  C   UNL     1     -43.542  55.217 -53.671  1.00  0.00     0.151 A 
BRANCH  12  15
HETATM   15  O   UNL     1     -39.289  51.194 -53.534  1.00  0.00    -0.356 OA
HETATM   16  C   UNL     1     -39.662  49.872 -53.166  1.00  0.00     0.210 C 
ENDBRANCH  12  15
ENDBRANCH   5   6
ENDBRANCH   1   5
BRANCH   2  17
HETATM   17  C   UNL     1     -45.480  59.208 -51.638  1.00  0.00     0.201 C 
BRANCH  17  18
HETATM   18  C   UNL     1     -45.491  59.896 -50.319  1.00  0.00     0.123 A 
HETATM   19  N   UNL     1     -45.922  59.410 -49.169  1.00  0.00    -0.232 NA
HETATM   20  C   UNL     1     -45.691  60.396 -48.242  1.00  0.00     0.085 A 
HETATM   21  C   UNL     1     -45.116  61.513 -48.838  1.00  0.00     0.062 A 
HETATM   22  C   UNL     1     -45.942  60.409 -46.863  1.00  0.00     0.034 A 
HETATM   23  N   UNL     1     -45.003  61.171 -50.161  1.00  0.00    -0.341 N 
HETATM   24  C   UNL     1     -44.771  62.668 -48.132  1.00  0.00     0.032 A 
HETATM   25  H   UNL     1     -44.618  61.753 -50.889  1.00  0.00     0.167 HD
HETATM   26  C   UNL     1     -45.029  62.662 -46.757  1.00  0.00     0.002 A 
HETATM   27  C   UNL     1     -45.604  61.555 -46.129  1.00  0.00     0.002 A 
ENDBRANCH  17  18
ENDBRANCH   2  17
TORSDOF 5
ENDMDL
MODEL 10
REMARK VINA RESULT:      -7.3     14.535     16.661
REMARK  5 active torsions:
REMARK  status: ('A' for Active; 'I' for Inactive)
REMARK    1  A    between atoms: O_2  and  C_3 
REMARK    2  A    between atoms: C_7  and  C_8 
REMARK    3  A    between atoms: C_8  and  C_9 
REMARK       I    between atoms: C_9  and  N_10 
REMARK    4  A    between atoms: N_10  and  C_11 
REMARK    5  A    between atoms: C_11  and  C_12 
ROOT
HETATM    1  C   UNL     1     -34.309  41.105 -51.593  1.00  0.00     0.222 C 
HETATM    2  N   UNL     1     -34.742  42.049 -52.493  1.00  0.00    -0.354 N 
HETATM    3  O   UNL     1     -35.085  40.491 -50.863  1.00  0.00    -0.273 OA
HETATM    4  H   UNL     1     -34.117  42.379 -53.224  1.00  0.00     0.162 HD
ENDROOT
BRANCH   1   5
HETATM    5  C   UNL     1     -32.805  40.915 -51.508  1.00  0.00     0.144 C 
BRANCH   5   6
HETATM    6  C   UNL     1     -32.295  39.739 -52.273  1.00  0.00    -0.014 A 
HETATM    7  C   UNL     1     -32.153  39.592 -53.691  1.00  0.00     0.006 A 
HETATM    8  C   UNL     1     -31.630  38.322 -53.894  1.00  0.00     0.088 A 
HETATM    9  C   UNL     1     -32.400  40.395 -54.819  1.00  0.00     0.017 A 
HETATM   10  C   UNL     1     -31.316  37.783 -55.143  1.00  0.00     0.074 A 
HETATM   11  O   UNL     1     -31.466  37.682 -52.705  1.00  0.00    -0.321 OA
HETATM   12  C   UNL     1     -31.549  38.602 -56.252  1.00  0.00     0.070 A 
HETATM   13  C   UNL     1     -32.089  39.883 -56.087  1.00  0.00     0.038 A 
HETATM   14  C   UNL     1     -31.870  38.539 -51.735  1.00  0.00     0.151 A 
BRANCH  12  15
HETATM   15  O   UNL     1     -31.294  38.261 -57.556  1.00  0.00    -0.356 OA
HETATM   16  C   UNL     1     -32.377  37.712 -58.297  1.00  0.00     0.210 C 
ENDBRANCH  12  15
ENDBRANCH   5   6
ENDBRANCH   1   5
BRANCH   2  17
HETATM   17  C   UNL     1     -36.151  42.220 -52.744  1.00  0.00     0.201 C 
BRANCH  17  18
HETATM   18  C   UNL     1     -36.412  41.998 -54.191  1.00  0.00     0.123 A 
HETATM   19  N   UNL     1     -35.622  42.316 -55.202  1.00  0.00    -0.232 NA
HETATM   20  C   UNL     1     -36.274  41.880 -56.330  1.00  0.00     0.085 A 
HETATM   21  C   UNL     1     -37.491  41.293 -56.004  1.00  0.00     0.062 A 
HETATM   22  C   UNL     1     -35.883  41.947 -57.675  1.00  0.00     0.034 A 
HETATM   23  N   UNL     1     -37.558  41.385 -54.638  1.00  0.00    -0.341 N 
HETATM   24  C   UNL     1     -38.365  40.760 -56.955  1.00  0.00     0.032 A 
HETATM   25  H   UNL     1     -38.314  41.050 -54.061  1.00  0.00     0.167 HD
HETATM   26  C   UNL     1     -37.958  40.835 -58.292  1.00  0.00     0.002 A 
HETATM   27  C   UNL     1     -36.740  41.417 -58.650  1.00  0.00     0.002 A 
ENDBRANCH  17  18
ENDBRANCH   2  17
TORSDOF 5
ENDMDL
