MODEL 1
REMARK VINA RESULT:      -8.5      0.000      0.000
REMARK  3 active torsions:
REMARK  status: ('A' for Active; 'I' for Inactive)
REMARK    1  A    between atoms: C_6  and  N_7 
REMARK       I    between atoms: N_7  and  C_8 
REMARK    2  A    between atoms: C_8  and  C_9 
REMARK    3  A    between atoms: C_9  and  C_10 
ROOT
HETATM    1  N   UNL     1     -41.786  54.524 -51.982  1.00  0.00    -0.325 N 
HETATM    2  C   UNL     1     -43.043  54.593 -51.412  1.00  0.00     0.228 C 
HETATM    3  O   UNL     1     -43.846  53.668 -51.322  1.00  0.00    -0.273 OA
HETATM    4  H   UNL     1     -41.111  55.179 -51.578  1.00  0.00     0.169 HD
ENDROOT
BRANCH   2   5
HETATM    5  C   UNL     1     -43.405  55.975 -50.905  1.00  0.00     0.165 C 
BRANCH   5   6
HETATM    6  C   UNL     1     -42.376  57.050 -51.203  1.00  0.00     0.074 A 
HETATM    7  N   UNL     1     -41.391  57.140 -50.355  1.00  0.00    -0.175 NA
HETATM    8  N   UNL     1     -40.416  58.055 -50.582  1.00  0.00    -0.243 N 
HETATM    9  C   UNL     1     -40.328  58.888 -51.669  1.00  0.00     0.272 A 
HETATM   10  H   UNL     1     -39.664  58.106 -49.900  1.00  0.00     0.192 HD
HETATM   11  O   UNL     1     -39.392  59.665 -51.824  1.00  0.00    -0.266 OA
HETATM   12  C   UNL     1     -41.428  58.800 -52.642  1.00  0.00     0.046 A 
HETATM   13  C   UNL     1     -42.475  57.904 -52.416  1.00  0.00     0.006 A 
HETATM   14  C   UNL     1     -41.413  59.620 -53.778  1.00  0.00     0.018 A 
HETATM   15  C   UNL     1     -43.532  57.853 -53.333  1.00  0.00     0.014 A 
HETATM   16  C   UNL     1     -43.517  58.672 -54.470  1.00  0.00     0.001 A 
HETATM   17  C   UNL     1     -42.459  59.550 -54.695  1.00  0.00     0.001 A 
ENDBRANCH   5   6
ENDBRANCH   2   5
BRANCH   1  18
HETATM   18  C   UNL     1     -41.211  53.393 -52.615  1.00  0.00     0.062 A 
HETATM   19  C   UNL     1     -40.292  52.627 -51.868  1.00  0.00     0.061 A 
HETATM   20  C   UNL     1     -39.681  51.492 -52.408  1.00  0.00     0.033 A 
HETATM   21 CL   UNL     1     -39.909  53.033 -50.226  1.00  0.00    -0.082 Cl
HETATM   22  C   UNL     1     -39.948  51.112 -53.722  1.00  0.00    -0.060 A 
HETATM   23  C   UNL     1     -39.330  49.874 -54.302  1.00  0.00     0.048 C 
HETATM   24  C   UNL     1     -40.836  51.884 -54.480  1.00  0.00     0.016 A 
HETATM   25  C   UNL     1     -41.448  53.045 -53.958  1.00  0.00    -0.033 A 
HETATM   26  C   UNL     1     -42.278  53.861 -54.910  1.00  0.00     0.050 C 
ENDBRANCH   1  18
TORSDOF 3
ENDMDL
MODEL 2
REMARK VINA RESULT:      -8.4      3.353      7.096
REMARK  3 active torsions:
REMARK  status: ('A' for Active; 'I' for Inactive)
REMARK    1  A    between atoms: C_6  and  N_7 
REMARK       I    between atoms: N_7  and  C_8 
REMARK    2  A    between atoms: C_8  and  C_9 
REMARK    3  A    between atoms: C_9  and  C_10 
ROOT
HETATM    1  N   UNL     1     -41.838  55.803 -56.120  1.00  0.00    -0.325 N 
HETATM    2  C   UNL     1     -41.913  54.545 -55.555  1.00  0.00     0.228 C 
HETATM    3  O   UNL     1     -42.943  53.920 -55.319  1.00  0.00    -0.273 OA
HETATM    4  H   UNL     1     -40.982  55.968 -56.656  1.00  0.00     0.169 HD
ENDROOT
BRANCH   2   5
HETATM    5  C   UNL     1     -40.562  53.961 -55.191  1.00  0.00     0.165 C 
BRANCH   5   6
HETATM    6  C   UNL     1     -40.408  53.580 -53.729  1.00  0.00     0.074 A 
HETATM    7  N   UNL     1     -40.620  54.535 -52.870  1.00  0.00    -0.175 NA
HETATM    8  N   UNL     1     -40.535  54.254 -51.546  1.00  0.00    -0.243 N 
HETATM    9  C   UNL     1     -40.293  53.020 -50.997  1.00  0.00     0.272 A 
HETATM   10  H   UNL     1     -40.700  55.021 -50.901  1.00  0.00     0.192 HD
HETATM   11  O   UNL     1     -40.269  52.836 -49.786  1.00  0.00    -0.266 OA
HETATM   12  C   UNL     1     -40.055  51.924 -51.950  1.00  0.00     0.046 A 
HETATM   13  C   UNL     1     -40.083  52.187 -53.321  1.00  0.00     0.006 A 
HETATM   14  C   UNL     1     -39.796  50.634 -51.469  1.00  0.00     0.018 A 
HETATM   15  C   UNL     1     -39.824  51.142 -54.216  1.00  0.00     0.014 A 
HETATM   16  C   UNL     1     -39.566  49.851 -53.735  1.00  0.00     0.001 A 
HETATM   17  C   UNL     1     -39.556  49.597 -52.366  1.00  0.00     0.001 A 
ENDBRANCH   5   6
ENDBRANCH   2   5
BRANCH   1  18
HETATM   18  C   UNL     1     -42.933  56.629 -56.480  1.00  0.00     0.062 A 
HETATM   19  C   UNL     1     -43.540  57.389 -55.457  1.00  0.00     0.061 A 
HETATM   20  C   UNL     1     -44.620  58.235 -55.721  1.00  0.00     0.033 A 
HETATM   21 CL   UNL     1     -42.945  57.339 -53.828  1.00  0.00    -0.082 Cl
HETATM   22  C   UNL     1     -45.143  58.320 -57.010  1.00  0.00    -0.060 A 
HETATM   23  C   UNL     1     -46.276  59.254 -57.316  1.00  0.00     0.048 C 
HETATM   24  C   UNL     1     -44.566  57.549 -58.025  1.00  0.00     0.016 A 
HETATM   25  C   UNL     1     -43.487  56.673 -57.773  1.00  0.00    -0.033 A 
HETATM   26  C   UNL     1     -43.040  55.801 -58.915  1.00  0.00     0.050 C 
ENDBRANCH   1  18
TORSDOF 3
ENDMDL
MODEL 3
REMARK VINA RESULT:      -8.4      1.135      1.823
REMARK  3 active torsions:
REMARK  status: ('A' for Active; 'I' for Inactive)
REMARK    1  A    between atoms: C_6  and  N_7 
REMARK       I    between atoms: N_7  and  C_8 
REMARK    2  A    between atoms: C_8  and  C_9 
REMARK    3  A    between atoms: C_9  and  C_10 
ROOT
HETATM    1  N   UNL     1     -41.722  54.472 -51.880  1.00  0.00    -0.325 N 
HETATM    2  C   UNL     1     -43.016  54.558 -51.403  1.00  0.00     0.228 C 
HETATM    3  O   UNL     1     -43.825  53.637 -51.340  1.00  0.00    -0.273 OA
HETATM    4  H   UNL     1     -41.076  55.139 -51.451  1.00  0.00     0.169 HD
ENDROOT
BRANCH   2   5
HETATM    5  C   UNL     1     -43.410  55.956 -50.966  1.00  0.00     0.165 C 
BRANCH   5   6
HETATM    6  C   UNL     1     -42.377  57.028 -51.264  1.00  0.00     0.074 A 
HETATM    7  N   UNL     1     -41.426  57.156 -50.384  1.00  0.00    -0.175 NA
HETATM    8  N   UNL     1     -40.449  58.070 -50.606  1.00  0.00    -0.243 N 
HETATM    9  C   UNL     1     -40.325  58.865 -51.718  1.00  0.00     0.272 A 
HETATM   10  H   UNL     1     -39.723  58.150 -49.899  1.00  0.00     0.192 HD
HETATM   11  O   UNL     1     -39.390  59.643 -51.864  1.00  0.00    -0.266 OA
HETATM   12  C   UNL     1     -41.388  58.734 -52.727  1.00  0.00     0.046 A 
HETATM   13  C   UNL     1     -42.437  57.839 -52.509  1.00  0.00     0.006 A 
HETATM   14  C   UNL     1     -41.336  59.514 -53.890  1.00  0.00     0.018 A 
HETATM   15  C   UNL     1     -43.458  57.748 -53.462  1.00  0.00     0.014 A 
HETATM   16  C   UNL     1     -43.407  58.527 -54.625  1.00  0.00     0.001 A 
HETATM   17  C   UNL     1     -42.347  59.405 -54.841  1.00  0.00     0.001 A 
ENDBRANCH   5   6
ENDBRANCH   2   5
BRANCH   1  18
HETATM   18  C   UNL     1     -41.106  53.322 -52.435  1.00  0.00     0.062 A 
HETATM   19  C   UNL     1     -41.324  53.065 -53.805  1.00  0.00     0.061 A 
HETATM   20  C   UNL     1     -40.752  51.959 -54.439  1.00  0.00     0.033 A 
HETATM   21 CL   UNL     1     -42.279  54.135 -54.780  1.00  0.00    -0.082 Cl
HETATM   22  C   UNL     1     -39.972  51.061 -53.711  1.00  0.00    -0.060 A 
HETATM   23  C   UNL     1     -39.319  49.892 -54.387  1.00  0.00     0.048 C 
HETATM   24  C   UNL     1     -39.775  51.293 -52.345  1.00  0.00     0.016 A 
HETATM   25  C   UNL     1     -40.362  52.394 -51.683  1.00  0.00    -0.033 A 
HETATM   26  C   UNL     1     -40.185  52.461 -50.191  1.00  0.00     0.050 C 
ENDBRANCH   1  18
TORSDOF 3
ENDMDL
MODEL 4
REMARK VINA RESULT:      -8.2      3.793      6.884
REMARK  3 active torsions:
REMARK  status: ('A' for Active; 'I' for Inactive)
REMARK    1  A    between atoms: C_6  and  N_7 
REMARK       I    between atoms: N_7  and  C_8 
REMARK    2  A    between atoms: C_8  and  C_9 
REMARK    3  A    between atoms: C_9  and  C_10 
ROOT
HETATM    1  N   UNL     1     -43.392  55.860 -56.728  1.00  0.00    -0.325 N 
HETATM    2  C   UNL     1     -42.513  55.139 -55.943  1.00  0.00     0.228 C 
HETATM    3  O   UNL     1     -41.289  55.145 -56.036  1.00  0.00    -0.273 OA
HETATM    4  H   UNL     1     -44.264  56.109 -56.255  1.00  0.00     0.169 HD
ENDROOT
BRANCH   2   5
HETATM    5  C   UNL     1     -43.198  54.258 -54.916  1.00  0.00     0.165 C 
BRANCH   5   6
HETATM    6  C   UNL     1     -42.544  54.255 -53.546  1.00  0.00     0.074 A 
HETATM    7  N   UNL     1     -43.032  55.102 -52.685  1.00  0.00    -0.175 NA
HETATM    8  N   UNL     1     -42.519  55.126 -51.430  1.00  0.00    -0.243 N 
HETATM    9  C   UNL     1     -41.544  54.292 -50.940  1.00  0.00     0.272 A 
HETATM   10  H   UNL     1     -42.916  55.801 -50.782  1.00  0.00     0.192 HD
HETATM   11  O   UNL     1     -41.158  54.349 -49.779  1.00  0.00    -0.266 OA
HETATM   12  C   UNL     1     -40.982  53.324 -51.895  1.00  0.00     0.046 A 
HETATM   13  C   UNL     1     -41.451  53.305 -53.211  1.00  0.00     0.006 A 
HETATM   14  C   UNL     1     -39.980  52.440 -51.474  1.00  0.00     0.018 A 
HETATM   15  C   UNL     1     -40.885  52.400 -54.117  1.00  0.00     0.014 A 
HETATM   16  C   UNL     1     -39.883  51.516 -53.696  1.00  0.00     0.001 A 
HETATM   17  C   UNL     1     -39.435  51.532 -52.377  1.00  0.00     0.001 A 
ENDBRANCH   5   6
ENDBRANCH   2   5
BRANCH   1  18
HETATM   18  C   UNL     1     -43.050  56.696 -57.821  1.00  0.00     0.062 A 
HETATM   19  C   UNL     1     -42.564  57.987 -57.525  1.00  0.00     0.061 A 
HETATM   20  C   UNL     1     -42.196  58.878 -58.537  1.00  0.00     0.033 A 
HETATM   21 CL   UNL     1     -42.360  58.517 -55.886  1.00  0.00    -0.082 Cl
HETATM   22  C   UNL     1     -42.335  58.512 -59.875  1.00  0.00    -0.060 A 
HETATM   23  C   UNL     1     -41.907  59.442 -60.971  1.00  0.00     0.048 C 
HETATM   24  C   UNL     1     -42.843  57.243 -60.178  1.00  0.00     0.016 A 
HETATM   25  C   UNL     1     -43.239  56.338 -59.169  1.00  0.00    -0.033 A 
HETATM   26  C   UNL     1     -43.892  55.061 -59.621  1.00  0.00     0.050 C 
ENDBRANCH   1  18
TORSDOF 3
ENDMDL
MODEL 5
REMARK VINA RESULT:      -8.1      1.935      2.337
REMARK  3 active torsions:
REMARK  status: ('A' for Active; 'I' for Inactive)
REMARK    1  A    between atoms: C_6  and  N_7 
REMARK       I    between atoms: N_7  and  C_8 
REMARK    2  A    between atoms: C_8  and  C_9 
REMARK    3  A    between atoms: C_9  and  C_10 
ROOT
HETATM    1  N   UNL     1     -41.089  54.441 -51.620  1.00  0.00    -0.325 N 
HETATM    2  C   UNL     1     -42.388  54.703 -51.227  1.00  0.00     0.228 C 
HETATM    3  O   UNL     1     -43.367  53.998 -51.456  1.00  0.00    -0.273 OA
HETATM    4  H   UNL     1     -40.379  54.828 -50.992  1.00  0.00     0.169 HD
ENDROOT
BRANCH   2   5
HETATM    5  C   UNL     1     -42.544  56.012 -50.479  1.00  0.00     0.165 C 
BRANCH   5   6
HETATM    6  C   UNL     1     -43.372  57.060 -51.200  1.00  0.00     0.074 A 
HETATM    7  N   UNL     1     -44.622  57.137 -50.844  1.00  0.00    -0.175 NA
HETATM    8  N   UNL     1     -45.410  58.077 -51.423  1.00  0.00    -0.243 N 
HETATM    9  C   UNL     1     -45.006  59.018 -52.336  1.00  0.00     0.272 A 
HETATM   10  H   UNL     1     -46.382  58.108 -51.128  1.00  0.00     0.192 HD
HETATM   11  O   UNL     1     -45.771  59.863 -52.787  1.00  0.00    -0.266 OA
HETATM   12  C   UNL     1     -43.595  58.953 -52.749  1.00  0.00     0.046 A 
HETATM   13  C   UNL     1     -42.766  57.966 -52.213  1.00  0.00     0.006 A 
HETATM   14  C   UNL     1     -43.105  59.878 -53.681  1.00  0.00     0.018 A 
HETATM   15  C   UNL     1     -41.435  57.896 -52.639  1.00  0.00     0.014 A 
HETATM   16  C   UNL     1     -40.944  58.820 -53.570  1.00  0.00     0.001 A 
HETATM   17  C   UNL     1     -41.775  59.812 -54.087  1.00  0.00     0.001 A 
ENDBRANCH   5   6
ENDBRANCH   2   5
BRANCH   1  18
HETATM   18  C   UNL     1     -40.653  53.343 -52.404  1.00  0.00     0.062 A 
HETATM   19  C   UNL     1     -40.230  52.183 -51.721  1.00  0.00     0.061 A 
HETATM   20  C   UNL     1     -39.790  51.051 -52.412  1.00  0.00     0.033 A 
HETATM   21 CL   UNL     1     -40.274  52.093 -49.990  1.00  0.00    -0.082 Cl
HETATM   22  C   UNL     1     -39.732  51.059 -53.805  1.00  0.00    -0.060 A 
HETATM   23  C   UNL     1     -39.301  49.838 -54.561  1.00  0.00     0.048 C 
HETATM   24  C   UNL     1     -40.124  52.216 -54.489  1.00  0.00     0.016 A 
HETATM   25  C   UNL     1     -40.551  53.377 -53.807  1.00  0.00    -0.033 A 
HETATM   26  C   UNL     1     -40.819  54.596 -54.647  1.00  0.00     0.050 C 
ENDBRANCH   1  18
TORSDOF 3
ENDMDL
MODEL 6
REMARK VINA RESULT:      -8.1      1.683      1.953
REMARK  3 active torsions:
REMARK  status: ('A' for Active; 'I' for Inactive)
REMARK    1  A    between atoms: C_6  and  N_7 
REMARK       I    between atoms: N_7  and  C_8 
REMARK    2  A    between atoms: C_8  and  C_9 
REMARK    3  A    between atoms: C_9  and  C_10 
ROOT
HETATM    1  N   UNL     1     -40.971  54.811 -51.966  1.00  0.00    -0.325 N 
HETATM    2  C   UNL     1     -42.222  55.120 -51.468  1.00  0.00     0.228 C 
HETATM    3  O   UNL     1     -43.191  54.367 -51.432  1.00  0.00    -0.273 OA
HETATM    4  H   UNL     1     -40.207  55.325 -51.519  1.00  0.00     0.169 HD
ENDROOT
BRANCH   2   5
HETATM    5  C   UNL     1     -42.342  56.547 -50.969  1.00  0.00     0.165 C 
BRANCH   5   6
HETATM    6  C   UNL     1     -42.221  57.608 -52.047  1.00  0.00     0.074 A 
HETATM    7  N   UNL     1     -41.101  57.613 -52.713  1.00  0.00    -0.175 NA
HETATM    8  N   UNL     1     -40.941  58.512 -53.715  1.00  0.00    -0.243 N 
HETATM    9  C   UNL     1     -41.881  59.412 -54.150  1.00  0.00     0.272 A 
HETATM   10  H   UNL     1     -40.055  58.495 -54.213  1.00  0.00     0.192 HD
HETATM   11  O   UNL     1     -41.676  60.170 -55.092  1.00  0.00    -0.266 OA
HETATM   12  C   UNL     1     -43.156  59.421 -53.415  1.00  0.00     0.046 A 
HETATM   13  C   UNL     1     -43.338  58.544 -52.344  1.00  0.00     0.006 A 
HETATM   14  C   UNL     1     -44.167  60.314 -53.796  1.00  0.00     0.018 A 
HETATM   15  C   UNL     1     -44.543  58.585 -51.633  1.00  0.00     0.014 A 
HETATM   16  C   UNL     1     -45.555  59.477 -52.013  1.00  0.00     0.001 A 
HETATM   17  C   UNL     1     -45.369  60.336 -53.094  1.00  0.00     0.001 A 
ENDBRANCH   5   6
ENDBRANCH   2   5
BRANCH   1  18
HETATM   18  C   UNL     1     -40.587  53.590 -52.577  1.00  0.00     0.062 A 
HETATM   19  C   UNL     1     -40.189  52.536 -51.728  1.00  0.00     0.061 A 
HETATM   20  C   UNL     1     -39.800  51.295 -52.240  1.00  0.00     0.033 A 
HETATM   21 CL   UNL     1     -40.201  52.717 -50.003  1.00  0.00    -0.082 Cl
HETATM   22  C   UNL     1     -39.770  51.085 -53.619  1.00  0.00    -0.060 A 
HETATM   23  C   UNL     1     -39.394  49.747 -54.181  1.00  0.00     0.048 C 
HETATM   24  C   UNL     1     -40.136  52.136 -54.468  1.00  0.00     0.016 A 
HETATM   25  C   UNL     1     -40.512  53.402 -53.969  1.00  0.00    -0.033 A 
HETATM   26  C   UNL     1     -40.756  54.486 -54.984  1.00  0.00     0.050 C 
ENDBRANCH   1  18
TORSDOF 3
ENDMDL
MODEL 7
REMARK VINA RESULT:      -8.0      1.895      2.663
REMARK  3 active torsions:
REMARK  status: ('A' for Active; 'I' for Inactive)
REMARK    1  A    between atoms: C_6  and  N_7 
REMARK       I    between atoms: N_7  and  C_8 
REMARK    2  A    between atoms: C_8  and  C_9 
REMARK    3  A    between atoms: C_9  and  C_10 
ROOT
HETATM    1  N   UNL     1     -41.603  55.202 -52.242  1.00  0.00    -0.325 N 
HETATM    2  C   UNL     1     -42.731  55.393 -51.467  1.00  0.00     0.228 C 
HETATM    3  O   UNL     1     -43.422  54.510 -50.967  1.00  0.00    -0.273 OA
HETATM    4  H   UNL     1     -40.921  55.962 -52.178  1.00  0.00     0.169 HD
ENDROOT
BRANCH   2   5
HETATM    5  C   UNL     1     -43.105  56.852 -51.288  1.00  0.00     0.165 C 
BRANCH   5   6
HETATM    6  C   UNL     1     -42.728  57.750 -52.452  1.00  0.00     0.074 A 
HETATM    7  N   UNL     1     -41.594  58.381 -52.335  1.00  0.00    -0.175 NA
HETATM    8  N   UNL     1     -41.179  59.173 -53.355  1.00  0.00    -0.243 N 
HETATM    9  C   UNL     1     -41.821  59.346 -54.556  1.00  0.00     0.272 A 
HETATM   10  H   UNL     1     -40.293  59.656 -53.232  1.00  0.00     0.192 HD
HETATM   11  O   UNL     1     -41.361  60.050 -55.447  1.00  0.00    -0.266 OA
HETATM   12  C   UNL     1     -43.101  58.638 -54.712  1.00  0.00     0.046 A 
HETATM   13  C   UNL     1     -43.586  57.854 -53.662  1.00  0.00     0.006 A 
HETATM   14  C   UNL     1     -43.820  58.766 -55.907  1.00  0.00     0.018 A 
HETATM   15  C   UNL     1     -44.821  57.212 -53.812  1.00  0.00     0.014 A 
HETATM   16  C   UNL     1     -45.540  57.339 -55.008  1.00  0.00     0.001 A 
HETATM   17  C   UNL     1     -45.039  58.110 -56.054  1.00  0.00     0.001 A 
ENDBRANCH   5   6
ENDBRANCH   2   5
BRANCH   1  18
HETATM   18  C   UNL     1     -41.066  53.955 -52.651  1.00  0.00     0.062 A 
HETATM   19  C   UNL     1     -41.468  53.454 -53.907  1.00  0.00     0.061 A 
HETATM   20  C   UNL     1     -40.985  52.237 -54.395  1.00  0.00     0.033 A 
HETATM   21 CL   UNL     1     -42.551  54.347 -54.926  1.00  0.00    -0.082 Cl
HETATM   22  C   UNL     1     -40.110  51.472 -53.624  1.00  0.00    -0.060 A 
HETATM   23  C   UNL     1     -39.553  50.183 -54.151  1.00  0.00     0.048 C 
HETATM   24  C   UNL     1     -39.729  51.948 -52.364  1.00  0.00     0.016 A 
HETATM   25  C   UNL     1     -40.223  53.166 -51.847  1.00  0.00    -0.033 A 
HETATM   26  C   UNL     1     -39.844  53.505 -50.431  1.00  0.00     0.050 C 
ENDBRANCH   1  18
TORSDOF 3
ENDMDL
MODEL 8
REMARK VINA RESULT:      -8.0      2.581      3.572
REMARK  3 active torsions:
REMARK  status: ('A' for Active; 'I' for Inactive)
REMARK    1  A    between atoms: C_6  and  N_7 
REMARK       I    between atoms: N_7  and  C_8 
REMARK    2  A    between atoms: C_8  and  C_9 
REMARK    3  A    between atoms: C_9  and  C_10 
ROOT
HETATM    1  N   UNL     1     -41.691  54.802 -52.334  1.00  0.00    -0.325 N 
HETATM    2  C   UNL     1     -42.909  54.936 -51.696  1.00  0.00     0.228 C 
HETATM    3  O   UNL     1     -43.632  54.018 -51.319  1.00  0.00    -0.273 OA
HETATM    4  H   UNL     1     -41.042  55.573 -52.157  1.00  0.00     0.169 HD
ENDROOT
BRANCH   2   5
HETATM    5  C   UNL     1     -43.340  56.378 -51.507  1.00  0.00     0.165 C 
BRANCH   5   6
HETATM    6  C   UNL     1     -43.948  57.025 -52.739  1.00  0.00     0.074 A 
HETATM    7  N   UNL     1     -44.113  56.241 -53.766  1.00  0.00    -0.175 NA
HETATM    8  N   UNL     1     -44.685  56.745 -54.887  1.00  0.00    -0.243 N 
HETATM    9  C   UNL     1     -45.169  58.020 -55.043  1.00  0.00     0.272 A 
HETATM   10  H   UNL     1     -44.796  56.111 -55.673  1.00  0.00     0.192 HD
HETATM   11  O   UNL     1     -45.710  58.392 -56.078  1.00  0.00    -0.266 OA
HETATM   12  C   UNL     1     -44.996  58.922 -53.893  1.00  0.00     0.046 A 
HETATM   13  C   UNL     1     -44.366  58.452 -52.740  1.00  0.00     0.006 A 
HETATM   14  C   UNL     1     -45.460  60.241 -53.975  1.00  0.00     0.018 A 
HETATM   15  C   UNL     1     -44.179  59.330 -51.665  1.00  0.00     0.014 A 
HETATM   16  C   UNL     1     -44.644  60.649 -51.745  1.00  0.00     0.001 A 
HETATM   17  C   UNL     1     -45.287  61.103 -52.895  1.00  0.00     0.001 A 
ENDBRANCH   5   6
ENDBRANCH   2   5
BRANCH   1  18
HETATM   18  C   UNL     1     -41.075  53.585 -52.722  1.00  0.00     0.062 A 
HETATM   19  C   UNL     1     -41.352  53.101 -54.019  1.00  0.00     0.061 A 
HETATM   20  C   UNL     1     -40.785  51.914 -54.490  1.00  0.00     0.033 A 
HETATM   21 CL   UNL     1     -42.378  53.980 -55.106  1.00  0.00    -0.082 Cl
HETATM   22  C   UNL     1     -39.951  51.161 -53.664  1.00  0.00    -0.060 A 
HETATM   23  C   UNL     1     -39.304  49.906 -54.170  1.00  0.00     0.048 C 
HETATM   24  C   UNL     1     -39.694  51.620 -52.367  1.00  0.00     0.016 A 
HETATM   25  C   UNL     1     -40.274  52.806 -51.867  1.00  0.00    -0.033 A 
HETATM   26  C   UNL     1     -40.027  53.123 -50.417  1.00  0.00     0.050 C 
ENDBRANCH   1  18
TORSDOF 3
ENDMDL
MODEL 9
REMARK VINA RESULT:      -7.9      2.601      3.204
REMARK  3 active torsions:
REMARK  status: ('A' for Active; 'I' for Inactive)
REMARK    1  A    between atoms: C_6  and  N_7 
REMARK       I    between atoms: N_7  and  C_8 
REMARK    2  A    between atoms: C_8  and  C_9 
REMARK    3  A    between atoms: C_9  and  C_10 
ROOT
HETATM    1  N   UNL     1     -41.583  55.302 -52.823  1.00  0.00    -0.325 N 
HETATM    2  C   UNL     1     -42.763  55.511 -53.511  1.00  0.00     0.228 C 
HETATM    3  O   UNL     1     -43.527  54.639 -53.914  1.00  0.00    -0.273 OA
HETATM    4  H   UNL     1     -41.334  56.063 -52.184  1.00  0.00     0.169 HD
ENDROOT
BRANCH   2   5
HETATM    5  C   UNL     1     -43.057  56.974 -53.783  1.00  0.00     0.165 C 
BRANCH   5   6
HETATM    6  C   UNL     1     -43.942  57.646 -52.748  1.00  0.00     0.074 A 
HETATM    7  N   UNL     1     -43.943  57.101 -51.565  1.00  0.00    -0.175 NA
HETATM    8  N   UNL     1     -44.684  57.673 -50.584  1.00  0.00    -0.243 N 
HETATM    9  C   UNL     1     -45.415  58.829 -50.693  1.00  0.00     0.272 A 
HETATM   10  H   UNL     1     -44.669  57.222 -49.673  1.00  0.00     0.192 HD
HETATM   11  O   UNL     1     -46.030  59.306 -49.747  1.00  0.00    -0.266 OA
HETATM   12  C   UNL     1     -45.423  59.465 -52.020  1.00  0.00     0.046 A 
HETATM   13  C   UNL     1     -44.714  58.876 -53.069  1.00  0.00     0.006 A 
HETATM   14  C   UNL     1     -46.150  60.647 -52.216  1.00  0.00     0.018 A 
HETATM   15  C   UNL     1     -44.756  59.474 -54.334  1.00  0.00     0.014 A 
HETATM   16  C   UNL     1     -45.482  60.656 -54.530  1.00  0.00     0.001 A 
HETATM   17  C   UNL     1     -46.173  61.244 -53.473  1.00  0.00     0.001 A 
ENDBRANCH   5   6
ENDBRANCH   2   5
BRANCH   1  18
HETATM   18  C   UNL     1     -41.007  54.046 -52.503  1.00  0.00     0.062 A 
HETATM   19  C   UNL     1     -40.993  53.664 -51.145  1.00  0.00     0.061 A 
HETATM   20  C   UNL     1     -40.453  52.441 -50.738  1.00  0.00     0.033 A 
HETATM   21 CL   UNL     1     -41.686  54.676 -49.919  1.00  0.00    -0.082 Cl
HETATM   22  C   UNL     1     -39.882  51.581 -51.676  1.00  0.00    -0.060 A 
HETATM   23  C   UNL     1     -39.334  50.249 -51.259  1.00  0.00     0.048 C 
HETATM   24  C   UNL     1     -39.866  51.967 -53.021  1.00  0.00     0.016 A 
HETATM   25  C   UNL     1     -40.390  53.207 -53.449  1.00  0.00    -0.033 A 
HETATM   26  C   UNL     1     -40.195  53.562 -54.897  1.00  0.00     0.050 C 
ENDBRANCH   1  18
TORSDOF 3
ENDMDL
MODEL 10
REMARK VINA RESULT:      -7.9      3.930      5.305
REMARK  3 active torsions:
REMARK  status: ('A' for Active; 'I' for Inactive)
REMARK    1  A    between atoms: C_6  and  N_7 
REMARK       I    between atoms: N_7  and  C_8 
REMARK    2  A    between atoms: C_8  and  C_9 
REMARK    3  A    between atoms: C_9  and  C_10 
ROOT
HETATM    1  N   UNL     1     -42.239  55.812 -54.064  1.00  0.00    -0.325 N 
HETATM    2  C   UNL     1     -41.697  57.067 -54.265  1.00  0.00     0.228 C 
HETATM    3  O   UNL     1     -40.672  57.501 -53.748  1.00  0.00    -0.273 OA
HETATM    4  H   UNL     1     -42.767  55.454 -54.865  1.00  0.00     0.169 HD
ENDROOT
BRANCH   2   5
HETATM    5  C   UNL     1     -42.516  57.940 -55.196  1.00  0.00     0.165 C 
BRANCH   5   6
HETATM    6  C   UNL     1     -42.476  57.524 -56.655  1.00  0.00     0.074 A 
HETATM    7  N   UNL     1     -42.712  56.265 -56.891  1.00  0.00    -0.175 NA
HETATM    8  N   UNL     1     -42.728  55.833 -58.177  1.00  0.00    -0.243 N 
HETATM    9  C   UNL     1     -42.566  56.615 -59.293  1.00  0.00     0.272 A 
HETATM   10  H   UNL     1     -42.911  54.845 -58.328  1.00  0.00     0.192 HD
HETATM   11  O   UNL     1     -42.632  56.157 -60.428  1.00  0.00    -0.266 OA
HETATM   12  C   UNL     1     -42.302  58.042 -59.050  1.00  0.00     0.046 A 
HETATM   13  C   UNL     1     -42.227  58.513 -57.737  1.00  0.00     0.006 A 
HETATM   14  C   UNL     1     -42.120  58.906 -60.137  1.00  0.00     0.018 A 
HETATM   15  C   UNL     1     -41.944  59.867 -57.520  1.00  0.00     0.014 A 
HETATM   16  C   UNL     1     -41.763  60.732 -58.607  1.00  0.00     0.001 A 
HETATM   17  C   UNL     1     -41.856  60.254 -59.912  1.00  0.00     0.001 A 
ENDBRANCH   5   6
ENDBRANCH   2   5
BRANCH   1  18
HETATM   18  C   UNL     1     -41.746  54.814 -53.185  1.00  0.00     0.062 A 
HETATM   19  C   UNL     1     -40.799  53.903 -53.700  1.00  0.00     0.061 A 
HETATM   20  C   UNL     1     -40.254  52.892 -52.905  1.00  0.00     0.033 A 
HETATM   21 CL   UNL     1     -40.235  54.022 -55.336  1.00  0.00    -0.082 Cl
HETATM   22  C   UNL     1     -40.665  52.744 -51.580  1.00  0.00    -0.060 A 
HETATM   23  C   UNL     1     -40.059  51.689 -50.704  1.00  0.00     0.048 C 
HETATM   24  C   UNL     1     -41.625  53.626 -51.071  1.00  0.00     0.016 A 
HETATM   25  C   UNL     1     -42.202  54.641 -51.865  1.00  0.00    -0.033 A 
HETATM   26  C   UNL     1     -43.316  55.438 -51.243  1.00  0.00     0.050 C 
ENDBRANCH   1  18
TORSDOF 3
ENDMDL
