MODEL 1
REMARK VINA RESULT:      -5.9      0.000      0.000
REMARK  2 active torsions:
REMARK  status: ('A' for Active; 'I' for Inactive)
REMARK    1  A    between atoms: N_7  and  C_9 
REMARK    2  A    between atoms: C_9  and  C_10 
ROOT
HETATM    1  C   UNL     1     -41.995  60.121 -51.292  1.00  0.00     0.136 A 
HETATM    2  N   UNL     1     -41.064  59.539 -52.116  1.00  0.00    -0.244 NA
HETATM    3  C   UNL     1     -41.584  58.389 -52.484  1.00  0.00     0.131 A 
HETATM    4  N   UNL     1     -42.819  58.216 -51.915  1.00  0.00    -0.341 N 
HETATM    5  C   UNL     1     -43.627  57.025 -52.067  1.00  0.00     0.157 C 
HETATM    6  C   UNL     1     -43.177  56.181 -53.264  1.00  0.00     0.256 C 
HETATM    7  N   UNL     1     -41.663  56.027 -53.273  1.00  0.00    -0.059 N 
HETATM    8  H   UNL     1     -41.371  55.649 -52.362  1.00  0.00     0.280 HD
HETATM    9  C   UNL     1     -40.991  57.383 -53.399  1.00  0.00     0.313 C 
HETATM   10  C   UNL     1     -43.097  59.309 -51.153  1.00  0.00     0.111 A 
ENDROOT
BRANCH   7  11
HETATM   11  C   UNL     1     -41.147  55.074 -54.320  1.00  0.00     0.274 C 
BRANCH  11  12
HETATM   12  C   UNL     1     -40.659  53.787 -53.737  1.00  0.00    -0.024 A 
HETATM   13  C   UNL     1     -40.374  53.581 -52.395  1.00  0.00     0.059 A 
HETATM   14  S   UNL     1     -39.858  51.980 -52.067  1.00  0.00    -0.094 SA
HETATM   15  C   UNL     1     -39.975  51.559 -53.700  1.00  0.00     0.051 A 
HETATM   16 BR   UNL     1     -39.560  49.854 -54.353  1.00  0.00    -0.043 Br
HETATM   17  C   UNL     1     -40.406  52.591 -54.496  1.00  0.00     0.036 A 
ENDBRANCH  11  12
ENDBRANCH   7  11
TORSDOF 2
ENDMDL
MODEL 2
REMARK VINA RESULT:      -5.8      1.673      2.642
REMARK  2 active torsions:
REMARK  status: ('A' for Active; 'I' for Inactive)
REMARK    1  A    between atoms: N_7  and  C_9 
REMARK    2  A    between atoms: C_9  and  C_10 
ROOT
HETATM    1  C   UNL     1     -45.403  58.831 -51.093  1.00  0.00     0.136 A 
HETATM    2  N   UNL     1     -45.213  57.473 -51.016  1.00  0.00    -0.244 NA
HETATM    3  C   UNL     1     -43.912  57.295 -51.041  1.00  0.00     0.131 A 
HETATM    4  N   UNL     1     -43.262  58.499 -51.137  1.00  0.00    -0.341 N 
HETATM    5  C   UNL     1     -41.827  58.645 -51.252  1.00  0.00     0.157 C 
HETATM    6  C   UNL     1     -41.089  57.376 -50.812  1.00  0.00     0.256 C 
HETATM    7  N   UNL     1     -41.736  56.140 -51.421  1.00  0.00    -0.059 N 
HETATM    8  H   UNL     1     -41.778  56.267 -52.440  1.00  0.00     0.280 HD
HETATM    9  C   UNL     1     -43.176  56.009 -50.956  1.00  0.00     0.313 C 
HETATM   10  C   UNL     1     -44.196  59.487 -51.172  1.00  0.00     0.111 A 
ENDROOT
BRANCH   7  11
HETATM   11  C   UNL     1     -40.976  54.862 -51.176  1.00  0.00     0.274 C 
BRANCH  11  12
HETATM   12  C   UNL     1     -40.714  54.099 -52.434  1.00  0.00    -0.024 A 
HETATM   13  C   UNL     1     -40.672  54.652 -53.705  1.00  0.00     0.059 A 
HETATM   14  S   UNL     1     -40.325  53.494 -54.919  1.00  0.00    -0.094 SA
HETATM   15  C   UNL     1     -40.263  52.248 -53.778  1.00  0.00     0.051 A 
HETATM   16 BR   UNL     1     -39.920  50.463 -54.225  1.00  0.00    -0.043 Br
HETATM   17  C   UNL     1     -40.485  52.679 -52.494  1.00  0.00     0.036 A 
ENDBRANCH  11  12
ENDBRANCH   7  11
TORSDOF 2
ENDMDL
MODEL 3
REMARK VINA RESULT:      -5.7      2.769      4.129
REMARK  2 active torsions:
REMARK  status: ('A' for Active; 'I' for Inactive)
REMARK    1  A    between atoms: N_7  and  C_9 
REMARK    2  A    between atoms: C_9  and  C_10 
ROOT
HETATM    1  C   UNL     1     -42.866  56.720 -58.891  1.00  0.00     0.136 A 
HETATM    2  N   UNL     1     -43.113  55.538 -58.236  1.00  0.00    -0.244 NA
HETATM    3  C   UNL     1     -42.893  55.785 -56.964  1.00  0.00     0.131 A 
HETATM    4  N   UNL     1     -42.507  57.089 -56.786  1.00  0.00    -0.341 N 
HETATM    5  C   UNL     1     -42.128  57.661 -55.512  1.00  0.00     0.157 C 
HETATM    6  C   UNL     1     -42.621  56.810 -54.337  1.00  0.00     0.256 C 
HETATM    7  N   UNL     1     -42.325  55.337 -54.579  1.00  0.00    -0.059 N 
HETATM    8  H   UNL     1     -41.320  55.238 -54.775  1.00  0.00     0.280 HD
HETATM    9  C   UNL     1     -43.043  54.847 -55.824  1.00  0.00     0.313 C 
HETATM   10  C   UNL     1     -42.484  57.698 -58.002  1.00  0.00     0.111 A 
ENDROOT
BRANCH   7  11
HETATM   11  C   UNL     1     -42.625  54.446 -53.402  1.00  0.00     0.274 C 
BRANCH  11  12
HETATM   12  C   UNL     1     -41.548  53.440 -53.152  1.00  0.00    -0.024 A 
HETATM   13  C   UNL     1     -40.724  53.418 -52.037  1.00  0.00     0.059 A 
HETATM   14  S   UNL     1     -39.613  52.114 -52.061  1.00  0.00    -0.094 SA
HETATM   15  C   UNL     1     -40.190  51.590 -53.561  1.00  0.00     0.051 A 
HETATM   16 BR   UNL     1     -39.502  50.100 -54.462  1.00  0.00    -0.043 Br
HETATM   17  C   UNL     1     -41.212  52.365 -54.049  1.00  0.00     0.036 A 
ENDBRANCH  11  12
ENDBRANCH   7  11
TORSDOF 2
ENDMDL
MODEL 4
REMARK VINA RESULT:      -5.6      3.888      6.494
REMARK  2 active torsions:
REMARK  status: ('A' for Active; 'I' for Inactive)
REMARK    1  A    between atoms: N_7  and  C_9 
REMARK    2  A    between atoms: C_9  and  C_10 
ROOT
HETATM    1  C   UNL     1     -39.457  51.305 -53.195  1.00  0.00     0.136 A 
HETATM    2  N   UNL     1     -39.675  51.999 -52.030  1.00  0.00    -0.244 NA
HETATM    3  C   UNL     1     -40.613  52.875 -52.308  1.00  0.00     0.131 A 
HETATM    4  N   UNL     1     -40.999  52.768 -53.620  1.00  0.00    -0.341 N 
HETATM    5  C   UNL     1     -41.967  53.633 -54.259  1.00  0.00     0.157 C 
HETATM    6  C   UNL     1     -42.831  54.375 -53.234  1.00  0.00     0.256 C 
HETATM    7  N   UNL     1     -41.967  54.960 -52.126  1.00  0.00    -0.059 N 
HETATM    8  H   UNL     1     -41.238  55.543 -52.558  1.00  0.00     0.280 HD
HETATM    9  C   UNL     1     -41.233  53.856 -51.384  1.00  0.00     0.313 C 
HETATM   10  C   UNL     1     -40.273  51.774 -54.199  1.00  0.00     0.111 A 
ENDROOT
BRANCH   7  11
HETATM   11  C   UNL     1     -42.714  55.847 -51.164  1.00  0.00     0.274 C 
BRANCH  11  12
HETATM   12  C   UNL     1     -42.156  57.233 -51.108  1.00  0.00    -0.024 A 
HETATM   13  C   UNL     1     -42.861  58.386 -51.416  1.00  0.00     0.059 A 
HETATM   14  S   UNL     1     -41.922  59.807 -51.223  1.00  0.00    -0.094 SA
HETATM   15  C   UNL     1     -40.568  58.905 -50.765  1.00  0.00     0.051 A 
HETATM   16 BR   UNL     1     -38.918  59.677 -50.334  1.00  0.00    -0.043 Br
HETATM   17  C   UNL     1     -40.802  57.553 -50.740  1.00  0.00     0.036 A 
ENDBRANCH  11  12
ENDBRANCH   7  11
TORSDOF 2
ENDMDL
MODEL 5
REMARK VINA RESULT:      -5.6      3.996      6.883
REMARK  2 active torsions:
REMARK  status: ('A' for Active; 'I' for Inactive)
REMARK    1  A    between atoms: N_7  and  C_9 
REMARK    2  A    between atoms: C_9  and  C_10 
ROOT
HETATM    1  C   UNL     1     -39.428  49.373 -52.499  1.00  0.00     0.136 A 
HETATM    2  N   UNL     1     -39.639  50.224 -53.557  1.00  0.00    -0.244 NA
HETATM    3  C   UNL     1     -39.908  51.393 -53.022  1.00  0.00     0.131 A 
HETATM    4  N   UNL     1     -39.881  51.316 -51.654  1.00  0.00    -0.341 N 
HETATM    5  C   UNL     1     -40.198  52.415 -50.768  1.00  0.00     0.157 C 
HETATM    6  C   UNL     1     -40.131  53.765 -51.489  1.00  0.00     0.256 C 
HETATM    7  N   UNL     1     -40.848  53.694 -52.830  1.00  0.00    -0.059 N 
HETATM    8  H   UNL     1     -41.804  53.355 -52.667  1.00  0.00     0.280 HD
HETATM    9  C   UNL     1     -40.187  52.666 -53.732  1.00  0.00     0.313 C 
HETATM   10  C   UNL     1     -39.577  50.037 -51.304  1.00  0.00     0.111 A 
ENDROOT
BRANCH   7  11
HETATM   11  C   UNL     1     -40.974  55.021 -53.533  1.00  0.00     0.274 C 
BRANCH  11  12
HETATM   12  C   UNL     1     -41.743  56.024 -52.734  1.00  0.00    -0.024 A 
HETATM   13  C   UNL     1     -43.069  55.888 -52.353  1.00  0.00     0.059 A 
HETATM   14  S   UNL     1     -43.631  57.214 -51.425  1.00  0.00    -0.094 SA
HETATM   15  C   UNL     1     -42.135  57.993 -51.548  1.00  0.00     0.051 A 
HETATM   16 BR   UNL     1     -41.781  59.663 -50.781  1.00  0.00    -0.043 Br
HETATM   17  C   UNL     1     -41.209  57.275 -52.264  1.00  0.00     0.036 A 
ENDBRANCH  11  12
ENDBRANCH   7  11
TORSDOF 2
ENDMDL
MODEL 6
REMARK VINA RESULT:      -5.4     15.345     16.799
REMARK  2 active torsions:
REMARK  status: ('A' for Active; 'I' for Inactive)
REMARK    1  A    between atoms: N_7  and  C_9 
REMARK    2  A    between atoms: C_9  and  C_10 
ROOT
HETATM    1  C   UNL     1     -32.169  39.973 -53.613  1.00  0.00     0.136 A 
HETATM    2  N   UNL     1     -32.582  40.516 -54.805  1.00  0.00    -0.244 NA
HETATM    3  C   UNL     1     -33.828  40.887 -54.613  1.00  0.00     0.131 A 
HETATM    4  N   UNL     1     -34.226  40.593 -53.334  1.00  0.00    -0.341 N 
HETATM    5  C   UNL     1     -35.562  40.816 -52.825  1.00  0.00     0.157 C 
HETATM    6  C   UNL     1     -36.345  41.805 -53.694  1.00  0.00     0.256 C 
HETATM    7  N   UNL     1     -36.187  41.465 -55.170  1.00  0.00    -0.059 N 
HETATM    8  H   UNL     1     -36.459  40.483 -55.305  1.00  0.00     0.280 HD
HETATM    9  C   UNL     1     -34.729  41.556 -55.583  1.00  0.00     0.313 C 
HETATM   10  C   UNL     1     -33.183  40.011 -52.684  1.00  0.00     0.111 A 
ENDROOT
BRANCH   7  11
HETATM   11  C   UNL     1     -37.057  42.284 -56.088  1.00  0.00     0.274 C 
BRANCH  11  12
HETATM   12  C   UNL     1     -37.298  41.613 -57.401  1.00  0.00    -0.024 A 
HETATM   13  C   UNL     1     -36.926  42.124 -58.635  1.00  0.00     0.059 A 
HETATM   14  S   UNL     1     -37.336  41.084 -59.934  1.00  0.00    -0.094 SA
HETATM   15  C   UNL     1     -38.039  39.967 -58.877  1.00  0.00     0.051 A 
HETATM   16 BR   UNL     1     -38.833  38.372 -59.450  1.00  0.00    -0.043 Br
HETATM   17  C   UNL     1     -37.966  40.348 -57.560  1.00  0.00     0.036 A 
ENDBRANCH  11  12
ENDBRANCH   7  11
TORSDOF 2
ENDMDL
MODEL 7
REMARK VINA RESULT:      -5.4      5.381      6.649
REMARK  2 active torsions:
REMARK  status: ('A' for Active; 'I' for Inactive)
REMARK    1  A    between atoms: N_7  and  C_9 
REMARK    2  A    between atoms: C_9  and  C_10 
ROOT
HETATM    1  C   UNL     1     -47.159  56.800 -60.606  1.00  0.00     0.136 A 
HETATM    2  N   UNL     1     -46.751  57.474 -59.481  1.00  0.00    -0.244 NA
HETATM    3  C   UNL     1     -45.597  56.942 -59.147  1.00  0.00     0.131 A 
HETATM    4  N   UNL     1     -45.257  55.942 -60.022  1.00  0.00    -0.341 N 
HETATM    5  C   UNL     1     -44.077  55.114 -59.895  1.00  0.00     0.157 C 
HETATM    6  C   UNL     1     -43.036  55.745 -58.964  1.00  0.00     0.256 C 
HETATM    7  N   UNL     1     -43.694  56.257 -57.690  1.00  0.00    -0.059 N 
HETATM    8  H   UNL     1     -44.220  55.482 -57.266  1.00  0.00     0.280 HD
HETATM    9  C   UNL     1     -44.720  57.329 -58.015  1.00  0.00     0.313 C 
HETATM   10  C   UNL     1     -46.240  55.838 -60.956  1.00  0.00     0.111 A 
ENDROOT
BRANCH   7  11
HETATM   11  C   UNL     1     -42.722  56.743 -56.647  1.00  0.00     0.274 C 
BRANCH  11  12
HETATM   12  C   UNL     1     -42.524  55.756 -55.542  1.00  0.00    -0.024 A 
HETATM   13  C   UNL     1     -43.263  55.717 -54.369  1.00  0.00     0.059 A 
HETATM   14  S   UNL     1     -42.786  54.441 -53.328  1.00  0.00    -0.094 SA
HETATM   15  C   UNL     1     -41.578  53.953 -54.405  1.00  0.00     0.051 A 
HETATM   16 BR   UNL     1     -40.431  52.511 -54.076  1.00  0.00    -0.043 Br
HETATM   17  C   UNL     1     -41.526  54.719 -55.543  1.00  0.00     0.036 A 
ENDBRANCH  11  12
ENDBRANCH   7  11
TORSDOF 2
ENDMDL
MODEL 8
REMARK VINA RESULT:      -5.2      4.454      5.577
REMARK  2 active torsions:
REMARK  status: ('A' for Active; 'I' for Inactive)
REMARK    1  A    between atoms: N_7  and  C_9 
REMARK    2  A    between atoms: C_9  and  C_10 
ROOT
HETATM    1  C   UNL     1     -42.271  57.993 -60.514  1.00  0.00     0.136 A 
HETATM    2  N   UNL     1     -42.647  56.694 -60.268  1.00  0.00    -0.244 NA
HETATM    3  C   UNL     1     -42.743  56.594 -58.962  1.00  0.00     0.131 A 
HETATM    4  N   UNL     1     -42.434  57.788 -58.363  1.00  0.00    -0.341 N 
HETATM    5  C   UNL     1     -42.382  57.994 -56.931  1.00  0.00     0.157 C 
HETATM    6  C   UNL     1     -43.126  56.892 -56.171  1.00  0.00     0.256 C 
HETATM    7  N   UNL     1     -42.754  55.519 -56.713  1.00  0.00    -0.059 N 
HETATM    8  H   UNL     1     -41.731  55.427 -56.685  1.00  0.00     0.280 HD
HETATM    9  C   UNL     1     -43.145  55.401 -58.176  1.00  0.00     0.313 C 
HETATM   10  C   UNL     1     -42.131  58.689 -59.336  1.00  0.00     0.111 A 
ENDROOT
BRANCH   7  11
HETATM   11  C   UNL     1     -43.312  54.369 -55.915  1.00  0.00     0.274 C 
BRANCH  11  12
HETATM   12  C   UNL     1     -42.593  54.164 -54.621  1.00  0.00    -0.024 A 
HETATM   13  C   UNL     1     -41.339  53.587 -54.492  1.00  0.00     0.059 A 
HETATM   14  S   UNL     1     -40.802  53.528 -52.865  1.00  0.00    -0.094 SA
HETATM   15  C   UNL     1     -42.237  54.234 -52.318  1.00  0.00     0.051 A 
HETATM   16 BR   UNL     1     -42.587  54.580 -50.512  1.00  0.00    -0.043 Br
HETATM   17  C   UNL     1     -43.116  54.528 -53.331  1.00  0.00     0.036 A 
ENDBRANCH  11  12
ENDBRANCH   7  11
TORSDOF 2
ENDMDL
MODEL 9
REMARK VINA RESULT:      -5.2      5.639      6.856
REMARK  2 active torsions:
REMARK  status: ('A' for Active; 'I' for Inactive)
REMARK    1  A    between atoms: N_7  and  C_9 
REMARK    2  A    between atoms: C_9  and  C_10 
ROOT
HETATM    1  C   UNL     1     -42.296  53.793 -53.051  1.00  0.00     0.136 A 
HETATM    2  N   UNL     1     -41.901  53.896 -54.362  1.00  0.00    -0.244 NA
HETATM    3  C   UNL     1     -42.534  54.943 -54.842  1.00  0.00     0.131 A 
HETATM    4  N   UNL     1     -43.327  55.510 -53.879  1.00  0.00    -0.341 N 
HETATM    5  C   UNL     1     -44.203  56.640 -54.104  1.00  0.00     0.157 C 
HETATM    6  C   UNL     1     -43.830  57.404 -55.378  1.00  0.00     0.256 C 
HETATM    7  N   UNL     1     -43.590  56.440 -56.532  1.00  0.00    -0.059 N 
HETATM    8  H   UNL     1     -44.420  55.842 -56.631  1.00  0.00     0.280 HD
HETATM    9  C   UNL     1     -42.436  55.505 -56.212  1.00  0.00     0.313 C 
HETATM   10  C   UNL     1     -43.188  54.791 -52.732  1.00  0.00     0.111 A 
ENDROOT
BRANCH   7  11
HETATM   11  C   UNL     1     -43.380  57.113 -57.864  1.00  0.00     0.274 C 
BRANCH  11  12
HETATM   12  C   UNL     1     -44.193  56.493 -58.955  1.00  0.00    -0.024 A 
HETATM   13  C   UNL     1     -43.847  55.344 -59.648  1.00  0.00     0.059 A 
HETATM   14  S   UNL     1     -45.017  54.899 -60.819  1.00  0.00    -0.094 SA
HETATM   15  C   UNL     1     -45.972  56.242 -60.440  1.00  0.00     0.051 A 
HETATM   16 BR   UNL     1     -47.592  56.623 -61.298  1.00  0.00    -0.043 Br
HETATM   17  C   UNL     1     -45.441  57.020 -59.442  1.00  0.00     0.036 A 
ENDBRANCH  11  12
ENDBRANCH   7  11
TORSDOF 2
ENDMDL
MODEL 10
REMARK VINA RESULT:      -5.1      3.780      6.323
REMARK  2 active torsions:
REMARK  status: ('A' for Active; 'I' for Inactive)
REMARK    1  A    between atoms: N_7  and  C_9 
REMARK    2  A    between atoms: C_9  and  C_10 
ROOT
HETATM    1  C   UNL     1     -39.592  51.609 -53.551  1.00  0.00     0.136 A 
HETATM    2  N   UNL     1     -40.404  52.685 -53.813  1.00  0.00    -0.244 NA
HETATM    3  C   UNL     1     -40.736  53.173 -52.639  1.00  0.00     0.131 A 
HETATM    4  N   UNL     1     -40.165  52.438 -51.632  1.00  0.00    -0.341 N 
HETATM    5  C   UNL     1     -40.386  52.675 -50.222  1.00  0.00     0.157 C 
HETATM    6  C   UNL     1     -40.949  54.076 -49.962  1.00  0.00     0.256 C 
HETATM    7  N   UNL     1     -42.083  54.387 -50.928  1.00  0.00    -0.059 N 
HETATM    8  H   UNL     1     -42.782  53.636 -50.859  1.00  0.00     0.280 HD
HETATM    9  C   UNL     1     -41.582  54.360 -52.362  1.00  0.00     0.313 C 
HETATM   10  C   UNL     1     -39.433  51.438 -52.195  1.00  0.00     0.111 A 
ENDROOT
BRANCH   7  11
HETATM   11  C   UNL     1     -42.805  55.677 -50.637  1.00  0.00     0.274 C 
BRANCH  11  12
HETATM   12  C   UNL     1     -42.107  56.868 -51.209  1.00  0.00    -0.024 A 
HETATM   13  C   UNL     1     -41.007  57.493 -50.640  1.00  0.00     0.059 A 
HETATM   14  S   UNL     1     -40.443  58.817 -51.571  1.00  0.00    -0.094 SA
HETATM   15  C   UNL     1     -41.670  58.594 -52.714  1.00  0.00     0.051 A 
HETATM   16 BR   UNL     1     -41.875  59.682 -54.224  1.00  0.00    -0.043 Br
HETATM   17  C   UNL     1     -42.495  57.537 -52.423  1.00  0.00     0.036 A 
ENDBRANCH  11  12
ENDBRANCH   7  11
TORSDOF 2
ENDMDL
