MODEL 1
REMARK VINA RESULT:      -8.7      0.000      0.000
REMARK  5 active torsions:
REMARK  status: ('A' for Active; 'I' for Inactive)
REMARK    1  A    between atoms: C_3  and  C_4 
REMARK    2  A    between atoms: C_6  and  N_7 
REMARK       I    between atoms: N_7  and  C_8 
REMARK    3  A    between atoms: C_8  and  C_9 
REMARK    4  A    between atoms: C_14  and  O_15 
REMARK    5  A    between atoms: O_15  and  C_16 
ROOT
HETATM    1  N   UNL     1     -42.433  55.384 -56.924  1.00  0.00    -0.322 N 
HETATM    2  C   UNL     1     -42.868  55.575 -55.623  1.00  0.00     0.272 C 
HETATM    3  O   UNL     1     -43.752  56.362 -55.291  1.00  0.00    -0.266 OA
HETATM    4  H   UNL     1     -41.624  54.790 -57.043  1.00  0.00     0.169 HD
ENDROOT
BRANCH   2   5
HETATM    5  C   UNL     1     -42.165  54.787 -54.629  1.00  0.00     0.102 A 
HETATM    6  N   UNL     1     -42.338  55.021 -53.279  1.00  0.00    -0.351 N 
HETATM    7  H   UNL     1     -42.951  55.734 -52.908  1.00  0.00     0.166 HD
HETATM    8  C   UNL     1     -41.580  54.162 -52.522  1.00  0.00     0.045 A 
HETATM    9  C   UNL     1     -40.895  53.333 -53.405  1.00  0.00     0.026 A 
HETATM   10  C   UNL     1     -41.458  54.053 -51.134  1.00  0.00     0.030 A 
HETATM   11  C   UNL     1     -40.031  52.340 -52.892  1.00  0.00     0.087 A 
HETATM   12  C   UNL     1     -41.272  53.733 -54.723  1.00  0.00     0.052 A 
HETATM   13  C   UNL     1     -39.925  52.199 -51.500  1.00  0.00     0.038 A 
HETATM   14  C   UNL     1     -40.620  53.050 -50.639  1.00  0.00     0.005 A 
BRANCH  11  15
HETATM   15  O   UNL     1     -39.385  51.529 -53.788  1.00  0.00    -0.289 OA
BRANCH  15  16
HETATM   16  C   UNL     1     -39.900  50.208 -53.852  1.00  0.00     0.505 C 
HETATM   17  F   UNL     1     -41.074  50.230 -54.530  1.00  0.00    -0.184 F 
HETATM   18  F   UNL     1     -39.033  49.478 -54.599  1.00  0.00    -0.184 F 
ENDBRANCH  15  16
ENDBRANCH  11  15
ENDBRANCH   2   5
BRANCH   1  19
HETATM   19  C   UNL     1     -42.925  56.009 -58.089  1.00  0.00     0.035 A 
HETATM   20  C   UNL     1     -42.621  57.325 -58.444  1.00  0.00     0.044 A 
HETATM   21  C   UNL     1     -43.091  57.882 -59.637  1.00  0.00     0.010 A 
HETATM   22  C   UNL     1     -43.926  57.122 -60.464  1.00  0.00     0.015 A 
HETATM   23  C   UNL     1     -44.265  55.817 -60.101  1.00  0.00     0.003 A 
HETATM   24  C   UNL     1     -43.765  55.263 -58.921  1.00  0.00     0.029 A 
BRANCH  21  25
HETATM   25  C   UNL     1     -42.725  59.294 -60.037  1.00  0.00     0.117 A 
HETATM   26  N   UNL     1     -43.145  60.495 -59.561  1.00  0.00    -0.346 N 
HETATM   27  C   UNL     1     -44.004  60.734 -58.399  1.00  0.00     0.157 C 
HETATM   28  C   UNL     1     -42.574  61.525 -60.302  1.00  0.00     0.109 A 
HETATM   29  C   UNL     1     -41.743  60.950 -61.210  1.00  0.00     0.107 A 
HETATM   30  N   UNL     1     -41.841  59.601 -61.008  1.00  0.00    -0.350 N 
HETATM   31  H   UNL     1     -41.359  58.901 -61.562  1.00  0.00     0.166 HD
ENDBRANCH  21  25
ENDBRANCH   1  19
TORSDOF 5
ENDMDL
MODEL 2
REMARK VINA RESULT:      -8.6      3.265      9.082
REMARK  5 active torsions:
REMARK  status: ('A' for Active; 'I' for Inactive)
REMARK    1  A    between atoms: C_3  and  C_4 
REMARK    2  A    between atoms: C_6  and  N_7 
REMARK       I    between atoms: N_7  and  C_8 
REMARK    3  A    between atoms: C_8  and  C_9 
REMARK    4  A    between atoms: C_14  and  O_15 
REMARK    5  A    between atoms: O_15  and  C_16 
ROOT
HETATM    1  N   UNL     1     -41.167  54.503 -55.342  1.00  0.00    -0.322 N 
HETATM    2  C   UNL     1     -42.484  54.745 -55.694  1.00  0.00     0.272 C 
HETATM    3  O   UNL     1     -43.460  54.277 -55.110  1.00  0.00    -0.266 OA
HETATM    4  H   UNL     1     -40.462  54.859 -55.973  1.00  0.00     0.169 HD
ENDROOT
BRANCH   2   5
HETATM    5  C   UNL     1     -42.654  55.588 -56.861  1.00  0.00     0.102 A 
HETATM    6  N   UNL     1     -42.155  56.875 -56.892  1.00  0.00    -0.351 N 
HETATM    7  H   UNL     1     -41.650  57.300 -56.125  1.00  0.00     0.166 HD
HETATM    8  C   UNL     1     -42.428  57.489 -58.091  1.00  0.00     0.045 A 
HETATM    9  C   UNL     1     -43.121  56.569 -58.873  1.00  0.00     0.026 A 
HETATM   10  C   UNL     1     -42.108  58.774 -58.538  1.00  0.00     0.030 A 
HETATM   11  C   UNL     1     -43.531  56.939 -60.173  1.00  0.00     0.087 A 
HETATM   12  C   UNL     1     -43.254  55.381 -58.093  1.00  0.00     0.052 A 
HETATM   13  C   UNL     1     -43.188  58.215 -60.646  1.00  0.00     0.038 A 
HETATM   14  C   UNL     1     -42.497  59.117 -59.836  1.00  0.00     0.005 A 
BRANCH  11  15
HETATM   15  O   UNL     1     -44.196  56.005 -60.923  1.00  0.00    -0.289 OA
BRANCH  15  16
HETATM   16  C   UNL     1     -45.577  55.893 -60.618  1.00  0.00     0.505 C 
HETATM   17  F   UNL     1     -46.272  55.779 -61.777  1.00  0.00    -0.184 F 
HETATM   18  F   UNL     1     -45.744  54.725 -59.948  1.00  0.00    -0.184 F 
ENDBRANCH  15  16
ENDBRANCH  11  15
ENDBRANCH   2   5
BRANCH   1  19
HETATM   19  C   UNL     1     -40.701  53.726 -54.261  1.00  0.00     0.035 A 
HETATM   20  C   UNL     1     -40.820  54.116 -52.925  1.00  0.00     0.044 A 
HETATM   21  C   UNL     1     -40.389  53.286 -51.886  1.00  0.00     0.010 A 
HETATM   22  C   UNL     1     -39.778  52.065 -52.195  1.00  0.00     0.015 A 
HETATM   23  C   UNL     1     -39.623  51.681 -53.528  1.00  0.00     0.003 A 
HETATM   24  C   UNL     1     -40.085  52.507 -54.555  1.00  0.00     0.029 A 
BRANCH  21  25
HETATM   25  C   UNL     1     -40.557  53.695 -50.439  1.00  0.00     0.117 A 
HETATM   26  N   UNL     1     -40.884  54.888 -49.880  1.00  0.00    -0.346 N 
HETATM   27  C   UNL     1     -41.299  56.107 -50.577  1.00  0.00     0.157 C 
HETATM   28  C   UNL     1     -40.845  54.788 -48.492  1.00  0.00     0.109 A 
HETATM   29  C   UNL     1     -40.548  53.497 -48.193  1.00  0.00     0.107 A 
HETATM   30  N   UNL     1     -40.402  52.857 -49.394  1.00  0.00    -0.350 N 
HETATM   31  H   UNL     1     -40.143  51.881 -49.496  1.00  0.00     0.166 HD
ENDBRANCH  21  25
ENDBRANCH   1  19
TORSDOF 5
ENDMDL
MODEL 3
REMARK VINA RESULT:      -8.6      1.804      2.970
REMARK  5 active torsions:
REMARK  status: ('A' for Active; 'I' for Inactive)
REMARK    1  A    between atoms: C_3  and  C_4 
REMARK    2  A    between atoms: C_6  and  N_7 
REMARK       I    between atoms: N_7  and  C_8 
REMARK    3  A    between atoms: C_8  and  C_9 
REMARK    4  A    between atoms: C_14  and  O_15 
REMARK    5  A    between atoms: O_15  and  C_16 
ROOT
HETATM    1  N   UNL     1     -42.176  56.124 -56.555  1.00  0.00    -0.322 N 
HETATM    2  C   UNL     1     -42.511  56.136 -55.212  1.00  0.00     0.272 C 
HETATM    3  O   UNL     1     -43.302  56.923 -54.697  1.00  0.00    -0.266 OA
HETATM    4  H   UNL     1     -41.429  55.498 -56.825  1.00  0.00     0.169 HD
ENDROOT
BRANCH   2   5
HETATM    5  C   UNL     1     -41.818  55.150 -54.406  1.00  0.00     0.102 A 
HETATM    6  N   UNL     1     -41.723  55.285 -53.036  1.00  0.00    -0.351 N 
HETATM    7  H   UNL     1     -42.124  56.057 -52.519  1.00  0.00     0.166 HD
HETATM    8  C   UNL     1     -41.028  54.241 -52.476  1.00  0.00     0.045 A 
HETATM    9  C   UNL     1     -40.662  53.390 -53.515  1.00  0.00     0.026 A 
HETATM   10  C   UNL     1     -40.706  53.985 -51.141  1.00  0.00     0.030 A 
HETATM   11  C   UNL     1     -39.928  52.219 -53.223  1.00  0.00     0.087 A 
HETATM   12  C   UNL     1     -41.164  53.969 -54.720  1.00  0.00     0.052 A 
HETATM   13  C   UNL     1     -39.627  51.934 -51.882  1.00  0.00     0.038 A 
HETATM   14  C   UNL     1     -40.002  52.810 -50.863  1.00  0.00     0.005 A 
BRANCH  11  15
HETATM   15  O   UNL     1     -39.598  51.394 -54.266  1.00  0.00    -0.289 OA
BRANCH  15  16
HETATM   16  C   UNL     1     -40.260  50.139 -54.246  1.00  0.00     0.505 C 
HETATM   17  F   UNL     1     -41.544  50.317 -54.645  1.00  0.00    -0.184 F 
HETATM   18  F   UNL     1     -39.666  49.359 -55.184  1.00  0.00    -0.184 F 
ENDBRANCH  15  16
ENDBRANCH  11  15
ENDBRANCH   2   5
BRANCH   1  19
HETATM   19  C   UNL     1     -42.685  56.960 -57.570  1.00  0.00     0.035 A 
HETATM   20  C   UNL     1     -43.824  56.656 -58.320  1.00  0.00     0.044 A 
HETATM   21  C   UNL     1     -44.319  57.544 -59.279  1.00  0.00     0.010 A 
HETATM   22  C   UNL     1     -43.629  58.735 -59.530  1.00  0.00     0.015 A 
HETATM   23  C   UNL     1     -42.470  59.033 -58.811  1.00  0.00     0.003 A 
HETATM   24  C   UNL     1     -42.002  58.151 -57.834  1.00  0.00     0.029 A 
BRANCH  21  25
HETATM   25  C   UNL     1     -45.577  57.229 -60.059  1.00  0.00     0.117 A 
HETATM   26  N   UNL     1     -45.897  56.170 -60.847  1.00  0.00    -0.346 N 
HETATM   27  C   UNL     1     -45.116  54.947 -61.046  1.00  0.00     0.157 C 
HETATM   28  C   UNL     1     -47.154  56.363 -61.414  1.00  0.00     0.109 A 
HETATM   29  C   UNL     1     -47.639  57.532 -60.919  1.00  0.00     0.107 A 
HETATM   30  N   UNL     1     -46.669  58.019 -60.085  1.00  0.00    -0.350 N 
HETATM   31  H   UNL     1     -46.728  58.903 -59.591  1.00  0.00     0.166 HD
ENDBRANCH  21  25
ENDBRANCH   1  19
TORSDOF 5
ENDMDL
MODEL 4
REMARK VINA RESULT:      -8.2      1.573      1.981
REMARK  5 active torsions:
REMARK  status: ('A' for Active; 'I' for Inactive)
REMARK    1  A    between atoms: C_3  and  C_4 
REMARK    2  A    between atoms: C_6  and  N_7 
REMARK       I    between atoms: N_7  and  C_8 
REMARK    3  A    between atoms: C_8  and  C_9 
REMARK    4  A    between atoms: C_14  and  O_15 
REMARK    5  A    between atoms: O_15  and  C_16 
ROOT
HETATM    1  N   UNL     1     -42.472  55.576 -56.767  1.00  0.00    -0.322 N 
HETATM    2  C   UNL     1     -41.957  56.099 -55.593  1.00  0.00     0.272 C 
HETATM    3  O   UNL     1     -41.908  57.297 -55.326  1.00  0.00    -0.266 OA
HETATM    4  H   UNL     1     -42.349  54.582 -56.907  1.00  0.00     0.169 HD
ENDROOT
BRANCH   2   5
HETATM    5  C   UNL     1     -41.424  55.112 -54.674  1.00  0.00     0.102 A 
HETATM    6  N   UNL     1     -41.506  55.290 -53.307  1.00  0.00    -0.351 N 
HETATM    7  H   UNL     1     -41.936  56.096 -52.871  1.00  0.00     0.166 HD
HETATM    8  C   UNL     1     -40.941  54.237 -52.631  1.00  0.00     0.045 A 
HETATM    9  C   UNL     1     -40.480  53.336 -53.587  1.00  0.00     0.026 A 
HETATM   10  C   UNL     1     -40.811  54.014 -51.257  1.00  0.00     0.030 A 
HETATM   11  C   UNL     1     -39.847  52.146 -53.165  1.00  0.00     0.087 A 
HETATM   12  C   UNL     1     -40.791  53.894 -54.863  1.00  0.00     0.052 A 
HETATM   13  C   UNL     1     -39.740  51.895 -51.789  1.00  0.00     0.038 A 
HETATM   14  C   UNL     1     -40.207  52.820 -50.854  1.00  0.00     0.005 A 
BRANCH  11  15
HETATM   15  O   UNL     1     -39.421  51.273 -54.131  1.00  0.00    -0.289 OA
BRANCH  15  16
HETATM   16  C   UNL     1     -40.195  50.087 -54.225  1.00  0.00     0.505 C 
HETATM   17  F   UNL     1     -41.452  50.416 -54.615  1.00  0.00    -0.184 F 
HETATM   18  F   UNL     1     -39.661  49.340 -55.224  1.00  0.00    -0.184 F 
ENDBRANCH  15  16
ENDBRANCH  11  15
ENDBRANCH   2   5
BRANCH   1  19
HETATM   19  C   UNL     1     -43.052  56.288 -57.837  1.00  0.00     0.035 A 
HETATM   20  C   UNL     1     -43.797  57.458 -57.669  1.00  0.00     0.044 A 
HETATM   21  C   UNL     1     -44.306  58.157 -58.767  1.00  0.00     0.010 A 
HETATM   22  C   UNL     1     -44.113  57.645 -60.054  1.00  0.00     0.015 A 
HETATM   23  C   UNL     1     -43.399  56.458 -60.231  1.00  0.00     0.003 A 
HETATM   24  C   UNL     1     -42.870  55.785 -59.128  1.00  0.00     0.029 A 
BRANCH  21  25
HETATM   25  C   UNL     1     -45.078  59.446 -58.582  1.00  0.00     0.117 A 
HETATM   26  N   UNL     1     -46.378  59.671 -58.260  1.00  0.00    -0.346 N 
HETATM   27  C   UNL     1     -47.376  58.674 -57.868  1.00  0.00     0.157 C 
HETATM   28  C   UNL     1     -46.641  61.038 -58.278  1.00  0.00     0.109 A 
HETATM   29  C   UNL     1     -45.470  61.666 -58.557  1.00  0.00     0.107 A 
HETATM   30  N   UNL     1     -44.539  60.675 -58.713  1.00  0.00    -0.350 N 
HETATM   31  H   UNL     1     -43.569  60.834 -58.964  1.00  0.00     0.166 HD
ENDBRANCH  21  25
ENDBRANCH   1  19
TORSDOF 5
ENDMDL
MODEL 5
REMARK VINA RESULT:      -8.1      3.403      9.375
REMARK  5 active torsions:
REMARK  status: ('A' for Active; 'I' for Inactive)
REMARK    1  A    between atoms: C_3  and  C_4 
REMARK    2  A    between atoms: C_6  and  N_7 
REMARK       I    between atoms: N_7  and  C_8 
REMARK    3  A    between atoms: C_8  and  C_9 
REMARK    4  A    between atoms: C_14  and  O_15 
REMARK    5  A    between atoms: O_15  and  C_16 
ROOT
HETATM    1  N   UNL     1     -41.514  55.757 -54.386  1.00  0.00    -0.322 N 
HETATM    2  C   UNL     1     -42.740  55.817 -55.029  1.00  0.00     0.272 C 
HETATM    3  O   UNL     1     -43.786  55.355 -54.579  1.00  0.00    -0.266 OA
HETATM    4  H   UNL     1     -40.714  56.075 -54.916  1.00  0.00     0.169 HD
ENDROOT
BRANCH   2   5
HETATM    5  C   UNL     1     -42.708  56.450 -56.333  1.00  0.00     0.102 A 
HETATM    6  N   UNL     1     -42.346  57.774 -56.476  1.00  0.00    -0.351 N 
HETATM    7  H   UNL     1     -42.082  58.370 -55.703  1.00  0.00     0.166 HD
HETATM    8  C   UNL     1     -42.385  58.164 -57.793  1.00  0.00     0.045 A 
HETATM    9  C   UNL     1     -42.778  57.054 -58.536  1.00  0.00     0.026 A 
HETATM   10  C   UNL     1     -42.096  59.401 -58.375  1.00  0.00     0.030 A 
HETATM   11  C   UNL     1     -42.901  57.172 -59.939  1.00  0.00     0.087 A 
HETATM   12  C   UNL     1     -42.976  55.986 -57.611  1.00  0.00     0.052 A 
HETATM   13  C   UNL     1     -42.583  58.399 -60.539  1.00  0.00     0.038 A 
HETATM   14  C   UNL     1     -42.197  59.496 -59.766  1.00  0.00     0.005 A 
BRANCH  11  15
HETATM   15  O   UNL     1     -43.274  56.057 -60.643  1.00  0.00    -0.289 OA
BRANCH  15  16
HETATM   16  C   UNL     1     -44.661  55.764 -60.574  1.00  0.00     0.505 C 
HETATM   17  F   UNL     1     -45.358  56.922 -60.680  1.00  0.00    -0.184 F 
HETATM   18  F   UNL     1     -44.967  55.023 -61.669  1.00  0.00    -0.184 F 
ENDBRANCH  15  16
ENDBRANCH  11  15
ENDBRANCH   2   5
BRANCH   1  19
HETATM   19  C   UNL     1     -41.241  55.203 -53.118  1.00  0.00     0.035 A 
HETATM   20  C   UNL     1     -40.898  53.863 -52.920  1.00  0.00     0.044 A 
HETATM   21  C   UNL     1     -40.584  53.375 -51.649  1.00  0.00     0.010 A 
HETATM   22  C   UNL     1     -40.669  54.233 -50.547  1.00  0.00     0.015 A 
HETATM   23  C   UNL     1     -41.044  55.565 -50.728  1.00  0.00     0.003 A 
HETATM   24  C   UNL     1     -41.326  56.048 -52.008  1.00  0.00     0.029 A 
BRANCH  21  25
HETATM   25  C   UNL     1     -40.174  51.933 -51.446  1.00  0.00     0.117 A 
HETATM   26  N   UNL     1     -39.671  51.016 -52.313  1.00  0.00    -0.346 N 
HETATM   27  C   UNL     1     -39.263  51.243 -53.701  1.00  0.00     0.157 C 
HETATM   28  C   UNL     1     -39.515  49.791 -51.670  1.00  0.00     0.109 A 
HETATM   29  C   UNL     1     -39.871  49.973 -50.372  1.00  0.00     0.107 A 
HETATM   30  N   UNL     1     -40.243  51.286 -50.265  1.00  0.00    -0.350 N 
HETATM   31  H   UNL     1     -40.594  51.715 -49.415  1.00  0.00     0.166 HD
ENDBRANCH  21  25
ENDBRANCH   1  19
TORSDOF 5
ENDMDL
MODEL 6
REMARK VINA RESULT:      -8.0      1.865      2.388
REMARK  5 active torsions:
REMARK  status: ('A' for Active; 'I' for Inactive)
REMARK    1  A    between atoms: C_3  and  C_4 
REMARK    2  A    between atoms: C_6  and  N_7 
REMARK       I    between atoms: N_7  and  C_8 
REMARK    3  A    between atoms: C_8  and  C_9 
REMARK    4  A    between atoms: C_14  and  O_15 
REMARK    5  A    between atoms: O_15  and  C_16 
ROOT
HETATM    1  N   UNL     1     -42.466  56.907 -54.951  1.00  0.00    -0.322 N 
HETATM    2  C   UNL     1     -42.184  55.639 -55.430  1.00  0.00     0.272 C 
HETATM    3  O   UNL     1     -42.422  55.257 -56.573  1.00  0.00    -0.266 OA
HETATM    4  H   UNL     1     -42.322  57.055 -53.961  1.00  0.00     0.169 HD
ENDROOT
BRANCH   2   5
HETATM    5  C   UNL     1     -41.603  54.739 -54.454  1.00  0.00     0.102 A 
HETATM    6  N   UNL     1     -41.790  54.935 -53.100  1.00  0.00    -0.351 N 
HETATM    7  H   UNL     1     -42.333  55.696 -52.713  1.00  0.00     0.166 HD
HETATM    8  C   UNL     1     -41.154  53.967 -52.361  1.00  0.00     0.045 A 
HETATM    9  C   UNL     1     -40.537  53.104 -53.263  1.00  0.00     0.026 A 
HETATM   10  C   UNL     1     -41.086  53.789 -50.977  1.00  0.00     0.030 A 
HETATM   11  C   UNL     1     -39.802  52.002 -52.771  1.00  0.00     0.087 A 
HETATM   12  C   UNL     1     -40.827  53.597 -54.571  1.00  0.00     0.052 A 
HETATM   13  C   UNL     1     -39.754  51.794 -51.384  1.00  0.00     0.038 A 
HETATM   14  C   UNL     1     -40.379  52.680 -50.505  1.00  0.00     0.005 A 
BRANCH  11  15
HETATM   15  O   UNL     1     -39.222  51.163 -53.685  1.00  0.00    -0.289 OA
BRANCH  15  16
HETATM   16  C   UNL     1     -39.890  49.920 -53.839  1.00  0.00     0.505 C 
HETATM   17  F   UNL     1     -39.772  49.518 -55.129  1.00  0.00    -0.184 F 
HETATM   18  F   UNL     1     -39.221  49.011 -53.085  1.00  0.00    -0.184 F 
ENDBRANCH  15  16
ENDBRANCH  11  15
ENDBRANCH   2   5
BRANCH   1  19
HETATM   19  C   UNL     1     -43.030  57.985 -55.666  1.00  0.00     0.035 A 
HETATM   20  C   UNL     1     -42.276  58.886 -56.422  1.00  0.00     0.044 A 
HETATM   21  C   UNL     1     -42.887  59.906 -57.156  1.00  0.00     0.010 A 
HETATM   22  C   UNL     1     -44.277  60.059 -57.087  1.00  0.00     0.015 A 
HETATM   23  C   UNL     1     -45.036  59.186 -56.308  1.00  0.00     0.003 A 
HETATM   24  C   UNL     1     -44.416  58.152 -55.603  1.00  0.00     0.029 A 
BRANCH  21  25
HETATM   25  C   UNL     1     -42.070  60.855 -58.005  1.00  0.00     0.117 A 
HETATM   26  N   UNL     1     -41.836  60.881 -59.343  1.00  0.00    -0.346 N 
HETATM   27  C   UNL     1     -42.450  60.029 -60.364  1.00  0.00     0.157 C 
HETATM   28  C   UNL     1     -40.955  61.914 -59.650  1.00  0.00     0.109 A 
HETATM   29  C   UNL     1     -40.690  62.570 -58.491  1.00  0.00     0.107 A 
HETATM   30  N   UNL     1     -41.398  61.918 -57.519  1.00  0.00    -0.350 N 
HETATM   31  H   UNL     1     -41.375  62.157 -56.533  1.00  0.00     0.166 HD
ENDBRANCH  21  25
ENDBRANCH   1  19
TORSDOF 5
ENDMDL
MODEL 7
REMARK VINA RESULT:      -7.8      2.956      4.111
REMARK  5 active torsions:
REMARK  status: ('A' for Active; 'I' for Inactive)
REMARK    1  A    between atoms: C_3  and  C_4 
REMARK    2  A    between atoms: C_6  and  N_7 
REMARK       I    between atoms: N_7  and  C_8 
REMARK    3  A    between atoms: C_8  and  C_9 
REMARK    4  A    between atoms: C_14  and  O_15 
REMARK    5  A    between atoms: O_15  and  C_16 
ROOT
HETATM    1  N   UNL     1     -42.218  56.410 -56.602  1.00  0.00    -0.322 N 
HETATM    2  C   UNL     1     -42.380  56.709 -55.260  1.00  0.00     0.272 C 
HETATM    3  O   UNL     1     -42.947  57.712 -54.833  1.00  0.00    -0.266 OA
HETATM    4  H   UNL     1     -41.635  55.611 -56.816  1.00  0.00     0.169 HD
ENDROOT
BRANCH   2   5
HETATM    5  C   UNL     1     -41.785  55.750 -54.350  1.00  0.00     0.102 A 
HETATM    6  N   UNL     1     -41.379  54.505 -54.788  1.00  0.00    -0.351 N 
HETATM    7  H   UNL     1     -41.464  54.193 -55.747  1.00  0.00     0.166 HD
HETATM    8  C   UNL     1     -40.846  53.763 -53.763  1.00  0.00     0.045 A 
HETATM    9  C   UNL     1     -40.897  54.552 -52.618  1.00  0.00     0.026 A 
HETATM   10  C   UNL     1     -40.319  52.469 -53.767  1.00  0.00     0.030 A 
HETATM   11  C   UNL     1     -40.406  54.032 -51.399  1.00  0.00     0.087 A 
HETATM   12  C   UNL     1     -41.485  55.796 -52.998  1.00  0.00     0.052 A 
HETATM   13  C   UNL     1     -39.846  52.746 -51.396  1.00  0.00     0.038 A 
HETATM   14  C   UNL     1     -39.814  51.977 -52.560  1.00  0.00     0.005 A 
BRANCH  11  15
HETATM   15  O   UNL     1     -40.456  54.841 -50.294  1.00  0.00    -0.289 OA
BRANCH  15  16
HETATM   16  C   UNL     1     -40.423  54.140 -49.060  1.00  0.00     0.505 C 
HETATM   17  F   UNL     1     -39.143  54.106 -48.611  1.00  0.00    -0.184 F 
HETATM   18  F   UNL     1     -41.129  54.875 -48.164  1.00  0.00    -0.184 F 
ENDBRANCH  15  16
ENDBRANCH  11  15
ENDBRANCH   2   5
BRANCH   1  19
HETATM   19  C   UNL     1     -42.685  57.154 -57.706  1.00  0.00     0.035 A 
HETATM   20  C   UNL     1     -43.856  56.844 -58.403  1.00  0.00     0.044 A 
HETATM   21  C   UNL     1     -44.305  57.644 -59.457  1.00  0.00     0.010 A 
HETATM   22  C   UNL     1     -43.537  58.744 -59.856  1.00  0.00     0.015 A 
HETATM   23  C   UNL     1     -42.347  59.042 -59.190  1.00  0.00     0.003 A 
HETATM   24  C   UNL     1     -41.925  58.252 -58.118  1.00  0.00     0.029 A 
BRANCH  21  25
HETATM   25  C   UNL     1     -45.595  57.329 -60.182  1.00  0.00     0.117 A 
HETATM   26  N   UNL     1     -46.013  56.201 -60.812  1.00  0.00    -0.346 N 
HETATM   27  C   UNL     1     -45.337  54.902 -60.840  1.00  0.00     0.157 C 
HETATM   28  C   UNL     1     -47.258  56.417 -61.397  1.00  0.00     0.109 A 
HETATM   29  C   UNL     1     -47.638  57.680 -61.070  1.00  0.00     0.107 A 
HETATM   30  N   UNL     1     -46.619  58.196 -60.315  1.00  0.00    -0.350 N 
HETATM   31  H   UNL     1     -46.598  59.142 -59.950  1.00  0.00     0.166 HD
ENDBRANCH  21  25
ENDBRANCH   1  19
TORSDOF 5
ENDMDL
MODEL 8
REMARK VINA RESULT:      -7.7      2.663      3.346
REMARK  5 active torsions:
REMARK  status: ('A' for Active; 'I' for Inactive)
REMARK    1  A    between atoms: C_3  and  C_4 
REMARK    2  A    between atoms: C_6  and  N_7 
REMARK       I    between atoms: N_7  and  C_8 
REMARK    3  A    between atoms: C_8  and  C_9 
REMARK    4  A    between atoms: C_14  and  O_15 
REMARK    5  A    between atoms: O_15  and  C_16 
ROOT
HETATM    1  N   UNL     1     -42.528  55.446 -56.566  1.00  0.00    -0.322 N 
HETATM    2  C   UNL     1     -41.933  55.988 -55.439  1.00  0.00     0.272 C 
HETATM    3  O   UNL     1     -41.775  57.191 -55.245  1.00  0.00    -0.266 OA
HETATM    4  H   UNL     1     -42.494  54.439 -56.651  1.00  0.00     0.169 HD
ENDROOT
BRANCH   2   5
HETATM    5  C   UNL     1     -41.456  55.013 -54.479  1.00  0.00     0.102 A 
HETATM    6  N   UNL     1     -40.780  53.880 -54.886  1.00  0.00    -0.351 N 
HETATM    7  H   UNL     1     -40.577  53.665 -55.854  1.00  0.00     0.166 HD
HETATM    8  C   UNL     1     -40.420  53.099 -53.814  1.00  0.00     0.045 A 
HETATM    9  C   UNL     1     -40.869  53.747 -52.668  1.00  0.00     0.026 A 
HETATM   10  C   UNL     1     -39.731  51.884 -53.776  1.00  0.00     0.030 A 
HETATM   11  C   UNL     1     -40.631  53.160 -51.405  1.00  0.00     0.087 A 
HETATM   12  C   UNL     1     -41.514  54.946 -53.096  1.00  0.00     0.052 A 
HETATM   13  C   UNL     1     -39.912  51.956 -51.351  1.00  0.00     0.038 A 
HETATM   14  C   UNL     1     -39.480  51.327 -52.519  1.00  0.00     0.005 A 
BRANCH  11  15
HETATM   15  O   UNL     1     -41.071  53.832 -50.295  1.00  0.00    -0.289 OA
BRANCH  15  16
HETATM   16  C   UNL     1     -40.139  53.858 -49.225  1.00  0.00     0.505 C 
HETATM   17  F   UNL     1     -39.056  54.581 -49.606  1.00  0.00    -0.184 F 
HETATM   18  F   UNL     1     -40.721  54.539 -48.205  1.00  0.00    -0.184 F 
ENDBRANCH  15  16
ENDBRANCH  11  15
ENDBRANCH   2   5
BRANCH   1  19
HETATM   19  C   UNL     1     -43.080  56.144 -57.660  1.00  0.00     0.035 A 
HETATM   20  C   UNL     1     -43.773  57.350 -57.533  1.00  0.00     0.044 A 
HETATM   21  C   UNL     1     -44.256  58.031 -58.654  1.00  0.00     0.010 A 
HETATM   22  C   UNL     1     -44.089  57.465 -59.923  1.00  0.00     0.015 A 
HETATM   23  C   UNL     1     -43.428  56.243 -60.058  1.00  0.00     0.003 A 
HETATM   24  C   UNL     1     -42.924  55.587 -58.933  1.00  0.00     0.029 A 
BRANCH  21  25
HETATM   25  C   UNL     1     -44.970  59.357 -58.515  1.00  0.00     0.117 A 
HETATM   26  N   UNL     1     -46.271  59.649 -58.253  1.00  0.00    -0.346 N 
HETATM   27  C   UNL     1     -47.334  58.706 -57.897  1.00  0.00     0.157 C 
HETATM   28  C   UNL     1     -46.466  61.027 -58.293  1.00  0.00     0.109 A 
HETATM   29  C   UNL     1     -45.254  61.594 -58.525  1.00  0.00     0.107 A 
HETATM   30  N   UNL     1     -44.367  60.558 -58.631  1.00  0.00    -0.350 N 
HETATM   31  H   UNL     1     -43.380  60.666 -58.839  1.00  0.00     0.166 HD
ENDBRANCH  21  25
ENDBRANCH   1  19
TORSDOF 5
ENDMDL
MODEL 9
REMARK VINA RESULT:      -7.7      6.722      8.787
REMARK  5 active torsions:
REMARK  status: ('A' for Active; 'I' for Inactive)
REMARK    1  A    between atoms: C_3  and  C_4 
REMARK    2  A    between atoms: C_6  and  N_7 
REMARK       I    between atoms: N_7  and  C_8 
REMARK    3  A    between atoms: C_8  and  C_9 
REMARK    4  A    between atoms: C_14  and  O_15 
REMARK    5  A    between atoms: O_15  and  C_16 
ROOT
HETATM    1  N   UNL     1     -42.649  59.564 -50.312  1.00  0.00    -0.322 N 
HETATM    2  C   UNL     1     -42.932  58.791 -51.425  1.00  0.00     0.272 C 
HETATM    3  O   UNL     1     -43.685  59.128 -52.335  1.00  0.00    -0.266 OA
HETATM    4  H   UNL     1     -42.102  59.121 -49.586  1.00  0.00     0.169 HD
ENDROOT
BRANCH   2   5
HETATM    5  C   UNL     1     -42.290  57.491 -51.438  1.00  0.00     0.102 A 
HETATM    6  N   UNL     1     -41.637  57.005 -50.322  1.00  0.00    -0.351 N 
HETATM    7  H   UNL     1     -41.570  57.509 -49.448  1.00  0.00     0.166 HD
HETATM    8  C   UNL     1     -41.105  55.760 -50.556  1.00  0.00     0.045 A 
HETATM    9  C   UNL     1     -41.428  55.417 -51.866  1.00  0.00     0.026 A 
HETATM   10  C   UNL     1     -40.377  54.918 -49.711  1.00  0.00     0.030 A 
HETATM   11  C   UNL     1     -41.002  54.171 -52.378  1.00  0.00     0.087 A 
HETATM   12  C   UNL     1     -42.172  56.508 -52.408  1.00  0.00     0.052 A 
HETATM   13  C   UNL     1     -40.298  53.303 -51.530  1.00  0.00     0.038 A 
HETATM   14  C   UNL     1     -39.984  53.678 -50.223  1.00  0.00     0.005 A 
BRANCH  11  15
HETATM   15  O   UNL     1     -41.351  53.857 -53.665  1.00  0.00    -0.289 OA
BRANCH  15  16
HETATM   16  C   UNL     1     -40.257  53.479 -54.487  1.00  0.00     0.505 C 
HETATM   17  F   UNL     1     -40.309  52.140 -54.694  1.00  0.00    -0.184 F 
HETATM   18  F   UNL     1     -40.445  54.067 -55.696  1.00  0.00    -0.184 F 
ENDBRANCH  15  16
ENDBRANCH  11  15
ENDBRANCH   2   5
BRANCH   1  19
HETATM   19  C   UNL     1     -43.127  60.861 -50.029  1.00  0.00     0.035 A 
HETATM   20  C   UNL     1     -44.163  61.120 -49.128  1.00  0.00     0.044 A 
HETATM   21  C   UNL     1     -44.564  62.427 -48.841  1.00  0.00     0.010 A 
HETATM   22  C   UNL     1     -43.953  63.493 -49.511  1.00  0.00     0.015 A 
HETATM   23  C   UNL     1     -42.940  63.243 -50.439  1.00  0.00     0.003 A 
HETATM   24  C   UNL     1     -42.528  61.934 -50.694  1.00  0.00     0.029 A 
BRANCH  21  25
HETATM   25  C   UNL     1     -45.659  62.705 -47.834  1.00  0.00     0.117 A 
HETATM   26  N   UNL     1     -45.860  62.228 -46.579  1.00  0.00    -0.346 N 
HETATM   27  C   UNL     1     -44.955  61.381 -45.799  1.00  0.00     0.157 C 
HETATM   28  C   UNL     1     -47.056  62.726 -46.068  1.00  0.00     0.109 A 
HETATM   29  C   UNL     1     -47.568  63.569 -47.002  1.00  0.00     0.107 A 
HETATM   30  N   UNL     1     -46.687  63.551 -48.049  1.00  0.00    -0.350 N 
HETATM   31  H   UNL     1     -46.816  64.061 -48.916  1.00  0.00     0.166 HD
ENDBRANCH  21  25
ENDBRANCH   1  19
TORSDOF 5
ENDMDL
MODEL 10
REMARK VINA RESULT:      -7.6      4.026      9.375
REMARK  5 active torsions:
REMARK  status: ('A' for Active; 'I' for Inactive)
REMARK    1  A    between atoms: C_3  and  C_4 
REMARK    2  A    between atoms: C_6  and  N_7 
REMARK       I    between atoms: N_7  and  C_8 
REMARK    3  A    between atoms: C_8  and  C_9 
REMARK    4  A    between atoms: C_14  and  O_15 
REMARK    5  A    between atoms: O_15  and  C_16 
ROOT
HETATM    1  N   UNL     1     -42.049  54.286 -55.308  1.00  0.00    -0.322 N 
HETATM    2  C   UNL     1     -42.129  55.647 -55.553  1.00  0.00     0.272 C 
HETATM    3  O   UNL     1     -41.577  56.511 -54.875  1.00  0.00    -0.266 OA
HETATM    4  H   UNL     1     -42.641  53.694 -55.874  1.00  0.00     0.169 HD
ENDROOT
BRANCH   2   5
HETATM    5  C   UNL     1     -42.966  56.011 -56.679  1.00  0.00     0.102 A 
HETATM    6  N   UNL     1     -43.108  55.172 -57.765  1.00  0.00    -0.351 N 
HETATM    7  H   UNL     1     -42.653  54.271 -57.841  1.00  0.00     0.166 HD
HETATM    8  C   UNL     1     -43.944  55.714 -58.711  1.00  0.00     0.045 A 
HETATM    9  C   UNL     1     -44.370  56.945 -58.222  1.00  0.00     0.026 A 
HETATM   10  C   UNL     1     -44.357  55.206 -59.946  1.00  0.00     0.030 A 
HETATM   11  C   UNL     1     -45.251  57.729 -59.000  1.00  0.00     0.087 A 
HETATM   12  C   UNL     1     -43.752  57.120 -56.947  1.00  0.00     0.052 A 
HETATM   13  C   UNL     1     -45.698  57.216 -60.227  1.00  0.00     0.038 A 
HETATM   14  C   UNL     1     -45.249  55.980 -60.693  1.00  0.00     0.005 A 
BRANCH  11  15
HETATM   15  O   UNL     1     -45.664  58.929 -58.484  1.00  0.00    -0.289 OA
BRANCH  15  16
HETATM   16  C   UNL     1     -47.047  58.980 -58.170  1.00  0.00     0.505 C 
HETATM   17  F   UNL     1     -47.339  57.965 -57.319  1.00  0.00    -0.184 F 
HETATM   18  F   UNL     1     -47.258  60.134 -57.486  1.00  0.00    -0.184 F 
ENDBRANCH  15  16
ENDBRANCH  11  15
ENDBRANCH   2   5
BRANCH   1  19
HETATM   19  C   UNL     1     -41.316  53.643 -54.289  1.00  0.00     0.035 A 
HETATM   20  C   UNL     1     -41.351  54.038 -52.949  1.00  0.00     0.044 A 
HETATM   21  C   UNL     1     -40.648  53.334 -51.968  1.00  0.00     0.010 A 
HETATM   22  C   UNL     1     -39.851  52.247 -52.344  1.00  0.00     0.015 A 
HETATM   23  C   UNL     1     -39.781  51.865 -53.685  1.00  0.00     0.003 A 
HETATM   24  C   UNL     1     -40.512  52.558 -54.652  1.00  0.00     0.029 A 
BRANCH  21  25
HETATM   25  C   UNL     1     -40.721  53.741 -50.512  1.00  0.00     0.117 A 
HETATM   26  N   UNL     1     -41.032  54.928 -49.930  1.00  0.00    -0.346 N 
HETATM   27  C   UNL     1     -41.522  56.137 -50.596  1.00  0.00     0.157 C 
HETATM   28  C   UNL     1     -40.893  54.830 -48.549  1.00  0.00     0.109 A 
HETATM   29  C   UNL     1     -40.547  53.545 -48.272  1.00  0.00     0.107 A 
HETATM   30  N   UNL     1     -40.474  52.908 -49.481  1.00  0.00    -0.350 N 
HETATM   31  H   UNL     1     -40.202  51.938 -49.602  1.00  0.00     0.166 HD
ENDBRANCH  21  25
ENDBRANCH   1  19
TORSDOF 5
ENDMDL
