MODEL 1
REMARK VINA RESULT:      -8.9      0.000      0.000
REMARK  4 active torsions:
REMARK  status: ('A' for Active; 'I' for Inactive)
REMARK    1  A    between atoms: C_2  and  C_3 
REMARK    2  A    between atoms: C_4  and  C_5 
REMARK       I    between atoms: C_5  and  N_6 
REMARK    3  A    between atoms: N_6  and  C_7 
REMARK    4  A    between atoms: C_14  and  C_15 
REMARK       I    between atoms: C_15  and  N_16 
ROOT
HETATM    1  C   UNL     1     -43.295  56.211 -57.738  1.00  0.00     0.035 A 
HETATM    2  C   UNL     1     -44.313  57.174 -57.731  1.00  0.00     0.046 A 
HETATM    3  C   UNL     1     -45.089  57.381 -58.891  1.00  0.00     0.030 A 
HETATM    4  C   UNL     1     -44.826  56.613 -60.019  1.00  0.00     0.063 A 
HETATM    5  N   UNL     1     -45.733  57.025 -60.955  1.00  0.00    -0.277 N 
HETATM    6  H   UNL     1     -45.838  56.676 -61.901  1.00  0.00     0.189 HD
HETATM    7  N   UNL     1     -46.555  58.004 -60.544  1.00  0.00    -0.168 NA
HETATM    8  C   UNL     1     -46.167  58.238 -59.269  1.00  0.00     0.156 A 
HETATM    9  C   UNL     1     -43.817  55.650 -60.065  1.00  0.00     0.034 A 
HETATM   10  C   UNL     1     -43.053  55.470 -58.903  1.00  0.00     0.032 A 
ENDROOT
BRANCH   1  11
HETATM   11  N   UNL     1     -42.483  55.921 -56.619  1.00  0.00    -0.327 N 
HETATM   12  C   UNL     1     -42.601  54.846 -55.767  1.00  0.00     0.227 C 
HETATM   13  O   UNL     1     -43.455  53.975 -55.782  1.00  0.00    -0.273 OA
HETATM   14  H   UNL     1     -41.705  56.543 -56.459  1.00  0.00     0.169 HD
BRANCH  12  15
HETATM   15  C   UNL     1     -41.539  54.742 -54.728  1.00  0.00     0.087 A 
HETATM   16  C   UNL     1     -40.468  53.684 -54.981  1.00  0.00     0.032 A 
HETATM   17  C   UNL     1     -40.092  55.136 -54.849  1.00  0.00     0.025 A 
BRANCH  16  18
HETATM   18  C   UNL     1     -40.212  52.660 -53.908  1.00  0.00    -0.053 A 
HETATM   19  C   UNL     1     -40.017  51.311 -54.257  1.00  0.00     0.009 A 
HETATM   20  C   UNL     1     -39.731  50.341 -53.294  1.00  0.00     0.024 A 
HETATM   21  C   UNL     1     -39.635  50.708 -51.956  1.00  0.00     0.034 A 
HETATM   22  C   UNL     1     -39.823  52.036 -51.580  1.00  0.00     0.024 A 
HETATM   23 CL   UNL     1     -39.275  49.523 -50.764  1.00  0.00    -0.084 Cl
HETATM   24  C   UNL     1     -40.104  53.003 -52.551  1.00  0.00     0.009 A 
ENDBRANCH  16  18
ENDBRANCH  12  15
ENDBRANCH   1  11
BRANCH   8  25
HETATM   25  C   UNL     1     -46.826  59.263 -58.448  1.00  0.00     0.270 C 
HETATM   26  N   UNL     1     -47.614  58.758 -57.449  1.00  0.00    -0.365 N 
HETATM   27  H   UNL     1     -47.693  57.753 -57.354  1.00  0.00     0.159 HD
HETATM   28  H   UNL     1     -48.115  59.390 -56.843  1.00  0.00     0.159 HD
HETATM   29  O   UNL     1     -46.709  60.472 -58.611  1.00  0.00    -0.266 OA
ENDBRANCH   8  25
TORSDOF 4
ENDMDL
MODEL 2
REMARK VINA RESULT:      -8.5      4.848      6.377
REMARK  4 active torsions:
REMARK  status: ('A' for Active; 'I' for Inactive)
REMARK    1  A    between atoms: C_2  and  C_3 
REMARK    2  A    between atoms: C_4  and  C_5 
REMARK       I    between atoms: C_5  and  N_6 
REMARK    3  A    between atoms: N_6  and  C_7 
REMARK    4  A    between atoms: C_14  and  C_15 
REMARK       I    between atoms: C_15  and  N_16 
ROOT
HETATM    1  C   UNL     1     -41.655  58.031 -51.873  1.00  0.00     0.035 A 
HETATM    2  C   UNL     1     -43.017  58.346 -51.784  1.00  0.00     0.046 A 
HETATM    3  C   UNL     1     -43.420  59.525 -51.122  1.00  0.00     0.030 A 
HETATM    4  C   UNL     1     -42.448  60.354 -50.577  1.00  0.00     0.063 A 
HETATM    5  N   UNL     1     -43.133  61.402 -50.027  1.00  0.00    -0.277 N 
HETATM    6  H   UNL     1     -42.743  62.205 -49.547  1.00  0.00     0.189 HD
HETATM    7  N   UNL     1     -44.468  61.322 -50.152  1.00  0.00    -0.168 NA
HETATM    8  C   UNL     1     -44.662  60.165 -50.825  1.00  0.00     0.156 A 
HETATM    9  C   UNL     1     -41.083  60.069 -50.641  1.00  0.00     0.034 A 
HETATM   10  C   UNL     1     -40.708  58.888 -51.295  1.00  0.00     0.032 A 
ENDROOT
BRANCH   1  11
HETATM   11  N   UNL     1     -41.157  56.885 -52.533  1.00  0.00    -0.327 N 
HETATM   12  C   UNL     1     -41.190  56.629 -53.886  1.00  0.00     0.227 C 
HETATM   13  O   UNL     1     -41.699  57.312 -54.760  1.00  0.00    -0.273 OA
HETATM   14  H   UNL     1     -40.686  56.207 -51.955  1.00  0.00     0.169 HD
BRANCH  12  15
HETATM   15  C   UNL     1     -40.499  55.381 -54.312  1.00  0.00     0.087 A 
HETATM   16  C   UNL     1     -41.297  54.092 -54.138  1.00  0.00     0.032 A 
HETATM   17  C   UNL     1     -40.815  54.515 -55.500  1.00  0.00     0.025 A 
BRANCH  16  18
HETATM   18  C   UNL     1     -40.674  52.971 -53.349  1.00  0.00    -0.053 A 
HETATM   19  C   UNL     1     -40.567  53.072 -51.950  1.00  0.00     0.009 A 
HETATM   20  C   UNL     1     -40.039  52.032 -51.180  1.00  0.00     0.024 A 
HETATM   21  C   UNL     1     -39.605  50.868 -51.804  1.00  0.00     0.034 A 
HETATM   22  C   UNL     1     -39.698  50.739 -53.188  1.00  0.00     0.024 A 
HETATM   23 CL   UNL     1     -38.961  49.580 -50.865  1.00  0.00    -0.084 Cl
HETATM   24  C   UNL     1     -40.233  51.781 -53.951  1.00  0.00     0.009 A 
ENDBRANCH  16  18
ENDBRANCH  12  15
ENDBRANCH   1  11
BRANCH   8  25
HETATM   25  C   UNL     1     -46.014  59.699 -51.165  1.00  0.00     0.270 C 
HETATM   26  N   UNL     1     -46.550  60.300 -52.271  1.00  0.00    -0.365 N 
HETATM   27  H   UNL     1     -46.005  61.004 -52.755  1.00  0.00     0.159 HD
HETATM   28  H   UNL     1     -47.480  60.051 -52.572  1.00  0.00     0.159 HD
HETATM   29  O   UNL     1     -46.640  58.852 -50.539  1.00  0.00    -0.266 OA
ENDBRANCH   8  25
TORSDOF 4
ENDMDL
MODEL 3
REMARK VINA RESULT:      -8.3      2.360      2.940
REMARK  4 active torsions:
REMARK  status: ('A' for Active; 'I' for Inactive)
REMARK    1  A    between atoms: C_2  and  C_3 
REMARK    2  A    between atoms: C_4  and  C_5 
REMARK       I    between atoms: C_5  and  N_6 
REMARK    3  A    between atoms: N_6  and  C_7 
REMARK    4  A    between atoms: C_14  and  C_15 
REMARK       I    between atoms: C_15  and  N_16 
ROOT
HETATM    1  C   UNL     1     -42.646  56.811 -56.371  1.00  0.00     0.035 A 
HETATM    2  C   UNL     1     -43.333  56.318 -57.489  1.00  0.00     0.046 A 
HETATM    3  C   UNL     1     -43.499  57.138 -58.625  1.00  0.00     0.030 A 
HETATM    4  C   UNL     1     -42.968  58.422 -58.609  1.00  0.00     0.063 A 
HETATM    5  N   UNL     1     -43.273  58.954 -59.831  1.00  0.00    -0.277 N 
HETATM    6  H   UNL     1     -43.034  59.877 -60.174  1.00  0.00     0.189 HD
HETATM    7  N   UNL     1     -43.968  58.136 -60.638  1.00  0.00    -0.168 NA
HETATM    8  C   UNL     1     -44.119  57.009 -59.905  1.00  0.00     0.156 A 
HETATM    9  C   UNL     1     -42.284  58.948 -57.512  1.00  0.00     0.034 A 
HETATM   10  C   UNL     1     -42.141  58.118 -56.392  1.00  0.00     0.032 A 
ENDROOT
BRANCH   1  11
HETATM   11  N   UNL     1     -42.413  56.057 -55.199  1.00  0.00    -0.327 N 
HETATM   12  C   UNL     1     -43.027  56.217 -53.977  1.00  0.00     0.227 C 
HETATM   13  O   UNL     1     -43.841  57.068 -53.659  1.00  0.00    -0.273 OA
HETATM   14  H   UNL     1     -41.765  55.289 -55.284  1.00  0.00     0.169 HD
BRANCH  12  15
HETATM   15  C   UNL     1     -42.655  55.210 -52.945  1.00  0.00     0.087 A 
HETATM   16  C   UNL     1     -41.161  54.932 -52.800  1.00  0.00     0.032 A 
HETATM   17  C   UNL     1     -41.958  55.451 -51.634  1.00  0.00     0.025 A 
BRANCH  16  18
HETATM   18  C   UNL     1     -40.688  53.507 -52.914  1.00  0.00    -0.053 A 
HETATM   19  C   UNL     1     -40.726  52.852 -54.158  1.00  0.00     0.009 A 
HETATM   20  C   UNL     1     -40.252  51.546 -54.312  1.00  0.00     0.024 A 
HETATM   21  C   UNL     1     -39.730  50.872 -53.214  1.00  0.00     0.034 A 
HETATM   22  C   UNL     1     -39.680  51.494 -51.969  1.00  0.00     0.024 A 
HETATM   23 CL   UNL     1     -39.137  49.268 -53.394  1.00  0.00    -0.084 Cl
HETATM   24  C   UNL     1     -40.152  52.803 -51.825  1.00  0.00     0.009 A 
ENDBRANCH  16  18
ENDBRANCH  12  15
ENDBRANCH   1  11
BRANCH   8  25
HETATM   25  C   UNL     1     -44.845  55.846 -60.436  1.00  0.00     0.270 C 
HETATM   26  N   UNL     1     -45.914  55.460 -59.673  1.00  0.00    -0.365 N 
HETATM   27  H   UNL     1     -46.118  55.975 -58.825  1.00  0.00     0.159 HD
HETATM   28  H   UNL     1     -46.463  54.662 -59.954  1.00  0.00     0.159 HD
HETATM   29  O   UNL     1     -44.551  55.246 -61.463  1.00  0.00    -0.266 OA
ENDBRANCH   8  25
TORSDOF 4
ENDMDL
MODEL 4
REMARK VINA RESULT:      -8.2      1.583      1.994
REMARK  4 active torsions:
REMARK  status: ('A' for Active; 'I' for Inactive)
REMARK    1  A    between atoms: C_2  and  C_3 
REMARK    2  A    between atoms: C_4  and  C_5 
REMARK       I    between atoms: C_5  and  N_6 
REMARK    3  A    between atoms: N_6  and  C_7 
REMARK    4  A    between atoms: C_14  and  C_15 
REMARK       I    between atoms: C_15  and  N_16 
ROOT
HETATM    1  C   UNL     1     -43.128  56.220 -57.788  1.00  0.00     0.035 A 
HETATM    2  C   UNL     1     -44.115  57.207 -57.662  1.00  0.00     0.046 A 
HETATM    3  C   UNL     1     -44.977  57.477 -58.746  1.00  0.00     0.030 A 
HETATM    4  C   UNL     1     -44.828  56.747 -59.919  1.00  0.00     0.063 A 
HETATM    5  N   UNL     1     -45.796  57.216 -60.762  1.00  0.00    -0.277 N 
HETATM    6  H   UNL     1     -45.988  56.906 -61.708  1.00  0.00     0.189 HD
HETATM    7  N   UNL     1     -46.555  58.198 -60.248  1.00  0.00    -0.168 NA
HETATM    8  C   UNL     1     -46.059  58.373 -59.002  1.00  0.00     0.156 A 
HETATM    9  C   UNL     1     -43.853  55.762 -60.082  1.00  0.00     0.034 A 
HETATM   10  C   UNL     1     -43.002  55.519 -58.995  1.00  0.00     0.032 A 
ENDROOT
BRANCH   1  11
HETATM   11  N   UNL     1     -42.236  55.868 -56.750  1.00  0.00    -0.327 N 
HETATM   12  C   UNL     1     -42.396  54.859 -55.828  1.00  0.00     0.227 C 
HETATM   13  O   UNL     1     -43.356  54.116 -55.696  1.00  0.00    -0.273 OA
HETATM   14  H   UNL     1     -41.368  56.381 -56.715  1.00  0.00     0.169 HD
BRANCH  12  15
HETATM   15  C   UNL     1     -41.242  54.651 -54.909  1.00  0.00     0.087 A 
HETATM   16  C   UNL     1     -41.307  53.398 -54.040  1.00  0.00     0.032 A 
HETATM   17  C   UNL     1     -40.169  53.602 -55.003  1.00  0.00     0.025 A 
BRANCH  16  18
HETATM   18  C   UNL     1     -41.171  53.559 -52.549  1.00  0.00    -0.053 A 
HETATM   19  C   UNL     1     -39.988  53.154 -51.904  1.00  0.00     0.009 A 
HETATM   20  C   UNL     1     -39.806  53.331 -50.530  1.00  0.00     0.024 A 
HETATM   21  C   UNL     1     -40.815  53.919 -49.775  1.00  0.00     0.034 A 
HETATM   22  C   UNL     1     -41.998  54.330 -50.385  1.00  0.00     0.024 A 
HETATM   23 CL   UNL     1     -40.598  54.149 -48.085  1.00  0.00    -0.084 Cl
HETATM   24  C   UNL     1     -42.169  54.154 -51.762  1.00  0.00     0.009 A 
ENDBRANCH  16  18
ENDBRANCH  12  15
ENDBRANCH   1  11
BRANCH   8  25
HETATM   25  C   UNL     1     -46.621  59.382 -58.093  1.00  0.00     0.270 C 
HETATM   26  N   UNL     1     -47.760  58.981 -57.448  1.00  0.00    -0.365 N 
HETATM   27  H   UNL     1     -48.128  58.057 -57.642  1.00  0.00     0.159 HD
HETATM   28  H   UNL     1     -48.222  59.614 -56.814  1.00  0.00     0.159 HD
HETATM   29  O   UNL     1     -46.145  60.494 -57.902  1.00  0.00    -0.266 OA
ENDBRANCH   8  25
TORSDOF 4
ENDMDL
MODEL 5
REMARK VINA RESULT:      -8.1      3.216      4.320
REMARK  4 active torsions:
REMARK  status: ('A' for Active; 'I' for Inactive)
REMARK    1  A    between atoms: C_2  and  C_3 
REMARK    2  A    between atoms: C_4  and  C_5 
REMARK       I    between atoms: C_5  and  N_6 
REMARK    3  A    between atoms: N_6  and  C_7 
REMARK    4  A    between atoms: C_14  and  C_15 
REMARK       I    between atoms: C_15  and  N_16 
ROOT
HETATM    1  C   UNL     1     -44.067  57.329 -53.296  1.00  0.00     0.035 A 
HETATM    2  C   UNL     1     -44.418  57.287 -54.651  1.00  0.00     0.046 A 
HETATM    3  C   UNL     1     -45.048  58.401 -55.246  1.00  0.00     0.030 A 
HETATM    4  C   UNL     1     -45.300  59.523 -54.466  1.00  0.00     0.063 A 
HETATM    5  N   UNL     1     -45.892  60.423 -55.309  1.00  0.00    -0.277 N 
HETATM    6  H   UNL     1     -46.208  61.359 -55.082  1.00  0.00     0.189 HD
HETATM    7  N   UNL     1     -46.062  59.981 -56.566  1.00  0.00    -0.168 NA
HETATM    8  C   UNL     1     -45.547  58.731 -56.543  1.00  0.00     0.156 A 
HETATM    9  C   UNL     1     -44.970  59.598 -53.112  1.00  0.00     0.034 A 
HETATM   10  C   UNL     1     -44.355  58.475 -52.542  1.00  0.00     0.032 A 
ENDROOT
BRANCH   1  11
HETATM   11  N   UNL     1     -43.416  56.271 -52.622  1.00  0.00    -0.327 N 
HETATM   12  C   UNL     1     -43.686  55.807 -51.354  1.00  0.00     0.227 C 
HETATM   13  O   UNL     1     -44.495  56.252 -50.555  1.00  0.00    -0.273 OA
HETATM   14  H   UNL     1     -42.713  55.774 -53.147  1.00  0.00     0.169 HD
BRANCH  12  15
HETATM   15  C   UNL     1     -42.905  54.609 -50.938  1.00  0.00     0.087 A 
HETATM   16  C   UNL     1     -41.418  54.637 -51.283  1.00  0.00     0.032 A 
HETATM   17  C   UNL     1     -41.868  54.519 -49.852  1.00  0.00     0.025 A 
BRANCH  16  18
HETATM   18  C   UNL     1     -40.850  53.487 -52.072  1.00  0.00    -0.053 A 
HETATM   19  C   UNL     1     -40.094  52.495 -51.421  1.00  0.00     0.009 A 
HETATM   20  C   UNL     1     -39.590  51.389 -52.110  1.00  0.00     0.024 A 
HETATM   21  C   UNL     1     -39.837  51.259 -53.472  1.00  0.00     0.034 A 
HETATM   22  C   UNL     1     -40.581  52.225 -54.144  1.00  0.00     0.024 A 
HETATM   23 CL   UNL     1     -39.228  49.898 -54.328  1.00  0.00    -0.084 Cl
HETATM   24  C   UNL     1     -41.087  53.327 -53.446  1.00  0.00     0.009 A 
ENDBRANCH  16  18
ENDBRANCH  12  15
ENDBRANCH   1  11
BRANCH   8  25
HETATM   25  C   UNL     1     -45.544  57.885 -57.745  1.00  0.00     0.270 C 
HETATM   26  N   UNL     1     -46.791  57.536 -58.186  1.00  0.00    -0.365 N 
HETATM   27  H   UNL     1     -47.599  57.864 -57.669  1.00  0.00     0.159 HD
HETATM   28  H   UNL     1     -46.885  56.946 -58.998  1.00  0.00     0.159 HD
HETATM   29  O   UNL     1     -44.536  57.503 -58.328  1.00  0.00    -0.266 OA
ENDBRANCH   8  25
TORSDOF 4
ENDMDL
MODEL 6
REMARK VINA RESULT:      -8.1      2.807      3.221
REMARK  4 active torsions:
REMARK  status: ('A' for Active; 'I' for Inactive)
REMARK    1  A    between atoms: C_2  and  C_3 
REMARK    2  A    between atoms: C_4  and  C_5 
REMARK       I    between atoms: C_5  and  N_6 
REMARK    3  A    between atoms: N_6  and  C_7 
REMARK    4  A    between atoms: C_14  and  C_15 
REMARK       I    between atoms: C_15  and  N_16 
ROOT
HETATM    1  C   UNL     1     -42.660  56.525 -56.899  1.00  0.00     0.035 A 
HETATM    2  C   UNL     1     -42.248  57.862 -56.956  1.00  0.00     0.046 A 
HETATM    3  C   UNL     1     -42.375  58.583 -58.163  1.00  0.00     0.030 A 
HETATM    4  C   UNL     1     -42.917  57.943 -59.271  1.00  0.00     0.063 A 
HETATM    5  N   UNL     1     -42.925  58.884 -60.263  1.00  0.00    -0.277 N 
HETATM    6  H   UNL     1     -43.260  58.771 -61.213  1.00  0.00     0.189 HD
HETATM    7  N   UNL     1     -42.422  60.077 -59.904  1.00  0.00    -0.168 NA
HETATM    8  C   UNL     1     -42.075  59.906 -58.608  1.00  0.00     0.156 A 
HETATM    9  C   UNL     1     -43.333  56.611 -59.252  1.00  0.00     0.034 A 
HETATM   10  C   UNL     1     -43.187  55.914 -58.045  1.00  0.00     0.032 A 
ENDROOT
BRANCH   1  11
HETATM   11  N   UNL     1     -42.590  55.732 -55.731  1.00  0.00    -0.327 N 
HETATM   12  C   UNL     1     -43.389  55.832 -54.614  1.00  0.00     0.227 C 
HETATM   13  O   UNL     1     -44.268  56.651 -54.398  1.00  0.00    -0.273 OA
HETATM   14  H   UNL     1     -41.913  54.985 -55.739  1.00  0.00     0.169 HD
BRANCH  12  15
HETATM   15  C   UNL     1     -43.151  54.796 -53.571  1.00  0.00     0.087 A 
HETATM   16  C   UNL     1     -41.726  54.715 -53.032  1.00  0.00     0.032 A 
HETATM   17  C   UNL     1     -42.876  55.010 -52.108  1.00  0.00     0.025 A 
BRANCH  16  18
HETATM   18  C   UNL     1     -41.022  53.385 -53.081  1.00  0.00    -0.053 A 
HETATM   19  C   UNL     1     -40.375  52.889 -51.934  1.00  0.00     0.009 A 
HETATM   20  C   UNL     1     -39.753  51.639 -51.928  1.00  0.00     0.024 A 
HETATM   21  C   UNL     1     -39.766  50.860 -53.080  1.00  0.00     0.034 A 
HETATM   22  C   UNL     1     -40.397  51.324 -54.231  1.00  0.00     0.024 A 
HETATM   23 CL   UNL     1     -39.009  49.316 -53.081  1.00  0.00    -0.084 Cl
HETATM   24  C   UNL     1     -41.023  52.574 -54.228  1.00  0.00     0.009 A 
ENDBRANCH  16  18
ENDBRANCH  12  15
ENDBRANCH   1  11
BRANCH   8  25
HETATM   25  C   UNL     1     -41.468  60.996 -57.831  1.00  0.00     0.270 C 
HETATM   26  N   UNL     1     -42.232  61.425 -56.780  1.00  0.00    -0.365 N 
HETATM   27  H   UNL     1     -43.132  60.985 -56.621  1.00  0.00     0.159 HD
HETATM   28  H   UNL     1     -41.901  62.180 -56.199  1.00  0.00     0.159 HD
HETATM   29  O   UNL     1     -40.380  61.505 -58.072  1.00  0.00    -0.266 OA
ENDBRANCH   8  25
TORSDOF 4
ENDMDL
MODEL 7
REMARK VINA RESULT:      -8.1      5.176      6.153
REMARK  4 active torsions:
REMARK  status: ('A' for Active; 'I' for Inactive)
REMARK    1  A    between atoms: C_2  and  C_3 
REMARK    2  A    between atoms: C_4  and  C_5 
REMARK       I    between atoms: C_5  and  N_6 
REMARK    3  A    between atoms: N_6  and  C_7 
REMARK    4  A    between atoms: C_14  and  C_15 
REMARK       I    between atoms: C_15  and  N_16 
ROOT
HETATM    1  C   UNL     1     -43.891  57.952 -51.985  1.00  0.00     0.035 A 
HETATM    2  C   UNL     1     -44.409  58.973 -51.177  1.00  0.00     0.046 A 
HETATM    3  C   UNL     1     -45.268  59.942 -51.739  1.00  0.00     0.030 A 
HETATM    4  C   UNL     1     -45.585  59.854 -53.089  1.00  0.00     0.063 A 
HETATM    5  N   UNL     1     -46.429  60.902 -53.330  1.00  0.00    -0.277 N 
HETATM    6  H   UNL     1     -46.868  61.145 -54.211  1.00  0.00     0.189 HD
HETATM    7  N   UNL     1     -46.680  61.674 -52.260  1.00  0.00    -0.168 NA
HETATM    8  C   UNL     1     -45.966  61.095 -51.268  1.00  0.00     0.156 A 
HETATM    9  C   UNL     1     -45.083  58.855 -53.925  1.00  0.00     0.034 A 
HETATM   10  C   UNL     1     -44.225  57.911 -53.345  1.00  0.00     0.032 A 
ENDROOT
BRANCH   1  11
HETATM   11  N   UNL     1     -43.042  56.929 -51.506  1.00  0.00    -0.327 N 
HETATM   12  C   UNL     1     -43.415  55.810 -50.793  1.00  0.00     0.227 C 
HETATM   13  O   UNL     1     -44.531  55.519 -50.396  1.00  0.00    -0.273 OA
HETATM   14  H   UNL     1     -42.069  57.004 -51.756  1.00  0.00     0.169 HD
BRANCH  12  15
HETATM   15  C   UNL     1     -42.315  54.848 -50.506  1.00  0.00     0.087 A 
HETATM   16  C   UNL     1     -41.120  54.907 -51.453  1.00  0.00     0.032 A 
HETATM   17  C   UNL     1     -40.940  55.154 -49.979  1.00  0.00     0.025 A 
BRANCH  16  18
HETATM   18  C   UNL     1     -40.693  53.637 -52.140  1.00  0.00    -0.053 A 
HETATM   19  C   UNL     1     -41.084  53.393 -53.469  1.00  0.00     0.009 A 
HETATM   20  C   UNL     1     -40.668  52.249 -54.155  1.00  0.00     0.024 A 
HETATM   21  C   UNL     1     -39.850  51.324 -53.515  1.00  0.00     0.034 A 
HETATM   22  C   UNL     1     -39.447  51.539 -52.199  1.00  0.00     0.024 A 
HETATM   23 CL   UNL     1     -39.326  49.917 -54.353  1.00  0.00    -0.084 Cl
HETATM   24  C   UNL     1     -39.863  52.690 -51.522  1.00  0.00     0.009 A 
ENDBRANCH  16  18
ENDBRANCH  12  15
ENDBRANCH   1  11
BRANCH   8  25
HETATM   25  C   UNL     1     -45.964  61.649 -49.907  1.00  0.00     0.270 C 
HETATM   26  N   UNL     1     -45.590  62.964 -49.839  1.00  0.00    -0.365 N 
HETATM   27  H   UNL     1     -45.342  63.443 -50.697  1.00  0.00     0.159 HD
HETATM   28  H   UNL     1     -45.547  63.424 -48.943  1.00  0.00     0.159 HD
HETATM   29  O   UNL     1     -46.260  61.023 -48.896  1.00  0.00    -0.266 OA
ENDBRANCH   8  25
TORSDOF 4
ENDMDL
MODEL 8
REMARK VINA RESULT:      -8.1      2.335      3.121
REMARK  4 active torsions:
REMARK  status: ('A' for Active; 'I' for Inactive)
REMARK    1  A    between atoms: C_2  and  C_3 
REMARK    2  A    between atoms: C_4  and  C_5 
REMARK       I    between atoms: C_5  and  N_6 
REMARK    3  A    between atoms: N_6  and  C_7 
REMARK    4  A    between atoms: C_14  and  C_15 
REMARK       I    between atoms: C_15  and  N_16 
ROOT
HETATM    1  C   UNL     1     -42.497  57.085 -56.866  1.00  0.00     0.035 A 
HETATM    2  C   UNL     1     -43.268  56.535 -57.898  1.00  0.00     0.046 A 
HETATM    3  C   UNL     1     -43.962  57.387 -58.784  1.00  0.00     0.030 A 
HETATM    4  C   UNL     1     -43.856  58.762 -58.613  1.00  0.00     0.063 A 
HETATM    5  N   UNL     1     -44.611  59.309 -59.612  1.00  0.00    -0.277 N 
HETATM    6  H   UNL     1     -44.759  60.295 -59.799  1.00  0.00     0.189 HD
HETATM    7  N   UNL     1     -45.213  58.414 -60.412  1.00  0.00    -0.168 NA
HETATM    8  C   UNL     1     -44.823  57.219 -59.911  1.00  0.00     0.156 A 
HETATM    9  C   UNL     1     -43.102  59.345 -57.593  1.00  0.00     0.034 A 
HETATM   10  C   UNL     1     -42.431  58.478 -56.720  1.00  0.00     0.032 A 
ENDROOT
BRANCH   1  11
HETATM   11  N   UNL     1     -41.753  56.312 -55.946  1.00  0.00    -0.327 N 
HETATM   12  C   UNL     1     -42.019  55.022 -55.545  1.00  0.00     0.227 C 
HETATM   13  O   UNL     1     -42.968  54.324 -55.863  1.00  0.00    -0.273 OA
HETATM   14  H   UNL     1     -40.913  56.736 -55.584  1.00  0.00     0.169 HD
BRANCH  12  15
HETATM   15  C   UNL     1     -41.004  54.420 -54.636  1.00  0.00     0.087 A 
HETATM   16  C   UNL     1     -41.523  53.345 -53.686  1.00  0.00     0.032 A 
HETATM   17  C   UNL     1     -40.441  53.026 -54.682  1.00  0.00     0.025 A 
BRANCH  16  18
HETATM   18  C   UNL     1     -41.270  53.516 -52.212  1.00  0.00    -0.053 A 
HETATM   19  C   UNL     1     -40.112  52.966 -51.630  1.00  0.00     0.009 A 
HETATM   20  C   UNL     1     -39.820  53.145 -50.276  1.00  0.00     0.024 A 
HETATM   21  C   UNL     1     -40.688  53.880 -49.477  1.00  0.00     0.034 A 
HETATM   22  C   UNL     1     -41.842  54.436 -50.024  1.00  0.00     0.024 A 
HETATM   23 CL   UNL     1     -40.333  54.112 -47.810  1.00  0.00    -0.084 Cl
HETATM   24  C   UNL     1     -42.125  54.257 -51.382  1.00  0.00     0.009 A 
ENDBRANCH  16  18
ENDBRANCH  12  15
ENDBRANCH   1  11
BRANCH   8  25
HETATM   25  C   UNL     1     -45.277  55.956 -60.510  1.00  0.00     0.270 C 
HETATM   26  N   UNL     1     -46.458  55.488 -60.000  1.00  0.00    -0.365 N 
HETATM   27  H   UNL     1     -46.915  56.018 -59.267  1.00  0.00     0.159 HD
HETATM   28  H   UNL     1     -46.839  54.620 -60.343  1.00  0.00     0.159 HD
HETATM   29  O   UNL     1     -44.681  55.344 -61.388  1.00  0.00    -0.266 OA
ENDBRANCH   8  25
TORSDOF 4
ENDMDL
MODEL 9
REMARK VINA RESULT:      -7.9      4.426      9.628
REMARK  4 active torsions:
REMARK  status: ('A' for Active; 'I' for Inactive)
REMARK    1  A    between atoms: C_2  and  C_3 
REMARK    2  A    between atoms: C_4  and  C_5 
REMARK       I    between atoms: C_5  and  N_6 
REMARK    3  A    between atoms: N_6  and  C_7 
REMARK    4  A    between atoms: C_14  and  C_15 
REMARK       I    between atoms: C_15  and  N_16 
ROOT
HETATM    1  C   UNL     1     -41.066  54.342 -54.648  1.00  0.00     0.035 A 
HETATM    2  C   UNL     1     -40.669  53.010 -54.468  1.00  0.00     0.046 A 
HETATM    3  C   UNL     1     -40.302  52.556 -53.184  1.00  0.00     0.030 A 
HETATM    4  C   UNL     1     -40.350  53.448 -52.119  1.00  0.00     0.063 A 
HETATM    5  N   UNL     1     -39.961  52.725 -51.026  1.00  0.00    -0.277 N 
HETATM    6  H   UNL     1     -39.884  53.054 -50.070  1.00  0.00     0.189 HD
HETATM    7  N   UNL     1     -39.648  51.445 -51.285  1.00  0.00    -0.168 NA
HETATM    8  C   UNL     1     -39.852  51.325 -52.617  1.00  0.00     0.156 A 
HETATM    9  C   UNL     1     -40.734  54.782 -52.261  1.00  0.00     0.034 A 
HETATM   10  C   UNL     1     -41.084  55.211 -53.548  1.00  0.00     0.032 A 
ENDROOT
BRANCH   1  11
HETATM   11  N   UNL     1     -41.470  54.878 -55.891  1.00  0.00    -0.327 N 
HETATM   12  C   UNL     1     -42.748  55.225 -56.267  1.00  0.00     0.227 C 
HETATM   13  O   UNL     1     -43.776  55.086 -55.624  1.00  0.00    -0.273 OA
HETATM   14  H   UNL     1     -40.734  55.072 -56.553  1.00  0.00     0.169 HD
BRANCH  12  15
HETATM   15  C   UNL     1     -42.863  55.863 -57.608  1.00  0.00     0.087 A 
HETATM   16  C   UNL     1     -43.852  57.022 -57.706  1.00  0.00     0.032 A 
HETATM   17  C   UNL     1     -42.394  57.232 -58.018  1.00  0.00     0.025 A 
BRANCH  16  18
HETATM   18  C   UNL     1     -44.925  56.954 -58.760  1.00  0.00    -0.053 A 
HETATM   19  C   UNL     1     -44.869  55.963 -59.756  1.00  0.00     0.009 A 
HETATM   20  C   UNL     1     -45.871  55.839 -60.722  1.00  0.00     0.024 A 
HETATM   21  C   UNL     1     -46.951  56.715 -60.706  1.00  0.00     0.034 A 
HETATM   22  C   UNL     1     -47.034  57.707 -59.733  1.00  0.00     0.024 A 
HETATM   23 CL   UNL     1     -48.193  56.566 -61.886  1.00  0.00    -0.084 Cl
HETATM   24  C   UNL     1     -46.029  57.820 -58.765  1.00  0.00     0.009 A 
ENDBRANCH  16  18
ENDBRANCH  12  15
ENDBRANCH   1  11
BRANCH   8  25
HETATM   25  C   UNL     1     -39.614  50.053 -53.313  1.00  0.00     0.270 C 
HETATM   26  N   UNL     1     -39.379  48.995 -52.478  1.00  0.00    -0.365 N 
HETATM   27  H   UNL     1     -39.377  49.156 -51.477  1.00  0.00     0.159 HD
HETATM   28  H   UNL     1     -39.192  48.084 -52.869  1.00  0.00     0.159 HD
HETATM   29  O   UNL     1     -39.613  49.911 -54.530  1.00  0.00    -0.266 OA
ENDBRANCH   8  25
TORSDOF 4
ENDMDL
MODEL 10
REMARK VINA RESULT:      -7.8      4.015      5.293
REMARK  4 active torsions:
REMARK  status: ('A' for Active; 'I' for Inactive)
REMARK    1  A    between atoms: C_2  and  C_3 
REMARK    2  A    between atoms: C_4  and  C_5 
REMARK       I    between atoms: C_5  and  N_6 
REMARK    3  A    between atoms: N_6  and  C_7 
REMARK    4  A    between atoms: C_14  and  C_15 
REMARK       I    between atoms: C_15  and  N_16 
ROOT
HETATM    1  C   UNL     1     -44.164  57.260 -52.010  1.00  0.00     0.035 A 
HETATM    2  C   UNL     1     -44.122  57.838 -53.285  1.00  0.00     0.046 A 
HETATM    3  C   UNL     1     -44.858  59.013 -53.546  1.00  0.00     0.030 A 
HETATM    4  C   UNL     1     -45.608  59.575 -52.520  1.00  0.00     0.063 A 
HETATM    5  N   UNL     1     -46.185  60.689 -53.063  1.00  0.00    -0.277 N 
HETATM    6  H   UNL     1     -46.796  61.351 -52.599  1.00  0.00     0.189 HD
HETATM    7  N   UNL     1     -45.889  60.896 -54.357  1.00  0.00    -0.168 NA
HETATM    8  C   UNL     1     -45.071  59.866 -54.672  1.00  0.00     0.156 A 
HETATM    9  C   UNL     1     -45.679  59.024 -51.240  1.00  0.00     0.034 A 
HETATM   10  C   UNL     1     -44.947  57.852 -51.009  1.00  0.00     0.032 A 
ENDROOT
BRANCH   1  11
HETATM   11  N   UNL     1     -43.444  56.097 -51.652  1.00  0.00    -0.327 N 
HETATM   12  C   UNL     1     -42.369  56.021 -50.795  1.00  0.00     0.227 C 
HETATM   13  O   UNL     1     -41.802  56.941 -50.228  1.00  0.00    -0.273 OA
HETATM   14  H   UNL     1     -43.788  55.227 -52.027  1.00  0.00     0.169 HD
BRANCH  12  15
HETATM   15  C   UNL     1     -41.871  54.643 -50.526  1.00  0.00     0.087 A 
HETATM   16  C   UNL     1     -40.462  54.341 -51.028  1.00  0.00     0.032 A 
HETATM   17  C   UNL     1     -40.792  54.228 -49.564  1.00  0.00     0.025 A 
BRANCH  16  18
HETATM   18  C   UNL     1     -40.268  53.150 -51.929  1.00  0.00    -0.053 A 
HETATM   19  C   UNL     1     -40.548  53.256 -53.303  1.00  0.00     0.009 A 
HETATM   20  C   UNL     1     -40.336  52.187 -54.177  1.00  0.00     0.024 A 
HETATM   21  C   UNL     1     -39.838  50.986 -53.685  1.00  0.00     0.034 A 
HETATM   22  C   UNL     1     -39.552  50.850 -52.329  1.00  0.00     0.024 A 
HETATM   23 CL   UNL     1     -39.565  49.667 -54.754  1.00  0.00    -0.084 Cl
HETATM   24  C   UNL     1     -39.762  51.927 -51.461  1.00  0.00     0.009 A 
ENDBRANCH  16  18
ENDBRANCH  12  15
ENDBRANCH   1  11
BRANCH   8  25
HETATM   25  C   UNL     1     -44.518  59.717 -56.025  1.00  0.00     0.270 C 
HETATM   26  N   UNL     1     -43.951  60.857 -56.525  1.00  0.00    -0.365 N 
HETATM   27  H   UNL     1     -43.959  61.695 -55.955  1.00  0.00     0.159 HD
HETATM   28  H   UNL     1     -43.557  60.852 -57.453  1.00  0.00     0.159 HD
HETATM   29  O   UNL     1     -44.544  58.683 -56.682  1.00  0.00    -0.266 OA
ENDBRANCH   8  25
TORSDOF 4
ENDMDL
