MODEL 1
REMARK VINA RESULT:      -8.0      0.000      0.000
REMARK  5 active torsions:
REMARK  status: ('A' for Active; 'I' for Inactive)
REMARK    1  A    between atoms: C_6  and  C_7 
REMARK    2  A    between atoms: C_7  and  C_8 
REMARK       I    between atoms: C_8  and  N_9 
REMARK    3  A    between atoms: N_9  and  N_10 
REMARK    4  A    between atoms: C_11  and  C_12 
REMARK    5  A    between atoms: C_13  and  O_14 
ROOT
HETATM    1  C   UNL     1     -42.064  54.843 -55.564  1.00  0.00     0.244 C 
HETATM    2  N   UNL     1     -42.080  55.449 -56.807  1.00  0.00    -0.247 N 
HETATM    3  O   UNL     1     -43.032  54.254 -55.076  1.00  0.00    -0.271 OA
HETATM    4  H   UNL     1     -41.274  56.017 -57.087  1.00  0.00     0.192 HD
ENDROOT
BRANCH   1   5
HETATM    5  C   UNL     1     -40.726  54.833 -54.846  1.00  0.00     0.183 C 
BRANCH   5   6
HETATM    6  C   UNL     1     -40.461  53.607 -54.035  1.00  0.00     0.114 A 
HETATM    7  N   UNL     1     -40.252  53.527 -52.733  1.00  0.00    -0.233 NA
HETATM    8  C   UNL     1     -40.010  52.197 -52.476  1.00  0.00     0.085 A 
HETATM    9  C   UNL     1     -40.047  51.453 -53.648  1.00  0.00     0.062 A 
HETATM   10  C   UNL     1     -39.743  51.550 -51.261  1.00  0.00     0.034 A 
HETATM   11  C   UNL     1     -39.815  50.076 -53.692  1.00  0.00     0.032 A 
HETATM   12  N   UNL     1     -40.340  52.369 -54.624  1.00  0.00    -0.342 N 
HETATM   13  C   UNL     1     -39.544  49.447 -52.471  1.00  0.00     0.002 A 
HETATM   14  C   UNL     1     -39.511  50.168 -51.275  1.00  0.00     0.002 A 
HETATM   15  H   UNL     1     -40.438  52.169 -55.609  1.00  0.00     0.167 HD
ENDBRANCH   5   6
ENDBRANCH   1   5
BRANCH   2  16
HETATM   16  N   UNL     1     -43.209  55.427 -57.563  1.00  0.00    -0.184 NA
HETATM   17  C   UNL     1     -43.436  56.499 -58.252  1.00  0.00     0.153 C 
BRANCH  17  18
HETATM   18  C   UNL     1     -44.625  56.596 -59.121  1.00  0.00     0.017 A 
HETATM   19  C   UNL     1     -45.019  55.545 -59.960  1.00  0.00     0.077 A 
HETATM   20  C   UNL     1     -46.147  55.677 -60.768  1.00  0.00     0.039 A 
HETATM   21  C   UNL     1     -46.888  56.858 -60.743  1.00  0.00     0.022 A 
HETATM   22  C   UNL     1     -46.494  57.903 -59.907  1.00  0.00     0.012 A 
HETATM   23 BR   UNL     1     -47.499  59.504 -59.876  1.00  0.00    -0.051 Br
HETATM   24  C   UNL     1     -45.367  57.782 -59.093  1.00  0.00     0.034 A 
BRANCH  19  25
HETATM   25  O   UNL     1     -44.347  54.357 -60.046  1.00  0.00    -0.360 OA
HETATM   26  H   UNL     1     -44.336  54.072 -60.990  1.00  0.00     0.217 HD
ENDBRANCH  19  25
ENDBRANCH  17  18
ENDBRANCH   2  16
TORSDOF 5
ENDMDL
MODEL 2
REMARK VINA RESULT:      -7.8      3.659      8.896
REMARK  5 active torsions:
REMARK  status: ('A' for Active; 'I' for Inactive)
REMARK    1  A    between atoms: C_6  and  C_7 
REMARK    2  A    between atoms: C_7  and  C_8 
REMARK       I    between atoms: C_8  and  N_9 
REMARK    3  A    between atoms: N_9  and  N_10 
REMARK    4  A    between atoms: C_11  and  C_12 
REMARK    5  A    between atoms: C_13  and  O_14 
ROOT
HETATM    1  C   UNL     1     -42.977  57.439 -55.038  1.00  0.00     0.244 C 
HETATM    2  N   UNL     1     -43.406  56.130 -54.921  1.00  0.00    -0.247 N 
HETATM    3  O   UNL     1     -42.037  57.913 -54.393  1.00  0.00    -0.271 OA
HETATM    4  H   UNL     1     -44.266  55.850 -55.404  1.00  0.00     0.192 HD
ENDROOT
BRANCH   1   5
HETATM    5  C   UNL     1     -43.658  58.270 -56.110  1.00  0.00     0.183 C 
BRANCH   5   6
HETATM    6  C   UNL     1     -44.101  57.500 -57.311  1.00  0.00     0.114 A 
HETATM    7  N   UNL     1     -43.413  56.607 -57.999  1.00  0.00    -0.233 NA
HETATM    8  C   UNL     1     -44.233  56.220 -59.034  1.00  0.00     0.085 A 
HETATM    9  C   UNL     1     -45.438  56.909 -58.993  1.00  0.00     0.062 A 
HETATM   10  C   UNL     1     -44.012  55.287 -60.056  1.00  0.00     0.034 A 
HETATM   11  C   UNL     1     -46.456  56.735 -59.933  1.00  0.00     0.032 A 
HETATM   12  N   UNL     1     -45.333  57.712 -57.887  1.00  0.00    -0.342 N 
HETATM   13  C   UNL     1     -46.216  55.804 -60.950  1.00  0.00     0.002 A 
HETATM   14  C   UNL     1     -45.018  55.088 -61.012  1.00  0.00     0.002 A 
HETATM   15  H   UNL     1     -46.037  58.358 -57.559  1.00  0.00     0.167 HD
ENDBRANCH   5   6
ENDBRANCH   1   5
BRANCH   2  16
HETATM   16  N   UNL     1     -42.794  55.285 -54.051  1.00  0.00    -0.184 NA
HETATM   17  C   UNL     1     -41.810  54.600 -54.540  1.00  0.00     0.153 C 
BRANCH  17  18
HETATM   18  C   UNL     1     -41.059  53.654 -53.693  1.00  0.00     0.017 A 
HETATM   19  C   UNL     1     -40.702  53.961 -52.373  1.00  0.00     0.077 A 
HETATM   20  C   UNL     1     -39.988  53.042 -51.606  1.00  0.00     0.039 A 
HETATM   21  C   UNL     1     -39.627  51.811 -52.153  1.00  0.00     0.022 A 
HETATM   22  C   UNL     1     -39.983  51.507 -53.467  1.00  0.00     0.012 A 
HETATM   23 BR   UNL     1     -39.490  49.838 -54.206  1.00  0.00    -0.051 Br
HETATM   24  C   UNL     1     -40.698  52.420 -54.244  1.00  0.00     0.034 A 
BRANCH  19  25
HETATM   25  O   UNL     1     -41.014  55.146 -51.764  1.00  0.00    -0.360 OA
HETATM   26  H   UNL     1     -40.178  55.641 -51.598  1.00  0.00     0.217 HD
ENDBRANCH  19  25
ENDBRANCH  17  18
ENDBRANCH   2  16
TORSDOF 5
ENDMDL
MODEL 3
REMARK VINA RESULT:      -7.4      3.950      8.962
REMARK  5 active torsions:
REMARK  status: ('A' for Active; 'I' for Inactive)
REMARK    1  A    between atoms: C_6  and  C_7 
REMARK    2  A    between atoms: C_7  and  C_8 
REMARK       I    between atoms: C_8  and  N_9 
REMARK    3  A    between atoms: N_9  and  N_10 
REMARK    4  A    between atoms: C_11  and  C_12 
REMARK    5  A    between atoms: C_13  and  O_14 
ROOT
HETATM    1  C   UNL     1     -44.277  57.014 -53.656  1.00  0.00     0.244 C 
HETATM    2  N   UNL     1     -43.568  55.999 -54.270  1.00  0.00    -0.247 N 
HETATM    3  O   UNL     1     -44.353  57.157 -52.432  1.00  0.00    -0.271 OA
HETATM    4  H   UNL     1     -43.654  55.883 -55.284  1.00  0.00     0.192 HD
ENDROOT
BRANCH   1   5
HETATM    5  C   UNL     1     -44.888  58.052 -54.581  1.00  0.00     0.183 C 
BRANCH   5   6
HETATM    6  C   UNL     1     -44.349  58.044 -55.974  1.00  0.00     0.114 A 
HETATM    7  N   UNL     1     -43.141  58.395 -56.376  1.00  0.00    -0.233 NA
HETATM    8  C   UNL     1     -43.149  58.257 -57.745  1.00  0.00     0.085 A 
HETATM    9  C   UNL     1     -44.396  57.838 -58.191  1.00  0.00     0.062 A 
HETATM   10  C   UNL     1     -42.127  58.481 -58.678  1.00  0.00     0.034 A 
HETATM   11  C   UNL     1     -44.701  57.635 -59.539  1.00  0.00     0.032 A 
HETATM   12  N   UNL     1     -45.139  57.704 -57.048  1.00  0.00    -0.342 N 
HETATM   13  C   UNL     1     -43.671  57.869 -60.457  1.00  0.00     0.002 A 
HETATM   14  C   UNL     1     -42.404  58.281 -60.037  1.00  0.00     0.002 A 
HETATM   15  H   UNL     1     -46.106  57.416 -57.005  1.00  0.00     0.167 HD
ENDBRANCH   5   6
ENDBRANCH   1   5
BRANCH   2  16
HETATM   16  N   UNL     1     -42.910  55.075 -53.520  1.00  0.00    -0.184 NA
HETATM   17  C   UNL     1     -41.840  54.583 -54.058  1.00  0.00     0.153 C 
BRANCH  17  18
HETATM   18  C   UNL     1     -41.033  53.578 -53.340  1.00  0.00     0.017 A 
HETATM   19  C   UNL     1     -40.597  53.778 -52.024  1.00  0.00     0.077 A 
HETATM   20  C   UNL     1     -39.833  52.805 -51.381  1.00  0.00     0.039 A 
HETATM   21  C   UNL     1     -39.500  51.627 -52.050  1.00  0.00     0.022 A 
HETATM   22  C   UNL     1     -39.935  51.431 -53.361  1.00  0.00     0.012 A 
HETATM   23 BR   UNL     1     -39.479  49.834 -54.266  1.00  0.00    -0.051 Br
HETATM   24  C   UNL     1     -40.701  52.398 -54.013  1.00  0.00     0.034 A 
BRANCH  19  25
HETATM   25  O   UNL     1     -40.878  54.904 -51.300  1.00  0.00    -0.360 OA
HETATM   26  H   UNL     1     -40.515  55.684 -51.781  1.00  0.00     0.217 HD
ENDBRANCH  19  25
ENDBRANCH  17  18
ENDBRANCH   2  16
TORSDOF 5
ENDMDL
MODEL 4
REMARK VINA RESULT:      -7.4      1.601      2.114
REMARK  5 active torsions:
REMARK  status: ('A' for Active; 'I' for Inactive)
REMARK    1  A    between atoms: C_6  and  C_7 
REMARK    2  A    between atoms: C_7  and  C_8 
REMARK       I    between atoms: C_8  and  N_9 
REMARK    3  A    between atoms: N_9  and  N_10 
REMARK    4  A    between atoms: C_11  and  C_12 
REMARK    5  A    between atoms: C_13  and  O_14 
ROOT
HETATM    1  C   UNL     1     -42.155  56.005 -53.531  1.00  0.00     0.244 C 
HETATM    2  N   UNL     1     -41.839  56.150 -54.868  1.00  0.00    -0.247 N 
HETATM    3  O   UNL     1     -43.291  56.158 -53.073  1.00  0.00    -0.271 OA
HETATM    4  H   UNL     1     -40.853  56.122 -55.146  1.00  0.00     0.192 HD
ENDROOT
BRANCH   1   5
HETATM    5  C   UNL     1     -41.032  55.523 -52.629  1.00  0.00     0.183 C 
BRANCH   5   6
HETATM    6  C   UNL     1     -40.647  54.092 -52.821  1.00  0.00     0.114 A 
HETATM    7  N   UNL     1     -40.687  53.386 -53.936  1.00  0.00    -0.233 NA
HETATM    8  C   UNL     1     -40.281  52.118 -53.588  1.00  0.00     0.085 A 
HETATM    9  C   UNL     1     -40.011  52.041 -52.228  1.00  0.00     0.062 A 
HETATM   10  C   UNL     1     -40.125  50.974 -54.383  1.00  0.00     0.034 A 
HETATM   11  C   UNL     1     -39.600  50.869 -51.591  1.00  0.00     0.032 A 
HETATM   12  N   UNL     1     -40.246  53.309 -51.763  1.00  0.00    -0.342 N 
HETATM   13  C   UNL     1     -39.455  49.735 -52.399  1.00  0.00     0.002 A 
HETATM   14  C   UNL     1     -39.709  49.784 -53.772  1.00  0.00     0.002 A 
HETATM   15  H   UNL     1     -40.151  53.611 -50.804  1.00  0.00     0.167 HD
ENDBRANCH   5   6
ENDBRANCH   1   5
BRANCH   2  16
HETATM   16  N   UNL     1     -42.802  56.490 -55.765  1.00  0.00    -0.184 NA
HETATM   17  C   UNL     1     -42.414  56.551 -56.999  1.00  0.00     0.153 C 
BRANCH  17  18
HETATM   18  C   UNL     1     -43.369  56.901 -58.069  1.00  0.00     0.017 A 
HETATM   19  C   UNL     1     -43.118  56.605 -59.415  1.00  0.00     0.077 A 
HETATM   20  C   UNL     1     -44.043  56.956 -60.396  1.00  0.00     0.039 A 
HETATM   21  C   UNL     1     -45.225  57.605 -60.038  1.00  0.00     0.022 A 
HETATM   22  C   UNL     1     -45.472  57.900 -58.698  1.00  0.00     0.012 A 
HETATM   23 BR   UNL     1     -47.074  58.783 -58.216  1.00  0.00    -0.051 Br
HETATM   24  C   UNL     1     -44.553  57.552 -57.707  1.00  0.00     0.034 A 
BRANCH  19  25
HETATM   25  O   UNL     1     -41.985  55.974 -59.849  1.00  0.00    -0.360 OA
HETATM   26  H   UNL     1     -42.233  55.339 -60.561  1.00  0.00     0.217 HD
ENDBRANCH  19  25
ENDBRANCH  17  18
ENDBRANCH   2  16
TORSDOF 5
ENDMDL
MODEL 5
REMARK VINA RESULT:      -7.2      3.740      8.942
REMARK  5 active torsions:
REMARK  status: ('A' for Active; 'I' for Inactive)
REMARK    1  A    between atoms: C_6  and  C_7 
REMARK    2  A    between atoms: C_7  and  C_8 
REMARK       I    between atoms: C_8  and  N_9 
REMARK    3  A    between atoms: N_9  and  N_10 
REMARK    4  A    between atoms: C_11  and  C_12 
REMARK    5  A    between atoms: C_13  and  O_14 
ROOT
HETATM    1  C   UNL     1     -42.412  57.623 -55.309  1.00  0.00     0.244 C 
HETATM    2  N   UNL     1     -42.446  56.249 -55.459  1.00  0.00    -0.247 N 
HETATM    3  O   UNL     1     -41.649  58.211 -54.538  1.00  0.00    -0.271 OA
HETATM    4  H   UNL     1     -43.189  55.835 -56.031  1.00  0.00     0.192 HD
ENDROOT
BRANCH   1   5
HETATM    5  C   UNL     1     -43.306  58.417 -56.246  1.00  0.00     0.183 C 
BRANCH   5   6
HETATM    6  C   UNL     1     -43.856  57.637 -57.396  1.00  0.00     0.114 A 
HETATM    7  N   UNL     1     -43.206  56.820 -58.204  1.00  0.00    -0.233 NA
HETATM    8  C   UNL     1     -44.135  56.387 -59.123  1.00  0.00     0.085 A 
HETATM    9  C   UNL     1     -45.373  56.972 -58.885  1.00  0.00     0.062 A 
HETATM   10  C   UNL     1     -43.992  55.498 -60.196  1.00  0.00     0.034 A 
HETATM   11  C   UNL     1     -46.499  56.733 -59.675  1.00  0.00     0.032 A 
HETATM   12  N   UNL     1     -45.172  57.757 -57.781  1.00  0.00    -0.342 N 
HETATM   13  C   UNL     1     -46.337  55.846 -60.746  1.00  0.00     0.002 A 
HETATM   14  C   UNL     1     -45.107  55.235 -61.003  1.00  0.00     0.002 A 
HETATM   15  H   UNL     1     -45.870  58.334 -57.333  1.00  0.00     0.167 HD
ENDBRANCH   5   6
ENDBRANCH   1   5
BRANCH   2  16
HETATM   16  N   UNL     1     -41.614  55.461 -54.727  1.00  0.00    -0.184 NA
HETATM   17  C   UNL     1     -42.132  54.951 -53.656  1.00  0.00     0.153 C 
BRANCH  17  18
HETATM   18  C   UNL     1     -41.333  54.070 -52.782  1.00  0.00     0.017 A 
HETATM   19  C   UNL     1     -40.620  52.974 -53.284  1.00  0.00     0.077 A 
HETATM   20  C   UNL     1     -39.880  52.164 -52.425  1.00  0.00     0.039 A 
HETATM   21  C   UNL     1     -39.849  52.444 -51.059  1.00  0.00     0.022 A 
HETATM   22  C   UNL     1     -40.560  53.535 -50.561  1.00  0.00     0.012 A 
HETATM   23 BR   UNL     1     -40.518  53.911 -48.708  1.00  0.00    -0.051 Br
HETATM   24  C   UNL     1     -41.304  54.354 -51.413  1.00  0.00     0.034 A 
BRANCH  19  25
HETATM   25  O   UNL     1     -40.601  52.630 -54.608  1.00  0.00    -0.360 OA
HETATM   26  H   UNL     1     -39.757  52.952 -55.003  1.00  0.00     0.217 HD
ENDBRANCH  19  25
ENDBRANCH  17  18
ENDBRANCH   2  16
TORSDOF 5
ENDMDL
MODEL 6
REMARK VINA RESULT:      -7.2      4.366      9.114
REMARK  5 active torsions:
REMARK  status: ('A' for Active; 'I' for Inactive)
REMARK    1  A    between atoms: C_6  and  C_7 
REMARK    2  A    between atoms: C_7  and  C_8 
REMARK       I    between atoms: C_8  and  N_9 
REMARK    3  A    between atoms: N_9  and  N_10 
REMARK    4  A    between atoms: C_11  and  C_12 
REMARK    5  A    between atoms: C_13  and  O_14 
ROOT
HETATM    1  C   UNL     1     -41.945  59.008 -54.588  1.00  0.00     0.244 C 
HETATM    2  N   UNL     1     -42.423  57.814 -54.083  1.00  0.00    -0.247 N 
HETATM    3  O   UNL     1     -40.934  59.577 -54.166  1.00  0.00    -0.271 OA
HETATM    4  H   UNL     1     -43.332  57.470 -54.409  1.00  0.00     0.192 HD
ENDROOT
BRANCH   1   5
HETATM    5  C   UNL     1     -42.676  59.558 -55.801  1.00  0.00     0.183 C 
BRANCH   5   6
HETATM    6  C   UNL     1     -43.118  58.525 -56.786  1.00  0.00     0.114 A 
HETATM    7  N   UNL     1     -42.443  57.474 -57.213  1.00  0.00    -0.233 NA
HETATM    8  C   UNL     1     -43.254  56.863 -58.142  1.00  0.00     0.085 A 
HETATM    9  C   UNL     1     -44.439  57.570 -58.303  1.00  0.00     0.062 A 
HETATM   10  C   UNL     1     -43.041  55.701 -58.896  1.00  0.00     0.034 A 
HETATM   11  C   UNL     1     -45.443  57.193 -59.198  1.00  0.00     0.032 A 
HETATM   12  N   UNL     1     -44.331  58.618 -57.428  1.00  0.00    -0.342 N 
HETATM   13  C   UNL     1     -45.211  56.034 -59.948  1.00  0.00     0.002 A 
HETATM   14  C   UNL     1     -44.034  55.296 -59.799  1.00  0.00     0.002 A 
HETATM   15  H   UNL     1     -45.023  59.342 -57.288  1.00  0.00     0.167 HD
ENDBRANCH   5   6
ENDBRANCH   1   5
BRANCH   2  16
HETATM   16  N   UNL     1     -41.778  57.199 -53.056  1.00  0.00    -0.184 NA
HETATM   17  C   UNL     1     -41.998  55.929 -52.942  1.00  0.00     0.153 C 
BRANCH  17  18
HETATM   18  C   UNL     1     -41.349  55.148 -51.872  1.00  0.00     0.017 A 
HETATM   19  C   UNL     1     -41.238  55.632 -50.562  1.00  0.00     0.077 A 
HETATM   20  C   UNL     1     -40.615  54.865 -49.579  1.00  0.00     0.039 A 
HETATM   21  C   UNL     1     -40.098  53.609 -49.900  1.00  0.00     0.022 A 
HETATM   22  C   UNL     1     -40.209  53.129 -51.205  1.00  0.00     0.012 A 
HETATM   23 BR   UNL     1     -39.506  51.428 -51.637  1.00  0.00    -0.051 Br
HETATM   24  C   UNL     1     -40.832  53.889 -52.196  1.00  0.00     0.034 A 
BRANCH  19  25
HETATM   25  O   UNL     1     -41.715  56.851 -50.167  1.00  0.00    -0.360 OA
HETATM   26  H   UNL     1     -41.354  57.053 -49.272  1.00  0.00     0.217 HD
ENDBRANCH  19  25
ENDBRANCH  17  18
ENDBRANCH   2  16
TORSDOF 5
ENDMDL
MODEL 7
REMARK VINA RESULT:      -7.1      1.724      2.223
REMARK  5 active torsions:
REMARK  status: ('A' for Active; 'I' for Inactive)
REMARK    1  A    between atoms: C_6  and  C_7 
REMARK    2  A    between atoms: C_7  and  C_8 
REMARK       I    between atoms: C_8  and  N_9 
REMARK    3  A    between atoms: N_9  and  N_10 
REMARK    4  A    between atoms: C_11  and  C_12 
REMARK    5  A    between atoms: C_13  and  O_14 
ROOT
HETATM    1  C   UNL     1     -41.891  55.276 -55.081  1.00  0.00     0.244 C 
HETATM    2  N   UNL     1     -42.104  56.548 -55.576  1.00  0.00    -0.247 N 
HETATM    3  O   UNL     1     -42.777  54.423 -54.977  1.00  0.00    -0.271 OA
HETATM    4  H   UNL     1     -41.342  57.232 -55.519  1.00  0.00     0.192 HD
ENDROOT
BRANCH   1   5
HETATM    5  C   UNL     1     -40.450  54.917 -54.763  1.00  0.00     0.183 C 
BRANCH   5   6
HETATM    6  C   UNL     1     -40.277  53.656 -53.982  1.00  0.00     0.114 A 
HETATM    7  N   UNL     1     -40.145  53.526 -52.674  1.00  0.00    -0.233 NA
HETATM    8  C   UNL     1     -39.969  52.179 -52.449  1.00  0.00     0.085 A 
HETATM    9  C   UNL     1     -39.967  51.475 -53.646  1.00  0.00     0.062 A 
HETATM   10  C   UNL     1     -39.795  51.484 -51.245  1.00  0.00     0.034 A 
HETATM   11  C   UNL     1     -39.786  50.093 -53.725  1.00  0.00     0.032 A 
HETATM   12  N   UNL     1     -40.170  52.433 -54.605  1.00  0.00    -0.342 N 
HETATM   13  C   UNL     1     -39.607  49.415 -52.513  1.00  0.00     0.002 A 
HETATM   14  C   UNL     1     -39.615  50.095 -51.293  1.00  0.00     0.002 A 
HETATM   15  H   UNL     1     -40.220  52.269 -55.600  1.00  0.00     0.167 HD
ENDBRANCH   5   6
ENDBRANCH   1   5
BRANCH   2  16
HETATM   16  N   UNL     1     -43.347  56.928 -55.973  1.00  0.00    -0.184 NA
HETATM   17  C   UNL     1     -43.442  57.318 -57.204  1.00  0.00     0.153 C 
BRANCH  17  18
HETATM   18  C   UNL     1     -44.741  57.747 -57.757  1.00  0.00     0.017 A 
HETATM   19  C   UNL     1     -45.466  58.813 -57.209  1.00  0.00     0.077 A 
HETATM   20  C   UNL     1     -46.692  59.185 -57.758  1.00  0.00     0.039 A 
HETATM   21  C   UNL     1     -47.201  58.495 -58.858  1.00  0.00     0.022 A 
HETATM   22  C   UNL     1     -46.477  57.433 -59.402  1.00  0.00     0.012 A 
HETATM   23 BR   UNL     1     -47.171  56.497 -60.891  1.00  0.00    -0.051 Br
HETATM   24  C   UNL     1     -45.249  57.053 -58.860  1.00  0.00     0.034 A 
BRANCH  19  25
HETATM   25  O   UNL     1     -45.040  59.539 -56.131  1.00  0.00    -0.360 OA
HETATM   26  H   UNL     1     -44.160  59.929 -56.344  1.00  0.00     0.217 HD
ENDBRANCH  19  25
ENDBRANCH  17  18
ENDBRANCH   2  16
TORSDOF 5
ENDMDL
MODEL 8
REMARK VINA RESULT:      -7.1      2.668      3.269
REMARK  5 active torsions:
REMARK  status: ('A' for Active; 'I' for Inactive)
REMARK    1  A    between atoms: C_6  and  C_7 
REMARK    2  A    between atoms: C_7  and  C_8 
REMARK       I    between atoms: C_8  and  N_9 
REMARK    3  A    between atoms: N_9  and  N_10 
REMARK    4  A    between atoms: C_11  and  C_12 
REMARK    5  A    between atoms: C_13  and  O_14 
ROOT
HETATM    1  C   UNL     1     -43.253  56.546 -54.876  1.00  0.00     0.244 C 
HETATM    2  N   UNL     1     -43.985  56.570 -56.047  1.00  0.00    -0.247 N 
HETATM    3  O   UNL     1     -42.419  57.402 -54.569  1.00  0.00    -0.271 OA
HETATM    4  H   UNL     1     -44.569  55.759 -56.279  1.00  0.00     0.192 HD
ENDROOT
BRANCH   1   5
HETATM    5  C   UNL     1     -43.607  55.445 -53.891  1.00  0.00     0.183 C 
BRANCH   5   6
HETATM    6  C   UNL     1     -42.542  54.418 -53.691  1.00  0.00     0.114 A 
HETATM    7  N   UNL     1     -42.109  53.522 -54.559  1.00  0.00    -0.233 NA
HETATM    8  C   UNL     1     -41.161  52.781 -53.889  1.00  0.00     0.085 A 
HETATM    9  C   UNL     1     -41.031  53.218 -52.577  1.00  0.00     0.062 A 
HETATM   10  C   UNL     1     -40.374  51.712 -54.337  1.00  0.00     0.034 A 
HETATM   11  C   UNL     1     -40.157  52.636 -51.657  1.00  0.00     0.032 A 
HETATM   12  N   UNL     1     -41.914  54.261 -52.477  1.00  0.00    -0.342 N 
HETATM   13  C   UNL     1     -39.383  51.565 -52.119  1.00  0.00     0.002 A 
HETATM   14  C   UNL     1     -39.484  51.111 -53.437  1.00  0.00     0.002 A 
HETATM   15  H   UNL     1     -42.082  54.812 -51.647  1.00  0.00     0.167 HD
ENDBRANCH   5   6
ENDBRANCH   1   5
BRANCH   2  16
HETATM   16  N   UNL     1     -43.800  57.571 -56.949  1.00  0.00    -0.184 NA
HETATM   17  C   UNL     1     -43.027  57.284 -57.946  1.00  0.00     0.153 C 
BRANCH  17  18
HETATM   18  C   UNL     1     -42.755  58.285 -58.997  1.00  0.00     0.017 A 
HETATM   19  C   UNL     1     -41.971  57.989 -60.119  1.00  0.00     0.077 A 
HETATM   20  C   UNL     1     -41.735  58.963 -61.088  1.00  0.00     0.039 A 
HETATM   21  C   UNL     1     -42.280  60.238 -60.940  1.00  0.00     0.022 A 
HETATM   22  C   UNL     1     -43.059  60.531 -59.821  1.00  0.00     0.012 A 
HETATM   23 BR   UNL     1     -43.795  62.262 -59.622  1.00  0.00    -0.051 Br
HETATM   24  C   UNL     1     -43.303  59.563 -58.846  1.00  0.00     0.034 A 
BRANCH  19  25
HETATM   25  O   UNL     1     -41.399  56.766 -60.337  1.00  0.00    -0.360 OA
HETATM   26  H   UNL     1     -41.297  56.308 -59.470  1.00  0.00     0.217 HD
ENDBRANCH  19  25
ENDBRANCH  17  18
ENDBRANCH   2  16
TORSDOF 5
ENDMDL
MODEL 9
REMARK VINA RESULT:      -7.0      4.465      9.399
REMARK  5 active torsions:
REMARK  status: ('A' for Active; 'I' for Inactive)
REMARK    1  A    between atoms: C_6  and  C_7 
REMARK    2  A    between atoms: C_7  and  C_8 
REMARK       I    between atoms: C_8  and  N_9 
REMARK    3  A    between atoms: N_9  and  N_10 
REMARK    4  A    between atoms: C_11  and  C_12 
REMARK    5  A    between atoms: C_13  and  O_14 
ROOT
HETATM    1  C   UNL     1     -41.342  59.004 -53.544  1.00  0.00     0.244 C 
HETATM    2  N   UNL     1     -42.034  57.870 -53.163  1.00  0.00    -0.247 N 
HETATM    3  O   UNL     1     -40.125  59.147 -53.400  1.00  0.00    -0.271 OA
HETATM    4  H   UNL     1     -43.058  57.880 -53.210  1.00  0.00     0.192 HD
ENDROOT
BRANCH   1   5
HETATM    5  C   UNL     1     -42.149  60.061 -54.278  1.00  0.00     0.183 C 
BRANCH   5   6
HETATM    6  C   UNL     1     -42.206  59.887 -55.760  1.00  0.00     0.114 A 
HETATM    7  N   UNL     1     -41.699  60.679 -56.688  1.00  0.00    -0.233 NA
HETATM    8  C   UNL     1     -42.056  60.117 -57.893  1.00  0.00     0.085 A 
HETATM    9  C   UNL     1     -42.818  58.973 -57.697  1.00  0.00     0.062 A 
HETATM   10  C   UNL     1     -41.769  60.535 -59.200  1.00  0.00     0.034 A 
HETATM   11  C   UNL     1     -43.337  58.207 -58.743  1.00  0.00     0.032 A 
HETATM   12  N   UNL     1     -42.895  58.844 -56.335  1.00  0.00    -0.342 N 
HETATM   13  C   UNL     1     -43.046  58.643 -60.042  1.00  0.00     0.002 A 
HETATM   14  C   UNL     1     -42.273  59.784 -60.270  1.00  0.00     0.002 A 
HETATM   15  H   UNL     1     -43.386  58.113 -55.840  1.00  0.00     0.167 HD
ENDBRANCH   5   6
ENDBRANCH   1   5
BRANCH   2  16
HETATM   16  N   UNL     1     -41.377  56.832 -52.582  1.00  0.00    -0.184 NA
HETATM   17  C   UNL     1     -41.671  55.659 -53.044  1.00  0.00     0.153 C 
BRANCH  17  18
HETATM   18  C   UNL     1     -41.018  54.452 -52.501  1.00  0.00     0.017 A 
HETATM   19  C   UNL     1     -40.631  54.358 -51.158  1.00  0.00     0.077 A 
HETATM   20  C   UNL     1     -40.013  53.202 -50.684  1.00  0.00     0.039 A 
HETATM   21  C   UNL     1     -39.778  52.134 -51.550  1.00  0.00     0.022 A 
HETATM   22  C   UNL     1     -40.163  52.230 -52.887  1.00  0.00     0.012 A 
HETATM   23 BR   UNL     1     -39.840  50.781 -54.058  1.00  0.00    -0.051 Br
HETATM   24  C   UNL     1     -40.783  53.382 -53.371  1.00  0.00     0.034 A 
BRANCH  19  25
HETATM   25  O   UNL     1     -40.823  55.359 -50.247  1.00  0.00    -0.360 OA
HETATM   26  H   UNL     1     -40.507  56.206 -50.641  1.00  0.00     0.217 HD
ENDBRANCH  19  25
ENDBRANCH  17  18
ENDBRANCH   2  16
TORSDOF 5
ENDMDL
MODEL 10
REMARK VINA RESULT:      -7.0     15.030     17.638
REMARK  5 active torsions:
REMARK  status: ('A' for Active; 'I' for Inactive)
REMARK    1  A    between atoms: C_6  and  C_7 
REMARK    2  A    between atoms: C_7  and  C_8 
REMARK       I    between atoms: C_8  and  N_9 
REMARK    3  A    between atoms: N_9  and  N_10 
REMARK    4  A    between atoms: C_11  and  C_12 
REMARK    5  A    between atoms: C_13  and  O_14 
ROOT
HETATM    1  C   UNL     1     -36.919  41.814 -57.371  1.00  0.00     0.244 C 
HETATM    2  N   UNL     1     -36.104  40.869 -56.778  1.00  0.00    -0.247 N 
HETATM    3  O   UNL     1     -37.579  42.645 -56.740  1.00  0.00    -0.271 OA
HETATM    4  H   UNL     1     -35.684  40.142 -57.367  1.00  0.00     0.192 HD
ENDROOT
BRANCH   1   5
HETATM    5  C   UNL     1     -36.882  41.867 -58.888  1.00  0.00     0.183 C 
BRANCH   5   6
HETATM    6  C   UNL     1     -37.507  40.695 -59.570  1.00  0.00     0.114 A 
HETATM    7  N   UNL     1     -38.308  39.786 -59.045  1.00  0.00    -0.233 NA
HETATM    8  C   UNL     1     -38.574  38.893 -60.059  1.00  0.00     0.085 A 
HETATM    9  C   UNL     1     -37.901  39.250 -61.220  1.00  0.00     0.062 A 
HETATM   10  C   UNL     1     -39.379  37.745 -60.058  1.00  0.00     0.034 A 
HETATM   11  C   UNL     1     -37.968  38.514 -62.404  1.00  0.00     0.032 A 
HETATM   12  N   UNL     1     -37.234  40.400 -60.887  1.00  0.00    -0.342 N 
HETATM   13  C   UNL     1     -38.771  37.367 -62.384  1.00  0.00     0.002 A 
HETATM   14  C   UNL     1     -39.468  36.989 -61.234  1.00  0.00     0.002 A 
HETATM   15  H   UNL     1     -36.636  40.933 -61.502  1.00  0.00     0.167 HD
ENDBRANCH   5   6
ENDBRANCH   1   5
BRANCH   2  16
HETATM   16  N   UNL     1     -36.003  40.806 -55.423  1.00  0.00    -0.184 NA
HETATM   17  C   UNL     1     -34.827  41.055 -54.943  1.00  0.00     0.153 C 
BRANCH  17  18
HETATM   18  C   UNL     1     -34.590  41.027 -53.486  1.00  0.00     0.017 A 
HETATM   19  C   UNL     1     -35.343  41.805 -52.597  1.00  0.00     0.077 A 
HETATM   20  C   UNL     1     -35.086  41.754 -51.228  1.00  0.00     0.039 A 
HETATM   21  C   UNL     1     -34.075  40.926 -50.740  1.00  0.00     0.022 A 
HETATM   22  C   UNL     1     -33.326  40.153 -51.627  1.00  0.00     0.012 A 
HETATM   23 BR   UNL     1     -31.954  39.034 -50.963  1.00  0.00    -0.051 Br
HETATM   24  C   UNL     1     -33.576  40.196 -53.000  1.00  0.00     0.034 A 
BRANCH  19  25
HETATM   25  O   UNL     1     -36.348  42.643 -52.994  1.00  0.00    -0.360 OA
HETATM   26  H   UNL     1     -36.829  42.956 -52.192  1.00  0.00     0.217 HD
ENDBRANCH  19  25
ENDBRANCH  17  18
ENDBRANCH   2  16
TORSDOF 5
ENDMDL
