MODEL 1
REMARK VINA RESULT:      -8.2      0.000      0.000
REMARK  8 active torsions:
REMARK  status: ('A' for Active; 'I' for Inactive)
REMARK    1  A    between atoms: C_7  and  C_8 
REMARK    2  A    between atoms: C_10  and  O_11 
REMARK    3  A    between atoms: C_13  and  O_14 
REMARK    4  A    between atoms: O_14  and  C_15 
REMARK    5  A    between atoms: C_15  and  C_16 
REMARK       I    between atoms: C_16  and  N_17 
REMARK    6  A    between atoms: C_21  and  C_22 
REMARK       I    between atoms: C_22  and  N_23 
REMARK    7  A    between atoms: N_23  and  C_24 
REMARK    8  A    between atoms: C_24  and  C_25 
ROOT
HETATM    1  C   UNL     1     -43.437  54.209 -51.442  1.00  0.00     0.069 C 
HETATM    2  C   UNL     1     -43.209  55.529 -52.123  1.00  0.00     0.024 C 
HETATM    3  N   UNL     1     -43.590  56.636 -51.399  1.00  0.00    -0.312 N 
HETATM    4  C   UNL     1     -43.338  57.931 -51.741  1.00  0.00     0.321 C 
HETATM    5  O   UNL     1     -43.678  58.866 -51.027  1.00  0.00    -0.247 OA
HETATM    6  N   UNL     1     -42.671  58.127 -52.904  1.00  0.00    -0.330 N 
HETATM    7  C   UNL     1     -42.398  57.099 -53.891  1.00  0.00     0.160 C 
HETATM    8  C   UNL     1     -42.643  55.724 -53.330  1.00  0.00     0.059 C 
HETATM    9  H   UNL     1     -44.028  56.525 -50.491  1.00  0.00     0.170 HD
HETATM   10  H   UNL     1     -42.512  59.094 -53.150  1.00  0.00     0.165 HD
ENDROOT
BRANCH   7  11
HETATM   11  C   UNL     1     -43.214  57.380 -55.146  1.00  0.00    -0.028 A 
HETATM   12  C   UNL     1     -42.663  57.193 -56.428  1.00  0.00     0.049 A 
HETATM   13  C   UNL     1     -43.416  57.443 -57.580  1.00  0.00     0.102 A 
HETATM   14  C   UNL     1     -44.737  57.904 -57.451  1.00  0.00     0.102 A 
HETATM   15  C   UNL     1     -45.298  58.080 -56.185  1.00  0.00     0.040 A 
HETATM   16  C   UNL     1     -44.538  57.828 -55.040  1.00  0.00     0.012 A 
BRANCH  13  17
HETATM   17  O   UNL     1     -42.949  57.299 -58.863  1.00  0.00    -0.353 OA
HETATM   18  C   UNL     1     -41.990  58.247 -59.314  1.00  0.00     0.210 C 
ENDBRANCH  13  17
BRANCH  14  19
HETATM   19  O   UNL     1     -45.424  58.109 -58.620  1.00  0.00    -0.339 OA
BRANCH  19  20
HETATM   20  C   UNL     1     -46.638  57.379 -58.778  1.00  0.00     0.278 C 
BRANCH  20  21
HETATM   21  C   UNL     1     -46.600  56.622 -60.102  1.00  0.00     0.239 C 
HETATM   22  N   UNL     1     -45.392  56.622 -60.742  1.00  0.00    -0.368 N 
HETATM   23  H   UNL     1     -44.562  56.895 -60.225  1.00  0.00     0.159 HD
HETATM   24  H   UNL     1     -45.293  56.067 -61.580  1.00  0.00     0.159 HD
HETATM   25  O   UNL     1     -47.585  56.091 -60.604  1.00  0.00    -0.271 OA
ENDBRANCH  20  21
ENDBRANCH  19  20
ENDBRANCH  14  19
ENDBRANCH   7  11
BRANCH   8  26
HETATM   26  C   UNL     1     -42.152  54.620 -54.193  1.00  0.00     0.252 C 
HETATM   27  N   UNL     1     -40.832  54.299 -54.020  1.00  0.00    -0.353 N 
HETATM   28  H   UNL     1     -40.313  54.706 -53.253  1.00  0.00     0.163 HD
HETATM   29  O   UNL     1     -42.919  54.019 -54.937  1.00  0.00    -0.268 OA
BRANCH  27  30
HETATM   30  C   UNL     1     -40.238  53.182 -54.716  1.00  0.00     0.161 C 
BRANCH  30  31
HETATM   31  C   UNL     1     -40.011  52.025 -53.779  1.00  0.00    -0.041 A 
HETATM   32  C   UNL     1     -39.902  50.716 -54.266  1.00  0.00     0.009 A 
HETATM   33  C   UNL     1     -39.685  49.650 -53.389  1.00  0.00     0.001 A 
HETATM   34  C   UNL     1     -39.579  49.883 -52.018  1.00  0.00     0.000 A 
HETATM   35  C   UNL     1     -39.691  51.181 -51.521  1.00  0.00     0.001 A 
HETATM   36  C   UNL     1     -39.905  52.246 -52.397  1.00  0.00     0.009 A 
ENDBRANCH  30  31
ENDBRANCH  27  30
ENDBRANCH   8  26
TORSDOF 8
ENDMDL
MODEL 2
REMARK VINA RESULT:      -8.0      1.549      1.842
REMARK  8 active torsions:
REMARK  status: ('A' for Active; 'I' for Inactive)
REMARK    1  A    between atoms: C_7  and  C_8 
REMARK    2  A    between atoms: C_10  and  O_11 
REMARK    3  A    between atoms: C_13  and  O_14 
REMARK    4  A    between atoms: O_14  and  C_15 
REMARK    5  A    between atoms: C_15  and  C_16 
REMARK       I    between atoms: C_16  and  N_17 
REMARK    6  A    between atoms: C_21  and  C_22 
REMARK       I    between atoms: C_22  and  N_23 
REMARK    7  A    between atoms: N_23  and  C_24 
REMARK    8  A    between atoms: C_24  and  C_25 
ROOT
HETATM    1  C   UNL     1     -43.273  54.144 -51.225  1.00  0.00     0.069 C 
HETATM    2  C   UNL     1     -43.439  55.541 -51.750  1.00  0.00     0.024 C 
HETATM    3  N   UNL     1     -44.477  56.257 -51.194  1.00  0.00    -0.312 N 
HETATM    4  C   UNL     1     -44.720  57.583 -51.395  1.00  0.00     0.321 C 
HETATM    5  O   UNL     1     -45.644  58.162 -50.837  1.00  0.00    -0.247 OA
HETATM    6  N   UNL     1     -43.873  58.231 -52.229  1.00  0.00    -0.330 N 
HETATM    7  C   UNL     1     -42.877  57.589 -53.067  1.00  0.00     0.160 C 
HETATM    8  C   UNL     1     -42.662  56.156 -52.662  1.00  0.00     0.059 C 
HETATM    9  H   UNL     1     -45.087  55.822 -50.511  1.00  0.00     0.170 HD
HETATM   10  H   UNL     1     -44.083  59.208 -52.382  1.00  0.00     0.165 HD
ENDROOT
BRANCH   7  11
HETATM   11  C   UNL     1     -43.282  57.737 -54.529  1.00  0.00    -0.028 A 
HETATM   12  C   UNL     1     -42.373  58.216 -55.490  1.00  0.00     0.049 A 
HETATM   13  C   UNL     1     -42.743  58.343 -56.833  1.00  0.00     0.102 A 
HETATM   14  C   UNL     1     -44.050  58.000 -57.222  1.00  0.00     0.102 A 
HETATM   15  C   UNL     1     -44.955  57.510 -56.278  1.00  0.00     0.040 A 
HETATM   16  C   UNL     1     -44.576  57.387 -54.940  1.00  0.00     0.012 A 
BRANCH  13  17
HETATM   17  O   UNL     1     -41.921  58.815 -57.827  1.00  0.00    -0.353 OA
HETATM   18  C   UNL     1     -41.660  60.213 -57.842  1.00  0.00     0.210 C 
ENDBRANCH  13  17
BRANCH  14  19
HETATM   19  O   UNL     1     -44.338  58.127 -58.555  1.00  0.00    -0.339 OA
BRANCH  19  20
HETATM   20  C   UNL     1     -45.079  57.064 -59.149  1.00  0.00     0.278 C 
BRANCH  20  21
HETATM   21  C   UNL     1     -44.114  55.976 -59.608  1.00  0.00     0.239 C 
HETATM   22  N   UNL     1     -44.388  54.718 -59.148  1.00  0.00    -0.368 N 
HETATM   23  H   UNL     1     -45.303  54.529 -58.750  1.00  0.00     0.159 HD
HETATM   24  H   UNL     1     -43.828  53.950 -59.490  1.00  0.00     0.159 HD
HETATM   25  O   UNL     1     -43.122  56.199 -60.295  1.00  0.00    -0.271 OA
ENDBRANCH  20  21
ENDBRANCH  19  20
ENDBRANCH  14  19
ENDBRANCH   7  11
BRANCH   8  26
HETATM   26  C   UNL     1     -41.489  55.512 -53.306  1.00  0.00     0.252 C 
HETATM   27  N   UNL     1     -41.704  54.233 -53.743  1.00  0.00    -0.353 N 
HETATM   28  H   UNL     1     -42.642  53.852 -53.740  1.00  0.00     0.163 HD
HETATM   29  O   UNL     1     -40.449  56.137 -53.480  1.00  0.00    -0.268 OA
BRANCH  27  30
HETATM   30  C   UNL     1     -40.690  53.514 -54.478  1.00  0.00     0.161 C 
BRANCH  30  31
HETATM   31  C   UNL     1     -40.281  52.264 -53.746  1.00  0.00    -0.041 A 
HETATM   32  C   UNL     1     -39.957  52.302 -52.384  1.00  0.00     0.009 A 
HETATM   33  C   UNL     1     -39.584  51.135 -51.712  1.00  0.00     0.001 A 
HETATM   34  C   UNL     1     -39.527  49.922 -52.397  1.00  0.00     0.000 A 
HETATM   35  C   UNL     1     -39.842  49.872 -53.753  1.00  0.00     0.001 A 
HETATM   36  C   UNL     1     -40.218  51.037 -54.424  1.00  0.00     0.009 A 
ENDBRANCH  30  31
ENDBRANCH  27  30
ENDBRANCH   8  26
TORSDOF 8
ENDMDL
MODEL 3
REMARK VINA RESULT:      -7.7      2.109      3.029
REMARK  8 active torsions:
REMARK  status: ('A' for Active; 'I' for Inactive)
REMARK    1  A    between atoms: C_7  and  C_8 
REMARK    2  A    between atoms: C_10  and  O_11 
REMARK    3  A    between atoms: C_13  and  O_14 
REMARK    4  A    between atoms: O_14  and  C_15 
REMARK    5  A    between atoms: C_15  and  C_16 
REMARK       I    between atoms: C_16  and  N_17 
REMARK    6  A    between atoms: C_21  and  C_22 
REMARK       I    between atoms: C_22  and  N_23 
REMARK    7  A    between atoms: N_23  and  C_24 
REMARK    8  A    between atoms: C_24  and  C_25 
ROOT
HETATM    1  C   UNL     1     -41.770  54.733 -50.148  1.00  0.00     0.069 C 
HETATM    2  C   UNL     1     -41.558  56.023 -50.888  1.00  0.00     0.024 C 
HETATM    3  N   UNL     1     -41.376  57.133 -50.093  1.00  0.00    -0.312 N 
HETATM    4  C   UNL     1     -41.013  58.370 -50.533  1.00  0.00     0.321 C 
HETATM    5  O   UNL     1     -40.835  59.304 -49.760  1.00  0.00    -0.247 OA
HETATM    6  N   UNL     1     -40.838  58.507 -51.869  1.00  0.00    -0.330 N 
HETATM    7  C   UNL     1     -41.204  57.514 -52.862  1.00  0.00     0.160 C 
HETATM    8  C   UNL     1     -41.490  56.182 -52.224  1.00  0.00     0.059 C 
HETATM    9  H   UNL     1     -41.430  57.051 -49.084  1.00  0.00     0.170 HD
HETATM   10  H   UNL     1     -40.589  59.437 -52.177  1.00  0.00     0.165 HD
ENDROOT
BRANCH   7  11
HETATM   11  C   UNL     1     -42.371  58.039 -53.689  1.00  0.00    -0.028 A 
HETATM   12  C   UNL     1     -43.487  58.636 -53.072  1.00  0.00     0.049 A 
HETATM   13  C   UNL     1     -44.554  59.125 -53.832  1.00  0.00     0.102 A 
HETATM   14  C   UNL     1     -44.515  59.002 -55.232  1.00  0.00     0.102 A 
HETATM   15  C   UNL     1     -43.407  58.424 -55.854  1.00  0.00     0.040 A 
HETATM   16  C   UNL     1     -42.346  57.938 -55.087  1.00  0.00     0.012 A 
BRANCH  13  17
HETATM   17  O   UNL     1     -45.683  59.707 -53.309  1.00  0.00    -0.353 OA
HETATM   18  C   UNL     1     -45.531  60.986 -52.706  1.00  0.00     0.210 C 
ENDBRANCH  13  17
BRANCH  14  19
HETATM   19  O   UNL     1     -45.583  59.522 -55.916  1.00  0.00    -0.339 OA
BRANCH  19  20
HETATM   20  C   UNL     1     -45.572  59.356 -57.331  1.00  0.00     0.278 C 
BRANCH  20  21
HETATM   21  C   UNL     1     -46.912  58.781 -57.780  1.00  0.00     0.239 C 
HETATM   22  N   UNL     1     -46.937  57.427 -57.961  1.00  0.00    -0.368 N 
HETATM   23  H   UNL     1     -46.183  56.865 -57.575  1.00  0.00     0.159 HD
HETATM   24  H   UNL     1     -47.821  56.987 -58.177  1.00  0.00     0.159 HD
HETATM   25  O   UNL     1     -47.896  59.472 -58.021  1.00  0.00    -0.271 OA
ENDBRANCH  20  21
ENDBRANCH  19  20
ENDBRANCH  14  19
ENDBRANCH   7  11
BRANCH   8  26
HETATM   26  C   UNL     1     -41.628  55.063 -53.190  1.00  0.00     0.252 C 
HETATM   27  N   UNL     1     -40.445  54.509 -53.601  1.00  0.00    -0.353 N 
HETATM   28  H   UNL     1     -39.582  54.774 -53.144  1.00  0.00     0.163 HD
HETATM   29  O   UNL     1     -42.735  54.648 -53.514  1.00  0.00    -0.268 OA
BRANCH  27  30
HETATM   30  C   UNL     1     -40.422  53.349 -54.461  1.00  0.00     0.161 C 
BRANCH  30  31
HETATM   31  C   UNL     1     -40.111  52.103 -53.674  1.00  0.00    -0.041 A 
HETATM   32  C   UNL     1     -39.850  52.167 -52.299  1.00  0.00     0.009 A 
HETATM   33  C   UNL     1     -39.569  51.004 -51.578  1.00  0.00     0.001 A 
HETATM   34  C   UNL     1     -39.542  49.769 -52.225  1.00  0.00     0.000 A 
HETATM   35  C   UNL     1     -39.795  49.694 -53.593  1.00  0.00     0.001 A 
HETATM   36  C   UNL     1     -40.079  50.854 -54.314  1.00  0.00     0.009 A 
ENDBRANCH  30  31
ENDBRANCH  27  30
ENDBRANCH   8  26
TORSDOF 8
ENDMDL
MODEL 4
REMARK VINA RESULT:      -7.6     15.466     18.832
REMARK  8 active torsions:
REMARK  status: ('A' for Active; 'I' for Inactive)
REMARK    1  A    between atoms: C_7  and  C_8 
REMARK    2  A    between atoms: C_10  and  O_11 
REMARK    3  A    between atoms: C_13  and  O_14 
REMARK    4  A    between atoms: O_14  and  C_15 
REMARK    5  A    between atoms: C_15  and  C_16 
REMARK       I    between atoms: C_16  and  N_17 
REMARK    6  A    between atoms: C_21  and  C_22 
REMARK       I    between atoms: C_22  and  N_23 
REMARK    7  A    between atoms: N_23  and  C_24 
REMARK    8  A    between atoms: C_24  and  C_25 
ROOT
HETATM    1  C   UNL     1     -39.038  41.272 -55.436  1.00  0.00     0.069 C 
HETATM    2  C   UNL     1     -37.717  41.468 -56.124  1.00  0.00     0.024 C 
HETATM    3  N   UNL     1     -37.774  41.517 -57.499  1.00  0.00    -0.312 N 
HETATM    4  C   UNL     1     -36.738  41.842 -58.322  1.00  0.00     0.321 C 
HETATM    5  O   UNL     1     -36.873  41.900 -59.539  1.00  0.00    -0.247 OA
HETATM    6  N   UNL     1     -35.555  42.118 -57.722  1.00  0.00    -0.330 N 
HETATM    7  C   UNL     1     -35.263  41.894 -56.318  1.00  0.00     0.160 C 
HETATM    8  C   UNL     1     -36.519  41.635 -55.532  1.00  0.00     0.059 C 
HETATM    9  H   UNL     1     -38.658  41.386 -57.977  1.00  0.00     0.170 HD
HETATM   10  H   UNL     1     -34.794  42.335 -58.350  1.00  0.00     0.165 HD
ENDROOT
BRANCH   7  11
HETATM   11  C   UNL     1     -34.242  40.769 -56.192  1.00  0.00    -0.028 A 
HETATM   12  C   UNL     1     -34.391  39.570 -56.914  1.00  0.00     0.049 A 
HETATM   13  C   UNL     1     -33.449  38.542 -56.804  1.00  0.00     0.102 A 
HETATM   14  C   UNL     1     -32.347  38.706 -55.947  1.00  0.00     0.102 A 
HETATM   15  C   UNL     1     -32.183  39.898 -55.238  1.00  0.00     0.040 A 
HETATM   16  C   UNL     1     -33.129  40.919 -55.354  1.00  0.00     0.012 A 
BRANCH  13  17
HETATM   17  O   UNL     1     -33.528  37.338 -57.461  1.00  0.00    -0.353 OA
HETATM   18  C   UNL     1     -33.505  37.374 -58.883  1.00  0.00     0.210 C 
ENDBRANCH  13  17
BRANCH  14  19
HETATM   19  O   UNL     1     -31.452  37.669 -55.904  1.00  0.00    -0.339 OA
BRANCH  19  20
HETATM   20  C   UNL     1     -30.072  38.017 -55.975  1.00  0.00     0.278 C 
BRANCH  20  21
HETATM   21  C   UNL     1     -29.677  38.208 -57.436  1.00  0.00     0.239 C 
HETATM   22  N   UNL     1     -28.969  39.345 -57.707  1.00  0.00    -0.368 N 
HETATM   23  H   UNL     1     -28.547  39.857 -56.937  1.00  0.00     0.159 HD
HETATM   24  H   UNL     1     -28.612  39.476 -58.643  1.00  0.00     0.159 HD
HETATM   25  O   UNL     1     -30.008  37.437 -58.330  1.00  0.00    -0.271 OA
ENDBRANCH  20  21
ENDBRANCH  19  20
ENDBRANCH  14  19
ENDBRANCH   7  11
BRANCH   8  26
HETATM   26  C   UNL     1     -36.326  41.644 -54.059  1.00  0.00     0.252 C 
HETATM   27  N   UNL     1     -36.349  40.409 -53.469  1.00  0.00    -0.353 N 
HETATM   28  H   UNL     1     -36.350  39.578 -54.046  1.00  0.00     0.163 HD
HETATM   29  O   UNL     1     -36.095  42.691 -53.465  1.00  0.00    -0.268 OA
BRANCH  27  30
HETATM   30  C   UNL     1     -36.076  40.249 -52.060  1.00  0.00     0.161 C 
BRANCH  30  31
HETATM   31  C   UNL     1     -34.626  39.919 -51.828  1.00  0.00    -0.041 A 
HETATM   32  C   UNL     1     -33.771  40.835 -51.201  1.00  0.00     0.009 A 
HETATM   33  C   UNL     1     -32.428  40.516 -50.984  1.00  0.00     0.001 A 
HETATM   34  C   UNL     1     -31.928  39.282 -51.396  1.00  0.00     0.000 A 
HETATM   35  C   UNL     1     -32.767  38.364 -52.025  1.00  0.00     0.001 A 
HETATM   36  C   UNL     1     -34.109  38.681 -52.239  1.00  0.00     0.009 A 
ENDBRANCH  30  31
ENDBRANCH  27  30
ENDBRANCH   8  26
TORSDOF 8
ENDMDL
MODEL 5
REMARK VINA RESULT:      -7.4     15.513     17.210
REMARK  8 active torsions:
REMARK  status: ('A' for Active; 'I' for Inactive)
REMARK    1  A    between atoms: C_7  and  C_8 
REMARK    2  A    between atoms: C_10  and  O_11 
REMARK    3  A    between atoms: C_13  and  O_14 
REMARK    4  A    between atoms: O_14  and  C_15 
REMARK    5  A    between atoms: C_15  and  C_16 
REMARK       I    between atoms: C_16  and  N_17 
REMARK    6  A    between atoms: C_21  and  C_22 
REMARK       I    between atoms: C_22  and  N_23 
REMARK    7  A    between atoms: N_23  and  C_24 
REMARK    8  A    between atoms: C_24  and  C_25 
ROOT
HETATM    1  C   UNL     1     -36.504  38.965 -50.202  1.00  0.00     0.069 C 
HETATM    2  C   UNL     1     -37.135  39.852 -51.237  1.00  0.00     0.024 C 
HETATM    3  N   UNL     1     -38.504  39.750 -51.341  1.00  0.00    -0.312 N 
HETATM    4  C   UNL     1     -39.303  40.561 -52.090  1.00  0.00     0.321 C 
HETATM    5  O   UNL     1     -40.522  40.431 -52.106  1.00  0.00    -0.247 OA
HETATM    6  N   UNL     1     -38.680  41.532 -52.800  1.00  0.00    -0.330 N 
HETATM    7  C   UNL     1     -37.244  41.637 -52.982  1.00  0.00     0.160 C 
HETATM    8  C   UNL     1     -36.504  40.745 -52.023  1.00  0.00     0.059 C 
HETATM    9  H   UNL     1     -39.010  39.082 -50.770  1.00  0.00     0.170 HD
HETATM   10  H   UNL     1     -39.288  42.108 -53.365  1.00  0.00     0.165 HD
ENDROOT
BRANCH   7  11
HETATM   11  C   UNL     1     -36.903  41.353 -54.440  1.00  0.00    -0.028 A 
HETATM   12  C   UNL     1     -37.043  40.061 -54.980  1.00  0.00     0.049 A 
HETATM   13  C   UNL     1     -36.738  39.803 -56.320  1.00  0.00     0.102 A 
HETATM   14  C   UNL     1     -36.269  40.850 -57.133  1.00  0.00     0.102 A 
HETATM   15  C   UNL     1     -36.140  42.139 -56.610  1.00  0.00     0.040 A 
HETATM   16  C   UNL     1     -36.447  42.386 -55.270  1.00  0.00     0.012 A 
BRANCH  13  17
HETATM   17  O   UNL     1     -36.833  38.571 -56.919  1.00  0.00    -0.353 OA
HETATM   18  C   UNL     1     -35.960  37.552 -56.447  1.00  0.00     0.210 C 
ENDBRANCH  13  17
BRANCH  14  19
HETATM   19  O   UNL     1     -36.010  40.533 -58.441  1.00  0.00    -0.339 OA
BRANCH  19  20
HETATM   20  C   UNL     1     -36.903  41.070 -59.413  1.00  0.00     0.278 C 
BRANCH  20  21
HETATM   21  C   UNL     1     -37.601  39.925 -60.140  1.00  0.00     0.239 C 
HETATM   22  N   UNL     1     -37.141  39.664 -61.400  1.00  0.00    -0.368 N 
HETATM   23  H   UNL     1     -36.246  40.052 -61.687  1.00  0.00     0.159 HD
HETATM   24  H   UNL     1     -37.513  38.863 -61.891  1.00  0.00     0.159 HD
HETATM   25  O   UNL     1     -38.548  39.304 -59.669  1.00  0.00    -0.271 OA
ENDBRANCH  20  21
ENDBRANCH  19  20
ENDBRANCH  14  19
ENDBRANCH   7  11
BRANCH   8  26
HETATM   26  C   UNL     1     -35.038  40.983 -51.981  1.00  0.00     0.252 C 
HETATM   27  N   UNL     1     -34.279  39.984 -52.529  1.00  0.00    -0.353 N 
HETATM   28  H   UNL     1     -34.727  39.236 -53.041  1.00  0.00     0.163 HD
HETATM   29  O   UNL     1     -34.587  42.037 -51.547  1.00  0.00    -0.268 OA
BRANCH  27  30
HETATM   30  C   UNL     1     -32.846  40.117 -52.652  1.00  0.00     0.161 C 
BRANCH  30  31
HETATM   31  C   UNL     1     -32.412  39.958 -54.085  1.00  0.00    -0.041 A 
HETATM   32  C   UNL     1     -33.135  40.554 -55.126  1.00  0.00     0.009 A 
HETATM   33  C   UNL     1     -32.720  40.406 -56.452  1.00  0.00     0.001 A 
HETATM   34  C   UNL     1     -31.582  39.656 -56.748  1.00  0.00     0.000 A 
HETATM   35  C   UNL     1     -30.858  39.054 -55.721  1.00  0.00     0.001 A 
HETATM   36  C   UNL     1     -31.270  39.204 -54.396  1.00  0.00     0.009 A 
ENDBRANCH  30  31
ENDBRANCH  27  30
ENDBRANCH   8  26
TORSDOF 8
ENDMDL
MODEL 6
REMARK VINA RESULT:      -7.3      2.364      5.988
REMARK  8 active torsions:
REMARK  status: ('A' for Active; 'I' for Inactive)
REMARK    1  A    between atoms: C_7  and  C_8 
REMARK    2  A    between atoms: C_10  and  O_11 
REMARK    3  A    between atoms: C_13  and  O_14 
REMARK    4  A    between atoms: O_14  and  C_15 
REMARK    5  A    between atoms: C_15  and  C_16 
REMARK       I    between atoms: C_16  and  N_17 
REMARK    6  A    between atoms: C_21  and  C_22 
REMARK       I    between atoms: C_22  and  N_23 
REMARK    7  A    between atoms: N_23  and  C_24 
REMARK    8  A    between atoms: C_24  and  C_25 
ROOT
HETATM    1  C   UNL     1     -41.029  54.710 -48.807  1.00  0.00     0.069 C 
HETATM    2  C   UNL     1     -41.116  54.140 -50.194  1.00  0.00     0.024 C 
HETATM    3  N   UNL     1     -40.023  53.405 -50.596  1.00  0.00    -0.312 N 
HETATM    4  C   UNL     1     -39.943  52.667 -51.738  1.00  0.00     0.321 C 
HETATM    5  O   UNL     1     -38.947  52.008 -52.013  1.00  0.00    -0.247 OA
HETATM    6  N   UNL     1     -41.031  52.685 -52.545  1.00  0.00    -0.330 N 
HETATM    7  C   UNL     1     -42.167  53.575 -52.389  1.00  0.00     0.160 C 
HETATM    8  C   UNL     1     -42.157  54.246 -51.043  1.00  0.00     0.059 C 
HETATM    9  H   UNL     1     -39.219  53.312 -49.985  1.00  0.00     0.170 HD
HETATM   10  H   UNL     1     -40.944  52.149 -53.397  1.00  0.00     0.165 HD
ENDROOT
BRANCH   7  11
HETATM   11  C   UNL     1     -42.187  54.567 -53.546  1.00  0.00    -0.028 A 
HETATM   12  C   UNL     1     -41.532  55.809 -53.449  1.00  0.00     0.049 A 
HETATM   13  C   UNL     1     -41.544  56.715 -54.515  1.00  0.00     0.102 A 
HETATM   14  C   UNL     1     -42.235  56.383 -55.693  1.00  0.00     0.102 A 
HETATM   15  C   UNL     1     -42.877  55.147 -55.804  1.00  0.00     0.040 A 
HETATM   16  C   UNL     1     -42.860  54.249 -54.734  1.00  0.00     0.012 A 
BRANCH  13  17
HETATM   17  O   UNL     1     -40.943  57.949 -54.496  1.00  0.00    -0.353 OA
HETATM   18  C   UNL     1     -41.355  58.855 -53.480  1.00  0.00     0.210 C 
ENDBRANCH  13  17
BRANCH  14  19
HETATM   19  O   UNL     1     -42.188  57.306 -56.704  1.00  0.00    -0.339 OA
BRANCH  19  20
HETATM   20  C   UNL     1     -42.843  56.952 -57.919  1.00  0.00     0.278 C 
BRANCH  20  21
HETATM   21  C   UNL     1     -44.135  57.753 -58.044  1.00  0.00     0.239 C 
HETATM   22  N   UNL     1     -45.234  57.036 -58.428  1.00  0.00    -0.368 N 
HETATM   23  H   UNL     1     -45.202  56.022 -58.375  1.00  0.00     0.159 HD
HETATM   24  H   UNL     1     -46.130  57.503 -58.445  1.00  0.00     0.159 HD
HETATM   25  O   UNL     1     -44.197  58.966 -57.873  1.00  0.00    -0.271 OA
ENDBRANCH  20  21
ENDBRANCH  19  20
ENDBRANCH  14  19
ENDBRANCH   7  11
BRANCH   8  26
HETATM   26  C   UNL     1     -43.409  54.975 -50.718  1.00  0.00     0.252 C 
HETATM   27  N   UNL     1     -43.386  56.313 -51.003  1.00  0.00    -0.353 N 
HETATM   28  H   UNL     1     -42.613  56.701 -51.528  1.00  0.00     0.163 HD
HETATM   29  O   UNL     1     -44.391  54.374 -50.296  1.00  0.00    -0.268 OA
BRANCH  27  30
HETATM   30  C   UNL     1     -44.563  57.133 -50.835  1.00  0.00     0.161 C 
BRANCH  30  31
HETATM   31  C   UNL     1     -44.766  58.031 -52.027  1.00  0.00    -0.041 A 
HETATM   32  C   UNL     1     -44.909  59.416 -51.869  1.00  0.00     0.009 A 
HETATM   33  C   UNL     1     -45.091  60.241 -52.981  1.00  0.00     0.001 A 
HETATM   34  C   UNL     1     -45.136  59.688 -54.261  1.00  0.00     0.000 A 
HETATM   35  C   UNL     1     -45.000  58.312 -54.431  1.00  0.00     0.001 A 
HETATM   36  C   UNL     1     -44.815  57.488 -53.320  1.00  0.00     0.009 A 
ENDBRANCH  30  31
ENDBRANCH  27  30
ENDBRANCH   8  26
TORSDOF 8
ENDMDL
MODEL 7
REMARK VINA RESULT:      -6.8     15.092     18.273
REMARK  8 active torsions:
REMARK  status: ('A' for Active; 'I' for Inactive)
REMARK    1  A    between atoms: C_7  and  C_8 
REMARK    2  A    between atoms: C_10  and  O_11 
REMARK    3  A    between atoms: C_13  and  O_14 
REMARK    4  A    between atoms: O_14  and  C_15 
REMARK    5  A    between atoms: C_15  and  C_16 
REMARK       I    between atoms: C_16  and  N_17 
REMARK    6  A    between atoms: C_21  and  C_22 
REMARK       I    between atoms: C_22  and  N_23 
REMARK    7  A    between atoms: N_23  and  C_24 
REMARK    8  A    between atoms: C_24  and  C_25 
ROOT
HETATM    1  C   UNL     1     -31.157  37.302 -53.489  1.00  0.00     0.069 C 
HETATM    2  C   UNL     1     -31.835  38.320 -52.618  1.00  0.00     0.024 C 
HETATM    3  N   UNL     1     -31.676  38.130 -51.262  1.00  0.00    -0.312 N 
HETATM    4  C   UNL     1     -32.062  39.004 -50.291  1.00  0.00     0.321 C 
HETATM    5  O   UNL     1     -31.856  38.783 -49.104  1.00  0.00    -0.247 OA
HETATM    6  N   UNL     1     -32.666  40.142 -50.710  1.00  0.00    -0.330 N 
HETATM    7  C   UNL     1     -33.112  40.396 -52.067  1.00  0.00     0.160 C 
HETATM    8  C   UNL     1     -32.530  39.397 -53.030  1.00  0.00     0.059 C 
HETATM    9  H   UNL     1     -31.166  37.325 -50.917  1.00  0.00     0.170 HD
HETATM   10  H   UNL     1     -32.964  40.767 -49.974  1.00  0.00     0.165 HD
ENDROOT
BRANCH   7  11
HETATM   11  C   UNL     1     -34.635  40.430 -52.096  1.00  0.00    -0.028 A 
HETATM   12  C   UNL     1     -35.394  39.313 -51.699  1.00  0.00     0.049 A 
HETATM   13  C   UNL     1     -36.792  39.349 -51.718  1.00  0.00     0.102 A 
HETATM   14  C   UNL     1     -37.445  40.514 -52.156  1.00  0.00     0.102 A 
HETATM   15  C   UNL     1     -36.701  41.632 -52.539  1.00  0.00     0.040 A 
HETATM   16  C   UNL     1     -35.305  41.587 -52.517  1.00  0.00     0.012 A 
BRANCH  13  17
HETATM   17  O   UNL     1     -37.604  38.300 -51.361  1.00  0.00    -0.353 OA
HETATM   18  C   UNL     1     -37.151  37.460 -50.307  1.00  0.00     0.210 C 
ENDBRANCH  13  17
BRANCH  14  19
HETATM   19  O   UNL     1     -38.815  40.488 -52.128  1.00  0.00    -0.339 OA
BRANCH  19  20
HETATM   20  C   UNL     1     -39.482  41.658 -52.593  1.00  0.00     0.278 C 
BRANCH  20  21
HETATM   21  C   UNL     1     -40.734  41.250 -53.363  1.00  0.00     0.239 C 
HETATM   22  N   UNL     1     -41.663  40.552 -52.644  1.00  0.00    -0.368 N 
HETATM   23  H   UNL     1     -41.600  40.551 -51.630  1.00  0.00     0.159 HD
HETATM   24  H   UNL     1     -42.545  40.331 -53.085  1.00  0.00     0.159 HD
HETATM   25  O   UNL     1     -40.893  41.472 -54.559  1.00  0.00    -0.271 OA
ENDBRANCH  20  21
ENDBRANCH  19  20
ENDBRANCH  14  19
ENDBRANCH   7  11
BRANCH   8  26
HETATM   26  C   UNL     1     -32.739  39.739 -54.460  1.00  0.00     0.252 C 
HETATM   27  N   UNL     1     -33.790  39.095 -55.057  1.00  0.00    -0.353 N 
HETATM   28  H   UNL     1     -34.432  38.554 -54.494  1.00  0.00     0.163 HD
HETATM   29  O   UNL     1     -32.049  40.591 -55.007  1.00  0.00    -0.268 OA
BRANCH  27  30
HETATM   30  C   UNL     1     -34.178  39.399 -56.414  1.00  0.00     0.161 C 
BRANCH  30  31
HETATM   31  C   UNL     1     -35.415  40.257 -56.440  1.00  0.00    -0.041 A 
HETATM   32  C   UNL     1     -36.690  39.679 -56.498  1.00  0.00     0.009 A 
HETATM   33  C   UNL     1     -37.832  40.484 -56.514  1.00  0.00     0.001 A 
HETATM   34  C   UNL     1     -37.709  41.872 -56.478  1.00  0.00     0.000 A 
HETATM   35  C   UNL     1     -36.446  42.459 -56.425  1.00  0.00     0.001 A 
HETATM   36  C   UNL     1     -35.305  41.655 -56.405  1.00  0.00     0.009 A 
ENDBRANCH  30  31
ENDBRANCH  27  30
ENDBRANCH   8  26
TORSDOF 8
ENDMDL
MODEL 8
REMARK VINA RESULT:      -6.8      2.545      3.535
REMARK  8 active torsions:
REMARK  status: ('A' for Active; 'I' for Inactive)
REMARK    1  A    between atoms: C_7  and  C_8 
REMARK    2  A    between atoms: C_10  and  O_11 
REMARK    3  A    between atoms: C_13  and  O_14 
REMARK    4  A    between atoms: O_14  and  C_15 
REMARK    5  A    between atoms: C_15  and  C_16 
REMARK       I    between atoms: C_16  and  N_17 
REMARK    6  A    between atoms: C_21  and  C_22 
REMARK       I    between atoms: C_22  and  N_23 
REMARK    7  A    between atoms: N_23  and  C_24 
REMARK    8  A    between atoms: C_24  and  C_25 
ROOT
HETATM    1  C   UNL     1     -43.864  54.706 -50.895  1.00  0.00     0.069 C 
HETATM    2  C   UNL     1     -43.894  56.172 -51.221  1.00  0.00     0.024 C 
HETATM    3  N   UNL     1     -45.045  56.831 -50.850  1.00  0.00    -0.312 N 
HETATM    4  C   UNL     1     -45.235  58.179 -50.898  1.00  0.00     0.321 C 
HETATM    5  O   UNL     1     -46.277  58.699 -50.516  1.00  0.00    -0.247 OA
HETATM    6  N   UNL     1     -44.202  58.917 -51.371  1.00  0.00    -0.330 N 
HETATM    7  C   UNL     1     -43.018  58.375 -52.011  1.00  0.00     0.160 C 
HETATM    8  C   UNL     1     -42.908  56.890 -51.792  1.00  0.00     0.059 C 
HETATM    9  H   UNL     1     -45.811  56.319 -50.426  1.00  0.00     0.170 HD
HETATM   10  H   UNL     1     -44.371  59.912 -51.419  1.00  0.00     0.165 HD
ENDROOT
BRANCH   7  11
HETATM   11  C   UNL     1     -43.026  58.757 -53.486  1.00  0.00    -0.028 A 
HETATM   12  C   UNL     1     -43.904  58.134 -54.393  1.00  0.00     0.049 A 
HETATM   13  C   UNL     1     -43.917  58.492 -55.745  1.00  0.00     0.102 A 
HETATM   14  C   UNL     1     -43.026  59.479 -56.204  1.00  0.00     0.102 A 
HETATM   15  C   UNL     1     -42.161  60.112 -55.310  1.00  0.00     0.040 A 
HETATM   16  C   UNL     1     -42.155  59.748 -53.961  1.00  0.00     0.012 A 
BRANCH  13  17
HETATM   17  O   UNL     1     -44.730  57.925 -56.695  1.00  0.00    -0.353 OA
HETATM   18  C   UNL     1     -46.099  58.310 -56.689  1.00  0.00     0.210 C 
ENDBRANCH  13  17
BRANCH  14  19
HETATM   19  O   UNL     1     -43.107  59.796 -57.535  1.00  0.00    -0.339 OA
BRANCH  19  20
HETATM   20  C   UNL     1     -43.015  61.179 -57.864  1.00  0.00     0.278 C 
BRANCH  20  21
HETATM   21  C   UNL     1     -41.741  61.420 -58.669  1.00  0.00     0.239 C 
HETATM   22  N   UNL     1     -40.765  62.125 -58.024  1.00  0.00    -0.368 N 
HETATM   23  H   UNL     1     -40.824  62.237 -57.016  1.00  0.00     0.159 HD
HETATM   24  H   UNL     1     -39.872  62.239 -58.483  1.00  0.00     0.159 HD
HETATM   25  O   UNL     1     -41.603  61.064 -59.835  1.00  0.00    -0.271 OA
ENDBRANCH  20  21
ENDBRANCH  19  20
ENDBRANCH  14  19
ENDBRANCH   7  11
BRANCH   8  26
HETATM   26  C   UNL     1     -41.604  56.310 -52.201  1.00  0.00     0.252 C 
HETATM   27  N   UNL     1     -41.663  55.463 -53.274  1.00  0.00    -0.353 N 
HETATM   28  H   UNL     1     -42.521  55.383 -53.804  1.00  0.00     0.163 HD
HETATM   29  O   UNL     1     -40.566  56.648 -51.642  1.00  0.00    -0.268 OA
BRANCH  27  30
HETATM   30  C   UNL     1     -40.464  54.901 -53.849  1.00  0.00     0.161 C 
BRANCH  30  31
HETATM   31  C   UNL     1     -40.246  53.491 -53.367  1.00  0.00    -0.041 A 
HETATM   32  C   UNL     1     -40.095  53.213 -52.002  1.00  0.00     0.009 A 
HETATM   33  C   UNL     1     -39.900  51.901 -51.564  1.00  0.00     0.001 A 
HETATM   34  C   UNL     1     -39.849  50.857 -52.486  1.00  0.00     0.000 A 
HETATM   35  C   UNL     1     -39.992  51.121 -53.847  1.00  0.00     0.001 A 
HETATM   36  C   UNL     1     -40.190  52.431 -54.285  1.00  0.00     0.009 A 
ENDBRANCH  30  31
ENDBRANCH  27  30
ENDBRANCH   8  26
TORSDOF 8
ENDMDL
MODEL 9
REMARK VINA RESULT:      -6.8      1.855      2.413
REMARK  8 active torsions:
REMARK  status: ('A' for Active; 'I' for Inactive)
REMARK    1  A    between atoms: C_7  and  C_8 
REMARK    2  A    between atoms: C_10  and  O_11 
REMARK    3  A    between atoms: C_13  and  O_14 
REMARK    4  A    between atoms: O_14  and  C_15 
REMARK    5  A    between atoms: C_15  and  C_16 
REMARK       I    between atoms: C_16  and  N_17 
REMARK    6  A    between atoms: C_21  and  C_22 
REMARK       I    between atoms: C_22  and  N_23 
REMARK    7  A    between atoms: N_23  and  C_24 
REMARK    8  A    between atoms: C_24  and  C_25 
ROOT
HETATM    1  C   UNL     1     -43.471  55.870 -50.925  1.00  0.00     0.069 C 
HETATM    2  C   UNL     1     -43.796  57.108 -51.712  1.00  0.00     0.024 C 
HETATM    3  N   UNL     1     -44.889  57.816 -51.264  1.00  0.00    -0.312 N 
HETATM    4  C   UNL     1     -45.275  59.042 -51.716  1.00  0.00     0.321 C 
HETATM    5  O   UNL     1     -46.242  59.630 -51.245  1.00  0.00    -0.247 OA
HETATM    6  N   UNL     1     -44.521  59.587 -52.701  1.00  0.00    -0.330 N 
HETATM    7  C   UNL     1     -43.484  58.888 -53.437  1.00  0.00     0.160 C 
HETATM    8  C   UNL     1     -43.109  57.597 -52.762  1.00  0.00     0.059 C 
HETATM    9  H   UNL     1     -45.434  57.472 -50.482  1.00  0.00     0.170 HD
HETATM   10  H   UNL     1     -44.836  60.486 -53.037  1.00  0.00     0.165 HD
ENDROOT
BRANCH   7  11
HETATM   11  C   UNL     1     -43.937  58.694 -54.879  1.00  0.00    -0.028 A 
HETATM   12  C   UNL     1     -43.046  58.882 -55.952  1.00  0.00     0.049 A 
HETATM   13  C   UNL     1     -43.460  58.694 -57.274  1.00  0.00     0.102 A 
HETATM   14  C   UNL     1     -44.793  58.329 -57.532  1.00  0.00     0.102 A 
HETATM   15  C   UNL     1     -45.682  58.127 -56.474  1.00  0.00     0.040 A 
HETATM   16  C   UNL     1     -45.258  58.316 -55.156  1.00  0.00     0.012 A 
BRANCH  13  17
HETATM   17  O   UNL     1     -42.659  58.871 -58.375  1.00  0.00    -0.353 OA
HETATM   18  C   UNL     1     -41.897  60.070 -58.436  1.00  0.00     0.210 C 
ENDBRANCH  13  17
BRANCH  14  19
HETATM   19  O   UNL     1     -45.126  58.141 -58.848  1.00  0.00    -0.339 OA
BRANCH  19  20
HETATM   20  C   UNL     1     -46.037  59.080 -59.413  1.00  0.00     0.278 C 
BRANCH  20  21
HETATM   21  C   UNL     1     -45.333  59.859 -60.520  1.00  0.00     0.239 C 
HETATM   22  N   UNL     1     -44.259  59.231 -61.086  1.00  0.00    -0.368 N 
HETATM   23  H   UNL     1     -44.133  58.235 -60.929  1.00  0.00     0.159 HD
HETATM   24  H   UNL     1     -43.810  59.668 -61.878  1.00  0.00     0.159 HD
HETATM   25  O   UNL     1     -45.656  60.993 -60.858  1.00  0.00    -0.271 OA
ENDBRANCH  20  21
ENDBRANCH  19  20
ENDBRANCH  14  19
ENDBRANCH   7  11
BRANCH   8  26
HETATM   26  C   UNL     1     -41.891  56.953 -53.316  1.00  0.00     0.252 C 
HETATM   27  N   UNL     1     -42.111  55.763 -53.956  1.00  0.00    -0.353 N 
HETATM   28  H   UNL     1     -43.058  55.460 -54.141  1.00  0.00     0.163 HD
HETATM   29  O   UNL     1     -40.803  57.512 -53.249  1.00  0.00    -0.268 OA
BRANCH  27  30
HETATM   30  C   UNL     1     -41.040  55.069 -54.632  1.00  0.00     0.161 C 
BRANCH  30  31
HETATM   31  C   UNL     1     -40.582  53.878 -53.833  1.00  0.00    -0.041 A 
HETATM   32  C   UNL     1     -40.577  53.910 -52.432  1.00  0.00     0.009 A 
HETATM   33  C   UNL     1     -40.157  52.797 -51.700  1.00  0.00     0.001 A 
HETATM   34  C   UNL     1     -39.734  51.645 -52.361  1.00  0.00     0.000 A 
HETATM   35  C   UNL     1     -39.729  51.602 -53.754  1.00  0.00     0.001 A 
HETATM   36  C   UNL     1     -40.152  52.713 -54.486  1.00  0.00     0.009 A 
ENDBRANCH  30  31
ENDBRANCH  27  30
ENDBRANCH   8  26
TORSDOF 8
ENDMDL
MODEL 10
REMARK VINA RESULT:      -6.8      2.541      6.217
REMARK  8 active torsions:
REMARK  status: ('A' for Active; 'I' for Inactive)
REMARK    1  A    between atoms: C_7  and  C_8 
REMARK    2  A    between atoms: C_10  and  O_11 
REMARK    3  A    between atoms: C_13  and  O_14 
REMARK    4  A    between atoms: O_14  and  C_15 
REMARK    5  A    between atoms: C_15  and  C_16 
REMARK       I    between atoms: C_16  and  N_17 
REMARK    6  A    between atoms: C_21  and  C_22 
REMARK       I    between atoms: C_22  and  N_23 
REMARK    7  A    between atoms: N_23  and  C_24 
REMARK    8  A    between atoms: C_24  and  C_25 
ROOT
HETATM    1  C   UNL     1     -40.304  59.454 -50.303  1.00  0.00     0.069 C 
HETATM    2  C   UNL     1     -41.210  58.311 -50.662  1.00  0.00     0.024 C 
HETATM    3  N   UNL     1     -40.917  57.114 -50.046  1.00  0.00    -0.312 N 
HETATM    4  C   UNL     1     -41.687  55.991 -50.094  1.00  0.00     0.321 C 
HETATM    5  O   UNL     1     -41.379  54.970 -49.490  1.00  0.00    -0.247 OA
HETATM    6  N   UNL     1     -42.823  56.069 -50.828  1.00  0.00    -0.330 N 
HETATM    7  C   UNL     1     -43.165  57.165 -51.716  1.00  0.00     0.160 C 
HETATM    8  C   UNL     1     -42.281  58.359 -51.479  1.00  0.00     0.059 C 
HETATM    9  H   UNL     1     -40.114  57.040 -49.433  1.00  0.00     0.170 HD
HETATM   10  H   UNL     1     -43.369  55.220 -50.868  1.00  0.00     0.165 HD
ENDROOT
BRANCH   7  11
HETATM   11  C   UNL     1     -43.123  56.673 -53.158  1.00  0.00    -0.028 A 
HETATM   12  C   UNL     1     -42.101  55.814 -53.602  1.00  0.00     0.049 A 
HETATM   13  C   UNL     1     -42.068  55.356 -54.923  1.00  0.00     0.102 A 
HETATM   14  C   UNL     1     -43.064  55.775 -55.822  1.00  0.00     0.102 A 
HETATM   15  C   UNL     1     -44.090  56.616 -55.387  1.00  0.00     0.040 A 
HETATM   16  C   UNL     1     -44.115  57.069 -54.066  1.00  0.00     0.012 A 
BRANCH  13  17
HETATM   17  O   UNL     1     -41.099  54.529 -55.438  1.00  0.00    -0.353 OA
HETATM   18  C   UNL     1     -40.507  53.592 -54.547  1.00  0.00     0.210 C 
ENDBRANCH  13  17
BRANCH  14  19
HETATM   19  O   UNL     1     -42.984  55.272 -57.094  1.00  0.00    -0.339 OA
BRANCH  19  20
HETATM   20  C   UNL     1     -43.050  56.218 -58.157  1.00  0.00     0.278 C 
BRANCH  20  21
HETATM   21  C   UNL     1     -43.647  55.547 -59.390  1.00  0.00     0.239 C 
HETATM   22  N   UNL     1     -44.445  54.466 -59.141  1.00  0.00    -0.368 N 
HETATM   23  H   UNL     1     -44.788  54.316 -58.196  1.00  0.00     0.159 HD
HETATM   24  H   UNL     1     -44.930  54.038 -59.917  1.00  0.00     0.159 HD
HETATM   25  O   UNL     1     -43.396  55.899 -60.538  1.00  0.00    -0.271 OA
ENDBRANCH  20  21
ENDBRANCH  19  20
ENDBRANCH  14  19
ENDBRANCH   7  11
BRANCH   8  26
HETATM   26  C   UNL     1     -42.728  59.594 -52.171  1.00  0.00     0.252 C 
HETATM   27  N   UNL     1     -42.080  59.860 -53.347  1.00  0.00    -0.353 N 
HETATM   28  H   UNL     1     -41.460  59.168 -53.746  1.00  0.00     0.163 HD
HETATM   29  O   UNL     1     -43.660  60.257 -51.729  1.00  0.00    -0.268 OA
BRANCH  27  30
HETATM   30  C   UNL     1     -42.475  60.970 -54.182  1.00  0.00     0.161 C 
BRANCH  30  31
HETATM   31  C   UNL     1     -43.372  60.509 -55.300  1.00  0.00    -0.041 A 
HETATM   32  C   UNL     1     -44.765  60.512 -55.152  1.00  0.00     0.009 A 
HETATM   33  C   UNL     1     -45.589  60.088 -56.198  1.00  0.00     0.001 A 
HETATM   34  C   UNL     1     -45.028  59.654 -57.398  1.00  0.00     0.000 A 
HETATM   35  C   UNL     1     -43.644  59.642 -57.556  1.00  0.00     0.001 A 
HETATM   36  C   UNL     1     -42.820  60.068 -56.512  1.00  0.00     0.009 A 
ENDBRANCH  30  31
ENDBRANCH  27  30
ENDBRANCH   8  26
TORSDOF 8
ENDMDL
