MODEL 1
REMARK VINA RESULT:      -9.0      0.000      0.000
REMARK  9 active torsions:
REMARK  status: ('A' for Active; 'I' for Inactive)
REMARK    1  A    between atoms: C_3  and  N_4 
REMARK    2  A    between atoms: N_4  and  C_5 
REMARK    3  A    between atoms: C_7  and  C_8 
REMARK    4  A    between atoms: C_19  and  N_20 
REMARK       I    between atoms: N_20  and  C_21 
REMARK    5  A    between atoms: C_21  and  C_22 
REMARK    6  A    between atoms: C_24  and  N_25 
REMARK       I    between atoms: N_25  and  C_26 
REMARK    7  A    between atoms: C_26  and  C_27 
REMARK    8  A    between atoms: C_28  and  C_29 
REMARK    9  A    between atoms: C_29  and  N_30 
ROOT
HETATM    1  C   UNL     1     -40.993  58.964 -51.438  1.00  0.00     0.050 C 
HETATM    2  C   UNL     1     -42.415  58.479 -51.325  1.00  0.00    -0.033 A 
HETATM    3  C   UNL     1     -42.728  57.104 -51.321  1.00  0.00     0.055 A 
HETATM    4  C   UNL     1     -44.078  56.744 -51.220  1.00  0.00     0.033 A 
HETATM    5  C   UNL     1     -45.100  57.698 -51.157  1.00  0.00     0.032 A 
HETATM    6  C   UNL     1     -44.799  59.052 -51.219  1.00  0.00     0.035 A 
HETATM    7  C   UNL     1     -43.453  59.434 -51.286  1.00  0.00     0.038 A 
ENDROOT
BRANCH   6   8
HETATM    8  N   UNL     1     -45.771  60.076 -51.266  1.00  0.00    -0.323 N 
HETATM    9  C   UNL     1     -46.199  60.770 -52.386  1.00  0.00     0.256 C 
HETATM   10  O   UNL     1     -45.872  60.557 -53.547  1.00  0.00    -0.267 OA
HETATM   11  H   UNL     1     -46.111  60.381 -50.365  1.00  0.00     0.169 HD
BRANCH   9  12
HETATM   12  C   UNL     1     -47.116  61.919 -52.125  1.00  0.00     0.034 A 
HETATM   13  C   UNL     1     -48.419  61.977 -52.643  1.00  0.00     0.046 A 
HETATM   14  C   UNL     1     -49.253  63.059 -52.345  1.00  0.00     0.035 A 
HETATM   15  C   UNL     1     -48.759  64.103 -51.553  1.00  0.00     0.029 A 
HETATM   16  C   UNL     1     -47.456  64.065 -51.056  1.00  0.00     0.003 A 
HETATM   17  C   UNL     1     -46.637  62.975 -51.341  1.00  0.00     0.017 A 
BRANCH  14  18
HETATM   18  N   UNL     1     -50.585  63.174 -52.805  1.00  0.00    -0.324 N 
HETATM   19  C   UNL     1     -51.726  63.143 -52.038  1.00  0.00     0.245 C 
HETATM   20  O   UNL     1     -51.810  63.048 -50.819  1.00  0.00    -0.268 OA
HETATM   21  H   UNL     1     -50.681  63.302 -53.804  1.00  0.00     0.169 HD
BRANCH  19  22
HETATM   22  C   UNL     1     -52.969  63.269 -52.854  1.00  0.00     0.072 C 
HETATM   23  C   UNL     1     -53.079  62.530 -53.972  1.00  0.00     0.006 C 
BRANCH  23  24
HETATM   24  C   UNL     1     -54.267  62.496 -54.870  1.00  0.00     0.261 C 
BRANCH  24  25
HETATM   25  N   UNL     1     -54.327  61.232 -55.691  1.00  0.00    -0.076 N 
HETATM   26  H   UNL     1     -55.037  60.629 -55.255  1.00  0.00     0.279 HD
HETATM   27  C   UNL     1     -54.772  61.466 -57.109  1.00  0.00     0.269 C 
HETATM   28  C   UNL     1     -53.031  60.473 -55.639  1.00  0.00     0.269 C 
ENDBRANCH  24  25
ENDBRANCH  23  24
ENDBRANCH  19  22
ENDBRANCH  14  18
ENDBRANCH   9  12
ENDBRANCH   6   8
BRANCH   3  29
HETATM   29  N   UNL     1     -41.725  56.143 -51.514  1.00  0.00    -0.188 N 
HETATM   30  H   UNL     1     -41.126  55.914 -50.738  1.00  0.00     0.184 HD
BRANCH  29  31
HETATM   31  C   UNL     1     -41.280  55.481 -52.657  1.00  0.00     0.727 A 
HETATM   32  N   UNL     1     -40.956  54.188 -52.491  1.00  0.00    -0.062 NA
HETATM   33  C   UNL     1     -40.482  53.501 -53.559  1.00  0.00     0.089 A 
HETATM   34  C   UNL     1     -40.305  54.108 -54.787  1.00  0.00     0.053 A 
HETATM   35  C   UNL     1     -40.651  55.431 -54.862  1.00  0.00     0.139 A 
HETATM   36  N   UNL     1     -41.138  56.125 -53.823  1.00  0.00    -0.075 NA
BRANCH  33  37
HETATM   37  C   UNL     1     -40.156  52.084 -53.318  1.00  0.00     0.011 A 
HETATM   38  C   UNL     1     -39.781  51.629 -52.051  1.00  0.00     0.130 A 
HETATM   39  N   UNL     1     -39.448  50.349 -51.745  1.00  0.00    -0.272 NA
HETATM   40  C   UNL     1     -39.496  49.455 -52.752  1.00  0.00     0.116 A 
HETATM   41  C   UNL     1     -39.864  49.781 -54.044  1.00  0.00     0.020 A 
HETATM   42  C   UNL     1     -40.197  51.106 -54.324  1.00  0.00     0.017 A 
ENDBRANCH  33  37
ENDBRANCH  29  31
ENDBRANCH   3  29
TORSDOF 9
ENDMDL
MODEL 2
REMARK VINA RESULT:      -8.8      5.672      6.930
REMARK  9 active torsions:
REMARK  status: ('A' for Active; 'I' for Inactive)
REMARK    1  A    between atoms: C_3  and  N_4 
REMARK    2  A    between atoms: N_4  and  C_5 
REMARK    3  A    between atoms: C_7  and  C_8 
REMARK    4  A    between atoms: C_19  and  N_20 
REMARK       I    between atoms: N_20  and  C_21 
REMARK    5  A    between atoms: C_21  and  C_22 
REMARK    6  A    between atoms: C_24  and  N_25 
REMARK       I    between atoms: N_25  and  C_26 
REMARK    7  A    between atoms: C_26  and  C_27 
REMARK    8  A    between atoms: C_28  and  C_29 
REMARK    9  A    between atoms: C_29  and  N_30 
ROOT
HETATM    1  C   UNL     1     -40.299  58.631 -52.141  1.00  0.00     0.050 C 
HETATM    2  C   UNL     1     -41.632  58.054 -52.542  1.00  0.00    -0.033 A 
HETATM    3  C   UNL     1     -42.382  57.247 -51.662  1.00  0.00     0.055 A 
HETATM    4  C   UNL     1     -43.607  56.747 -52.122  1.00  0.00     0.033 A 
HETATM    5  C   UNL     1     -44.075  57.000 -53.418  1.00  0.00     0.032 A 
HETATM    6  C   UNL     1     -43.311  57.745 -54.305  1.00  0.00     0.035 A 
HETATM    7  C   UNL     1     -42.099  58.283 -53.854  1.00  0.00     0.038 A 
ENDROOT
BRANCH   6   8
HETATM    8  N   UNL     1     -43.657  57.961 -55.658  1.00  0.00    -0.323 N 
HETATM    9  C   UNL     1     -43.300  57.180 -56.745  1.00  0.00     0.256 C 
HETATM   10  O   UNL     1     -42.695  56.115 -56.713  1.00  0.00    -0.267 OA
HETATM   11  H   UNL     1     -44.139  58.830 -55.839  1.00  0.00     0.169 HD
BRANCH   9  12
HETATM   12  C   UNL     1     -43.662  57.731 -58.085  1.00  0.00     0.034 A 
HETATM   13  C   UNL     1     -44.885  57.451 -58.712  1.00  0.00     0.046 A 
HETATM   14  C   UNL     1     -45.192  58.016 -59.953  1.00  0.00     0.035 A 
HETATM   15  C   UNL     1     -44.246  58.836 -60.581  1.00  0.00     0.029 A 
HETATM   16  C   UNL     1     -43.017  59.099 -59.977  1.00  0.00     0.003 A 
HETATM   17  C   UNL     1     -42.726  58.548 -58.731  1.00  0.00     0.017 A 
BRANCH  14  18
HETATM   18  N   UNL     1     -46.414  57.804 -60.632  1.00  0.00    -0.324 N 
HETATM   19  C   UNL     1     -46.833  56.636 -61.225  1.00  0.00     0.245 C 
HETATM   20  O   UNL     1     -46.256  55.555 -61.249  1.00  0.00    -0.268 OA
HETATM   21  H   UNL     1     -47.029  58.606 -60.663  1.00  0.00     0.169 HD
BRANCH  19  22
HETATM   22  C   UNL     1     -48.170  56.771 -61.876  1.00  0.00     0.072 C 
HETATM   23  C   UNL     1     -48.605  58.002 -62.193  1.00  0.00     0.006 C 
BRANCH  23  24
HETATM   24  C   UNL     1     -49.886  58.312 -62.889  1.00  0.00     0.261 C 
BRANCH  24  25
HETATM   25  N   UNL     1     -50.709  59.333 -62.145  1.00  0.00    -0.076 N 
HETATM   26  H   UNL     1     -50.350  59.358 -61.181  1.00  0.00     0.279 HD
HETATM   27  C   UNL     1     -50.567  60.726 -62.695  1.00  0.00     0.269 C 
HETATM   28  C   UNL     1     -52.152  58.923 -62.053  1.00  0.00     0.269 C 
ENDBRANCH  24  25
ENDBRANCH  23  24
ENDBRANCH  19  22
ENDBRANCH  14  18
ENDBRANCH   9  12
ENDBRANCH   6   8
BRANCH   3  29
HETATM   29  N   UNL     1     -41.864  56.881 -50.412  1.00  0.00    -0.188 N 
HETATM   30  H   UNL     1     -41.768  57.594 -49.707  1.00  0.00     0.184 HD
BRANCH  29  31
HETATM   31  C   UNL     1     -41.311  55.689 -49.948  1.00  0.00     0.727 A 
HETATM   32  N   UNL     1     -41.025  54.776 -50.890  1.00  0.00    -0.062 NA
HETATM   33  C   UNL     1     -40.519  53.582 -50.497  1.00  0.00     0.089 A 
HETATM   34  C   UNL     1     -40.322  53.286 -49.162  1.00  0.00     0.053 A 
HETATM   35  C   UNL     1     -40.651  54.272 -48.271  1.00  0.00     0.139 A 
HETATM   36  N   UNL     1     -41.137  55.466 -48.639  1.00  0.00    -0.075 NA
BRANCH  33  37
HETATM   37  C   UNL     1     -40.213  52.626 -51.577  1.00  0.00     0.011 A 
HETATM   38  C   UNL     1     -39.784  51.326 -51.298  1.00  0.00     0.130 A 
HETATM   39  N   UNL     1     -39.464  50.391 -52.228  1.00  0.00    -0.272 NA
HETATM   40  C   UNL     1     -39.584  50.756 -53.520  1.00  0.00     0.116 A 
HETATM   41  C   UNL     1     -40.011  52.008 -53.921  1.00  0.00     0.020 A 
HETATM   42  C   UNL     1     -40.328  52.946 -52.939  1.00  0.00     0.017 A 
ENDBRANCH  33  37
ENDBRANCH  29  31
ENDBRANCH   3  29
TORSDOF 9
ENDMDL
MODEL 3
REMARK VINA RESULT:      -8.6      5.389      7.975
REMARK  9 active torsions:
REMARK  status: ('A' for Active; 'I' for Inactive)
REMARK    1  A    between atoms: C_3  and  N_4 
REMARK    2  A    between atoms: N_4  and  C_5 
REMARK    3  A    between atoms: C_7  and  C_8 
REMARK    4  A    between atoms: C_19  and  N_20 
REMARK       I    between atoms: N_20  and  C_21 
REMARK    5  A    between atoms: C_21  and  C_22 
REMARK    6  A    between atoms: C_24  and  N_25 
REMARK       I    between atoms: N_25  and  C_26 
REMARK    7  A    between atoms: C_26  and  C_27 
REMARK    8  A    between atoms: C_28  and  C_29 
REMARK    9  A    between atoms: C_29  and  N_30 
ROOT
HETATM    1  C   UNL     1     -42.462  60.194 -54.457  1.00  0.00     0.050 C 
HETATM    2  C   UNL     1     -42.216  59.830 -53.016  1.00  0.00    -0.033 A 
HETATM    3  C   UNL     1     -41.380  58.752 -52.660  1.00  0.00     0.055 A 
HETATM    4  C   UNL     1     -41.214  58.481 -51.295  1.00  0.00     0.033 A 
HETATM    5  C   UNL     1     -41.871  59.220 -50.304  1.00  0.00     0.032 A 
HETATM    6  C   UNL     1     -42.739  60.245 -50.655  1.00  0.00     0.035 A 
HETATM    7  C   UNL     1     -42.893  60.554 -52.012  1.00  0.00     0.038 A 
ENDROOT
BRANCH   6   8
HETATM    8  N   UNL     1     -43.519  60.971 -49.727  1.00  0.00    -0.323 N 
HETATM    9  C   UNL     1     -44.859  60.778 -49.432  1.00  0.00     0.256 C 
HETATM   10  O   UNL     1     -45.581  59.886 -49.861  1.00  0.00    -0.267 OA
HETATM   11  H   UNL     1     -43.056  61.768 -49.315  1.00  0.00     0.169 HD
BRANCH   9  12
HETATM   12  C   UNL     1     -45.478  61.798 -48.534  1.00  0.00     0.034 A 
HETATM   13  C   UNL     1     -44.882  62.206 -47.331  1.00  0.00     0.046 A 
HETATM   14  C   UNL     1     -45.484  63.188 -46.539  1.00  0.00     0.035 A 
HETATM   15  C   UNL     1     -46.709  63.734 -46.943  1.00  0.00     0.029 A 
HETATM   16  C   UNL     1     -47.321  63.315 -48.125  1.00  0.00     0.003 A 
HETATM   17  C   UNL     1     -46.706  62.351 -48.919  1.00  0.00     0.017 A 
BRANCH  14  18
HETATM   18  N   UNL     1     -44.931  63.670 -45.330  1.00  0.00    -0.324 N 
HETATM   19  C   UNL     1     -44.476  62.914 -44.275  1.00  0.00     0.245 C 
HETATM   20  O   UNL     1     -44.427  61.693 -44.191  1.00  0.00    -0.268 OA
HETATM   21  H   UNL     1     -44.865  64.677 -45.264  1.00  0.00     0.169 HD
BRANCH  19  22
HETATM   22  C   UNL     1     -43.976  63.751 -43.144  1.00  0.00     0.072 C 
HETATM   23  C   UNL     1     -44.144  63.299 -41.890  1.00  0.00     0.006 C 
BRANCH  23  24
HETATM   24  C   UNL     1     -43.663  63.979 -40.655  1.00  0.00     0.261 C 
BRANCH  24  25
HETATM   25  N   UNL     1     -44.793  64.341 -39.724  1.00  0.00    -0.076 N 
HETATM   26  H   UNL     1     -45.038  65.321 -39.922  1.00  0.00     0.279 HD
HETATM   27  C   UNL     1     -46.037  63.530 -39.956  1.00  0.00     0.269 C 
HETATM   28  C   UNL     1     -44.364  64.291 -38.284  1.00  0.00     0.269 C 
ENDBRANCH  24  25
ENDBRANCH  23  24
ENDBRANCH  19  22
ENDBRANCH  14  18
ENDBRANCH   9  12
ENDBRANCH   6   8
BRANCH   3  29
HETATM   29  N   UNL     1     -40.821  57.925 -53.644  1.00  0.00    -0.188 N 
HETATM   30  H   UNL     1     -39.991  58.240 -54.119  1.00  0.00     0.184 HD
BRANCH  29  31
HETATM   31  C   UNL     1     -41.266  56.738 -54.223  1.00  0.00     0.727 A 
HETATM   32  N   UNL     1     -40.773  55.609 -53.687  1.00  0.00    -0.062 NA
HETATM   33  C   UNL     1     -41.141  54.424 -54.230  1.00  0.00     0.089 A 
HETATM   34  C   UNL     1     -41.980  54.362 -55.326  1.00  0.00     0.053 A 
HETATM   35  C   UNL     1     -42.426  55.561 -55.813  1.00  0.00     0.139 A 
HETATM   36  N   UNL     1     -42.087  56.745 -55.281  1.00  0.00    -0.075 NA
BRANCH  33  37
HETATM   37  C   UNL     1     -40.578  53.221 -53.591  1.00  0.00     0.011 A 
HETATM   38  C   UNL     1     -40.325  53.179 -52.217  1.00  0.00     0.130 A 
HETATM   39  N   UNL     1     -39.792  52.123 -51.551  1.00  0.00    -0.272 NA
HETATM   40  C   UNL     1     -39.498  51.031 -52.284  1.00  0.00     0.116 A 
HETATM   41  C   UNL     1     -39.714  50.948 -53.648  1.00  0.00     0.020 A 
HETATM   42  C   UNL     1     -40.260  52.053 -54.301  1.00  0.00     0.017 A 
ENDBRANCH  33  37
ENDBRANCH  29  31
ENDBRANCH   3  29
TORSDOF 9
ENDMDL
MODEL 4
REMARK VINA RESULT:      -8.1      1.392      1.990
REMARK  9 active torsions:
REMARK  status: ('A' for Active; 'I' for Inactive)
REMARK    1  A    between atoms: C_3  and  N_4 
REMARK    2  A    between atoms: N_4  and  C_5 
REMARK    3  A    between atoms: C_7  and  C_8 
REMARK    4  A    between atoms: C_19  and  N_20 
REMARK       I    between atoms: N_20  and  C_21 
REMARK    5  A    between atoms: C_21  and  C_22 
REMARK    6  A    between atoms: C_24  and  N_25 
REMARK       I    between atoms: N_25  and  C_26 
REMARK    7  A    between atoms: C_26  and  C_27 
REMARK    8  A    between atoms: C_28  and  C_29 
REMARK    9  A    between atoms: C_29  and  N_30 
ROOT
HETATM    1  C   UNL     1     -44.370  56.396 -54.440  1.00  0.00     0.050 C 
HETATM    2  C   UNL     1     -43.800  57.664 -53.858  1.00  0.00    -0.033 A 
HETATM    3  C   UNL     1     -42.462  57.740 -53.422  1.00  0.00     0.055 A 
HETATM    4  C   UNL     1     -42.019  58.957 -52.888  1.00  0.00     0.033 A 
HETATM    5  C   UNL     1     -42.867  60.063 -52.753  1.00  0.00     0.032 A 
HETATM    6  C   UNL     1     -44.200  59.973 -53.128  1.00  0.00     0.035 A 
HETATM    7  C   UNL     1     -44.654  58.775 -53.696  1.00  0.00     0.038 A 
ENDROOT
BRANCH   6   8
HETATM    8  N   UNL     1     -45.148  61.002 -52.931  1.00  0.00    -0.323 N 
HETATM    9  C   UNL     1     -46.177  61.022 -52.003  1.00  0.00     0.256 C 
HETATM   10  O   UNL     1     -46.392  60.189 -51.132  1.00  0.00    -0.267 OA
HETATM   11  H   UNL     1     -45.108  61.750 -53.607  1.00  0.00     0.169 HD
BRANCH   9  12
HETATM   12  C   UNL     1     -47.135  62.161 -52.124  1.00  0.00     0.034 A 
HETATM   13  C   UNL     1     -48.487  61.979 -52.449  1.00  0.00     0.046 A 
HETATM   14  C   UNL     1     -49.354  63.074 -52.519  1.00  0.00     0.035 A 
HETATM   15  C   UNL     1     -48.847  64.360 -52.297  1.00  0.00     0.029 A 
HETATM   16  C   UNL     1     -47.498  64.553 -51.998  1.00  0.00     0.003 A 
HETATM   17  C   UNL     1     -46.645  63.456 -51.911  1.00  0.00     0.017 A 
BRANCH  14  18
HETATM   18  N   UNL     1     -50.733  62.967 -52.813  1.00  0.00    -0.324 N 
HETATM   19  C   UNL     1     -51.771  63.004 -51.911  1.00  0.00     0.245 C 
HETATM   20  O   UNL     1     -51.709  63.173 -50.699  1.00  0.00    -0.268 OA
HETATM   21  H   UNL     1     -50.953  62.862 -53.795  1.00  0.00     0.169 HD
BRANCH  19  22
HETATM   22  C   UNL     1     -53.103  62.837 -52.563  1.00  0.00     0.072 C 
HETATM   23  C   UNL     1     -53.150  62.717 -53.901  1.00  0.00     0.006 C 
BRANCH  23  24
HETATM   24  C   UNL     1     -54.385  62.493 -54.704  1.00  0.00     0.261 C 
BRANCH  24  25
HETATM   25  N   UNL     1     -54.232  61.356 -55.684  1.00  0.00    -0.076 N 
HETATM   26  H   UNL     1     -54.993  60.692 -55.489  1.00  0.00     0.279 HD
HETATM   27  C   UNL     1     -54.388  61.783 -57.118  1.00  0.00     0.269 C 
HETATM   28  C   UNL     1     -52.946  60.608 -55.470  1.00  0.00     0.269 C 
ENDBRANCH  24  25
ENDBRANCH  23  24
ENDBRANCH  19  22
ENDBRANCH  14  18
ENDBRANCH   9  12
ENDBRANCH   6   8
BRANCH   3  29
HETATM   29  N   UNL     1     -41.641  56.603 -53.433  1.00  0.00    -0.188 N 
HETATM   30  H   UNL     1     -41.356  56.227 -54.322  1.00  0.00     0.184 HD
BRANCH  29  31
HETATM   31  C   UNL     1     -41.207  55.761 -52.411  1.00  0.00     0.727 A 
HETATM   32  N   UNL     1     -40.897  54.508 -52.782  1.00  0.00    -0.062 NA
HETATM   33  C   UNL     1     -40.504  53.632 -51.826  1.00  0.00     0.089 A 
HETATM   34  C   UNL     1     -40.443  53.995 -50.495  1.00  0.00     0.053 A 
HETATM   35  C   UNL     1     -40.785  55.289 -50.207  1.00  0.00     0.139 A 
HETATM   36  N   UNL     1     -41.162  56.177 -51.139  1.00  0.00    -0.075 NA
BRANCH  33  37
HETATM   37  C   UNL     1     -40.165  52.276 -52.296  1.00  0.00     0.011 A 
HETATM   38  C   UNL     1     -39.781  51.272 -51.404  1.00  0.00     0.130 A 
HETATM   39  N   UNL     1     -39.436  50.005 -51.752  1.00  0.00    -0.272 NA
HETATM   40  C   UNL     1     -39.481  49.705 -53.065  1.00  0.00     0.116 A 
HETATM   41  C   UNL     1     -39.857  50.609 -54.041  1.00  0.00     0.020 A 
HETATM   42  C   UNL     1     -40.202  51.903 -53.649  1.00  0.00     0.017 A 
ENDBRANCH  33  37
ENDBRANCH  29  31
ENDBRANCH   3  29
TORSDOF 9
ENDMDL
MODEL 5
REMARK VINA RESULT:      -8.0      3.720      5.276
REMARK  9 active torsions:
REMARK  status: ('A' for Active; 'I' for Inactive)
REMARK    1  A    between atoms: C_3  and  N_4 
REMARK    2  A    between atoms: N_4  and  C_5 
REMARK    3  A    between atoms: C_7  and  C_8 
REMARK    4  A    between atoms: C_19  and  N_20 
REMARK       I    between atoms: N_20  and  C_21 
REMARK    5  A    between atoms: C_21  and  C_22 
REMARK    6  A    between atoms: C_24  and  N_25 
REMARK       I    between atoms: N_25  and  C_26 
REMARK    7  A    between atoms: C_26  and  C_27 
REMARK    8  A    between atoms: C_28  and  C_29 
REMARK    9  A    between atoms: C_29  and  N_30 
ROOT
HETATM    1  C   UNL     1     -42.890  55.732 -59.178  1.00  0.00     0.050 C 
HETATM    2  C   UNL     1     -43.622  56.579 -58.170  1.00  0.00    -0.033 A 
HETATM    3  C   UNL     1     -43.200  56.660 -56.828  1.00  0.00     0.055 A 
HETATM    4  C   UNL     1     -43.945  57.467 -55.958  1.00  0.00     0.033 A 
HETATM    5  C   UNL     1     -45.092  58.152 -56.378  1.00  0.00     0.032 A 
HETATM    6  C   UNL     1     -45.543  58.028 -57.685  1.00  0.00     0.035 A 
HETATM    7  C   UNL     1     -44.793  57.254 -58.579  1.00  0.00     0.038 A 
ENDROOT
BRANCH   6   8
HETATM    8  N   UNL     1     -46.743  58.599 -58.164  1.00  0.00    -0.323 N 
HETATM    9  C   UNL     1     -46.968  59.931 -58.472  1.00  0.00     0.256 C 
HETATM   10  O   UNL     1     -46.139  60.833 -58.467  1.00  0.00    -0.267 OA
HETATM   11  H   UNL     1     -47.532  57.970 -58.190  1.00  0.00     0.169 HD
BRANCH   9  12
HETATM   12  C   UNL     1     -48.380  60.291 -58.799  1.00  0.00     0.034 A 
HETATM   13  C   UNL     1     -49.326  60.607 -57.813  1.00  0.00     0.046 A 
HETATM   14  C   UNL     1     -50.629  60.970 -58.169  1.00  0.00     0.035 A 
HETATM   15  C   UNL     1     -50.988  60.976 -59.523  1.00  0.00     0.029 A 
HETATM   16  C   UNL     1     -50.061  60.638 -60.509  1.00  0.00     0.003 A 
HETATM   17  C   UNL     1     -48.760  60.297 -60.147  1.00  0.00     0.017 A 
BRANCH  14  18
HETATM   18  N   UNL     1     -51.627  61.329 -57.235  1.00  0.00    -0.324 N 
HETATM   19  C   UNL     1     -52.597  60.506 -56.711  1.00  0.00     0.245 C 
HETATM   20  O   UNL     1     -52.761  59.310 -56.918  1.00  0.00    -0.268 OA
HETATM   21  H   UNL     1     -51.598  62.293 -56.929  1.00  0.00     0.169 HD
BRANCH  19  22
HETATM   22  C   UNL     1     -53.506  61.221 -55.767  1.00  0.00     0.072 C 
HETATM   23  C   UNL     1     -52.971  62.111 -54.914  1.00  0.00     0.006 C 
BRANCH  23  24
HETATM   24  C   UNL     1     -53.736  62.945 -53.945  1.00  0.00     0.261 C 
BRANCH  24  25
HETATM   25  N   UNL     1     -52.838  63.634 -52.948  1.00  0.00    -0.076 N 
HETATM   26  H   UNL     1     -53.129  64.620 -52.919  1.00  0.00     0.279 HD
HETATM   27  C   UNL     1     -52.982  63.099 -51.550  1.00  0.00     0.269 C 
HETATM   28  C   UNL     1     -51.403  63.625 -53.395  1.00  0.00     0.269 C 
ENDBRANCH  24  25
ENDBRANCH  23  24
ENDBRANCH  19  22
ENDBRANCH  14  18
ENDBRANCH   9  12
ENDBRANCH   6   8
BRANCH   3  29
HETATM   29  N   UNL     1     -42.131  55.878 -56.367  1.00  0.00    -0.188 N 
HETATM   30  H   UNL     1     -41.614  55.332 -57.036  1.00  0.00     0.184 HD
BRANCH  29  31
HETATM   31  C   UNL     1     -41.680  55.587 -55.080  1.00  0.00     0.727 A 
HETATM   32  N   UNL     1     -41.302  54.315 -54.870  1.00  0.00    -0.062 NA
HETATM   33  C   UNL     1     -40.889  53.963 -53.629  1.00  0.00     0.089 A 
HETATM   34  C   UNL     1     -40.877  54.870 -52.588  1.00  0.00     0.053 A 
HETATM   35  C   UNL     1     -41.289  56.141 -52.890  1.00  0.00     0.139 A 
HETATM   36  N   UNL     1     -41.686  56.515 -54.115  1.00  0.00    -0.075 NA
BRANCH  33  37
HETATM   37  C   UNL     1     -40.475  52.558 -53.464  1.00  0.00     0.011 A 
HETATM   38  C   UNL     1     -39.903  52.103 -52.274  1.00  0.00     0.130 A 
HETATM   39  N   UNL     1     -39.477  50.835 -52.043  1.00  0.00    -0.272 NA
HETATM   40  C   UNL     1     -39.634  49.952 -53.049  1.00  0.00     0.116 A 
HETATM   41  C   UNL     1     -40.196  50.279 -54.270  1.00  0.00     0.020 A 
HETATM   42  C   UNL     1     -40.620  51.592 -54.473  1.00  0.00     0.017 A 
ENDBRANCH  33  37
ENDBRANCH  29  31
ENDBRANCH   3  29
TORSDOF 9
ENDMDL
MODEL 6
REMARK VINA RESULT:      -7.7      3.659      4.677
REMARK  9 active torsions:
REMARK  status: ('A' for Active; 'I' for Inactive)
REMARK    1  A    between atoms: C_3  and  N_4 
REMARK    2  A    between atoms: N_4  and  C_5 
REMARK    3  A    between atoms: C_7  and  C_8 
REMARK    4  A    between atoms: C_19  and  N_20 
REMARK       I    between atoms: N_20  and  C_21 
REMARK    5  A    between atoms: C_21  and  C_22 
REMARK    6  A    between atoms: C_24  and  N_25 
REMARK       I    between atoms: N_25  and  C_26 
REMARK    7  A    between atoms: C_26  and  C_27 
REMARK    8  A    between atoms: C_28  and  C_29 
REMARK    9  A    between atoms: C_29  and  N_30 
ROOT
HETATM    1  C   UNL     1     -44.223  56.813 -51.097  1.00  0.00     0.050 C 
HETATM    2  C   UNL     1     -43.557  56.844 -52.448  1.00  0.00    -0.033 A 
HETATM    3  C   UNL     1     -42.171  56.634 -52.593  1.00  0.00     0.055 A 
HETATM    4  C   UNL     1     -41.636  56.688 -53.886  1.00  0.00     0.033 A 
HETATM    5  C   UNL     1     -42.426  56.971 -55.007  1.00  0.00     0.032 A 
HETATM    6  C   UNL     1     -43.780  57.236 -54.860  1.00  0.00     0.035 A 
HETATM    7  C   UNL     1     -44.341  57.153 -53.580  1.00  0.00     0.038 A 
ENDROOT
BRANCH   6   8
HETATM    8  N   UNL     1     -44.627  57.630 -55.920  1.00  0.00    -0.323 N 
HETATM    9  C   UNL     1     -44.628  58.850 -56.577  1.00  0.00     0.256 C 
HETATM   10  O   UNL     1     -43.835  59.769 -56.414  1.00  0.00    -0.267 OA
HETATM   11  H   UNL     1     -45.361  56.974 -56.144  1.00  0.00     0.169 HD
BRANCH   9  12
HETATM   12  C   UNL     1     -45.743  59.062 -57.548  1.00  0.00     0.034 A 
HETATM   13  C   UNL     1     -47.036  59.425 -57.144  1.00  0.00     0.046 A 
HETATM   14  C   UNL     1     -48.040  59.644 -58.093  1.00  0.00     0.035 A 
HETATM   15  C   UNL     1     -47.748  59.460 -59.450  1.00  0.00     0.029 A 
HETATM   16  C   UNL     1     -46.471  59.073 -59.858  1.00  0.00     0.003 A 
HETATM   17  C   UNL     1     -45.471  58.876 -58.909  1.00  0.00     0.017 A 
BRANCH  14  18
HETATM   18  N   UNL     1     -49.357  60.040 -57.765  1.00  0.00    -0.324 N 
HETATM   19  C   UNL     1     -49.770  61.299 -57.396  1.00  0.00     0.245 C 
HETATM   20  O   UNL     1     -49.095  62.318 -57.316  1.00  0.00    -0.268 OA
HETATM   21  H   UNL     1     -50.051  59.305 -57.826  1.00  0.00     0.169 HD
BRANCH  19  22
HETATM   22  C   UNL     1     -51.231  61.358 -57.096  1.00  0.00     0.072 C 
HETATM   23  C   UNL     1     -51.885  60.206 -56.866  1.00  0.00     0.006 C 
BRANCH  23  24
HETATM   24  C   UNL     1     -53.325  60.089 -56.504  1.00  0.00     0.261 C 
BRANCH  24  25
HETATM   25  N   UNL     1     -54.209  59.934 -57.715  1.00  0.00    -0.076 N 
HETATM   26  H   UNL     1     -54.980  59.310 -57.442  1.00  0.00     0.279 HD
HETATM   27  C   UNL     1     -54.837  61.226 -58.161  1.00  0.00     0.269 C 
HETATM   28  C   UNL     1     -53.489  59.255 -58.846  1.00  0.00     0.269 C 
ENDBRANCH  24  25
ENDBRANCH  23  24
ENDBRANCH  19  22
ENDBRANCH  14  18
ENDBRANCH   9  12
ENDBRANCH   6   8
BRANCH   3  29
HETATM   29  N   UNL     1     -41.350  56.478 -51.466  1.00  0.00    -0.188 N 
HETATM   30  H   UNL     1     -40.841  57.279 -51.130  1.00  0.00     0.184 HD
BRANCH  29  31
HETATM   31  C   UNL     1     -40.976  55.349 -50.738  1.00  0.00     0.727 A 
HETATM   32  N   UNL     1     -40.705  54.253 -51.465  1.00  0.00    -0.062 NA
HETATM   33  C   UNL     1     -40.371  53.114 -50.812  1.00  0.00     0.089 A 
HETATM   34  C   UNL     1     -40.333  53.058 -49.432  1.00  0.00     0.053 A 
HETATM   35  C   UNL     1     -40.635  54.219 -48.773  1.00  0.00     0.139 A 
HETATM   36  N   UNL     1     -40.952  55.361 -49.400  1.00  0.00    -0.075 NA
BRANCH  33  37
HETATM   37  C   UNL     1     -40.071  51.949 -51.664  1.00  0.00     0.011 A 
HETATM   38  C   UNL     1     -39.838  50.686 -51.113  1.00  0.00     0.130 A 
HETATM   39  N   UNL     1     -39.538  49.566 -51.820  1.00  0.00    -0.272 NA
HETATM   40  C   UNL     1     -39.472  49.696 -53.160  1.00  0.00     0.116 A 
HETATM   41  C   UNL     1     -39.694  50.890 -53.821  1.00  0.00     0.020 A 
HETATM   42  C   UNL     1     -39.997  52.021 -53.064  1.00  0.00     0.017 A 
ENDBRANCH  33  37
ENDBRANCH  29  31
ENDBRANCH   3  29
TORSDOF 9
ENDMDL
MODEL 7
REMARK VINA RESULT:      -7.7      3.499      4.524
REMARK  9 active torsions:
REMARK  status: ('A' for Active; 'I' for Inactive)
REMARK    1  A    between atoms: C_3  and  N_4 
REMARK    2  A    between atoms: N_4  and  C_5 
REMARK    3  A    between atoms: C_7  and  C_8 
REMARK    4  A    between atoms: C_19  and  N_20 
REMARK       I    between atoms: N_20  and  C_21 
REMARK    5  A    between atoms: C_21  and  C_22 
REMARK    6  A    between atoms: C_24  and  N_25 
REMARK       I    between atoms: N_25  and  C_26 
REMARK    7  A    between atoms: C_26  and  C_27 
REMARK    8  A    between atoms: C_28  and  C_29 
REMARK    9  A    between atoms: C_29  and  N_30 
ROOT
HETATM    1  C   UNL     1     -41.736  59.930 -54.190  1.00  0.00     0.050 C 
HETATM    2  C   UNL     1     -42.876  58.954 -54.319  1.00  0.00    -0.033 A 
HETATM    3  C   UNL     1     -42.817  57.669 -53.742  1.00  0.00     0.055 A 
HETATM    4  C   UNL     1     -43.921  56.824 -53.918  1.00  0.00     0.033 A 
HETATM    5  C   UNL     1     -45.041  57.210 -54.664  1.00  0.00     0.032 A 
HETATM    6  C   UNL     1     -45.078  58.453 -55.281  1.00  0.00     0.035 A 
HETATM    7  C   UNL     1     -43.999  59.325 -55.089  1.00  0.00     0.038 A 
ENDROOT
BRANCH   6   8
HETATM    8  N   UNL     1     -46.120  58.881 -56.134  1.00  0.00    -0.323 N 
HETATM    9  C   UNL     1     -46.219  58.670 -57.499  1.00  0.00     0.256 C 
HETATM   10  O   UNL     1     -45.465  57.999 -58.193  1.00  0.00    -0.267 OA
HETATM   11  H   UNL     1     -46.806  59.479 -55.698  1.00  0.00     0.169 HD
BRANCH   9  12
HETATM   12  C   UNL     1     -47.343  59.377 -58.184  1.00  0.00     0.034 A 
HETATM   13  C   UNL     1     -48.313  60.109 -57.483  1.00  0.00     0.046 A 
HETATM   14  C   UNL     1     -49.328  60.782 -58.170  1.00  0.00     0.035 A 
HETATM   15  C   UNL     1     -49.387  60.684 -59.566  1.00  0.00     0.029 A 
HETATM   16  C   UNL     1     -48.441  59.937 -60.269  1.00  0.00     0.003 A 
HETATM   17  C   UNL     1     -47.421  59.286 -59.579  1.00  0.00     0.017 A 
BRANCH  14  18
HETATM   18  N   UNL     1     -50.322  61.562 -57.536  1.00  0.00    -0.324 N 
HETATM   19  C   UNL     1     -51.371  61.098 -56.776  1.00  0.00     0.245 C 
HETATM   20  O   UNL     1     -51.625  59.938 -56.474  1.00  0.00    -0.268 OA
HETATM   21  H   UNL     1     -50.224  62.561 -57.660  1.00  0.00     0.169 HD
BRANCH  19  22
HETATM   22  C   UNL     1     -52.247  62.198 -56.277  1.00  0.00     0.072 C 
HETATM   23  C   UNL     1     -52.701  62.132 -55.014  1.00  0.00     0.006 C 
BRANCH  23  24
HETATM   24  C   UNL     1     -53.540  63.164 -54.343  1.00  0.00     0.261 C 
BRANCH  24  25
HETATM   25  N   UNL     1     -52.835  63.800 -53.170  1.00  0.00    -0.076 N 
HETATM   26  H   UNL     1     -53.293  64.707 -53.005  1.00  0.00     0.279 HD
HETATM   27  C   UNL     1     -52.970  63.011 -51.897  1.00  0.00     0.269 C 
HETATM   28  C   UNL     1     -51.396  64.098 -53.482  1.00  0.00     0.269 C 
ENDBRANCH  24  25
ENDBRANCH  23  24
ENDBRANCH  19  22
ENDBRANCH  14  18
ENDBRANCH   9  12
ENDBRANCH   6   8
BRANCH   3  29
HETATM   29  N   UNL     1     -41.650  57.226 -53.104  1.00  0.00    -0.188 N 
HETATM   30  H   UNL     1     -40.766  57.601 -53.407  1.00  0.00     0.184 HD
BRANCH  29  31
HETATM   31  C   UNL     1     -41.430  56.224 -52.159  1.00  0.00     0.727 A 
HETATM   32  N   UNL     1     -41.053  55.033 -52.651  1.00  0.00    -0.062 NA
HETATM   33  C   UNL     1     -40.861  54.010 -51.784  1.00  0.00     0.089 A 
HETATM   34  C   UNL     1     -41.069  54.165 -50.428  1.00  0.00     0.053 A 
HETATM   35  C   UNL     1     -41.463  55.410 -50.016  1.00  0.00     0.139 A 
HETATM   36  N   UNL     1     -41.643  56.440 -50.854  1.00  0.00    -0.075 NA
BRANCH  33  37
HETATM   37  C   UNL     1     -40.435  52.732 -52.383  1.00  0.00     0.011 A 
HETATM   38  C   UNL     1     -39.843  51.729 -51.611  1.00  0.00     0.130 A 
HETATM   39  N   UNL     1     -39.406  50.533 -52.082  1.00  0.00    -0.272 NA
HETATM   40  C   UNL     1     -39.572  50.305 -53.400  1.00  0.00     0.116 A 
HETATM   41  C   UNL     1     -40.155  51.214 -54.263  1.00  0.00     0.020 A 
HETATM   42  C   UNL     1     -40.589  52.434 -53.746  1.00  0.00     0.017 A 
ENDBRANCH  33  37
ENDBRANCH  29  31
ENDBRANCH   3  29
TORSDOF 9
ENDMDL
MODEL 8
REMARK VINA RESULT:      -7.6      2.214     12.472
REMARK  9 active torsions:
REMARK  status: ('A' for Active; 'I' for Inactive)
REMARK    1  A    between atoms: C_3  and  N_4 
REMARK    2  A    between atoms: N_4  and  C_5 
REMARK    3  A    between atoms: C_7  and  C_8 
REMARK    4  A    between atoms: C_19  and  N_20 
REMARK       I    between atoms: N_20  and  C_21 
REMARK    5  A    between atoms: C_21  and  C_22 
REMARK    6  A    between atoms: C_24  and  N_25 
REMARK       I    between atoms: N_25  and  C_26 
REMARK    7  A    between atoms: C_26  and  C_27 
REMARK    8  A    between atoms: C_28  and  C_29 
REMARK    9  A    between atoms: C_29  and  N_30 
ROOT
HETATM    1  C   UNL     1     -46.677  62.860 -55.778  1.00  0.00     0.050 C 
HETATM    2  C   UNL     1     -46.775  62.206 -54.425  1.00  0.00    -0.033 A 
HETATM    3  C   UNL     1     -47.886  62.413 -53.583  1.00  0.00     0.055 A 
HETATM    4  C   UNL     1     -47.889  61.770 -52.338  1.00  0.00     0.033 A 
HETATM    5  C   UNL     1     -46.822  60.972 -51.911  1.00  0.00     0.032 A 
HETATM    6  C   UNL     1     -45.700  60.813 -52.713  1.00  0.00     0.035 A 
HETATM    7  C   UNL     1     -45.692  61.419 -53.976  1.00  0.00     0.038 A 
ENDROOT
BRANCH   6   8
HETATM    8  N   UNL     1     -44.539  60.112 -52.319  1.00  0.00    -0.323 N 
HETATM    9  C   UNL     1     -44.353  58.739 -52.317  1.00  0.00     0.256 C 
HETATM   10  O   UNL     1     -45.134  57.895 -52.740  1.00  0.00    -0.267 OA
HETATM   11  H   UNL     1     -43.814  60.686 -51.914  1.00  0.00     0.169 HD
BRANCH   9  12
HETATM   12  C   UNL     1     -43.086  58.258 -51.691  1.00  0.00     0.034 A 
HETATM   13  C   UNL     1     -42.717  56.904 -51.678  1.00  0.00     0.046 A 
HETATM   14  C   UNL     1     -41.504  56.504 -51.108  1.00  0.00     0.035 A 
HETATM   15  C   UNL     1     -40.679  57.469 -50.515  1.00  0.00     0.029 A 
HETATM   16  C   UNL     1     -41.051  58.813 -50.501  1.00  0.00     0.003 A 
HETATM   17  C   UNL     1     -42.251  59.207 -51.088  1.00  0.00     0.017 A 
BRANCH  14  18
HETATM   18  N   UNL     1     -41.052  55.165 -51.082  1.00  0.00    -0.324 N 
HETATM   19  C   UNL     1     -41.040  54.322 -49.996  1.00  0.00     0.245 C 
HETATM   20  O   UNL     1     -41.446  54.549 -48.863  1.00  0.00    -0.268 OA
HETATM   21  H   UNL     1     -40.717  54.812 -51.969  1.00  0.00     0.169 HD
BRANCH  19  22
HETATM   22  C   UNL     1     -40.471  52.980 -50.318  1.00  0.00     0.072 C 
HETATM   23  C   UNL     1     -40.104  52.728 -51.587  1.00  0.00     0.006 C 
BRANCH  23  24
HETATM   24  C   UNL     1     -39.476  51.467 -52.069  1.00  0.00     0.261 C 
BRANCH  24  25
HETATM   25  N   UNL     1     -39.405  51.401 -53.574  1.00  0.00    -0.076 N 
HETATM   26  H   UNL     1     -38.431  51.607 -53.835  1.00  0.00     0.279 HD
HETATM   27  C   UNL     1     -39.721  50.038 -54.125  1.00  0.00     0.269 C 
HETATM   28  C   UNL     1     -40.253  52.463 -54.217  1.00  0.00     0.269 C 
ENDBRANCH  24  25
ENDBRANCH  23  24
ENDBRANCH  19  22
ENDBRANCH  14  18
ENDBRANCH   9  12
ENDBRANCH   6   8
BRANCH   3  29
HETATM   29  N   UNL     1     -48.900  63.312 -53.945  1.00  0.00    -0.188 N 
HETATM   30  H   UNL     1     -48.647  64.269 -54.130  1.00  0.00     0.184 HD
BRANCH  29  31
HETATM   31  C   UNL     1     -50.287  63.178 -53.994  1.00  0.00     0.727 A 
HETATM   32  N   UNL     1     -50.752  62.267 -54.863  1.00  0.00    -0.062 NA
HETATM   33  C   UNL     1     -52.094  62.117 -54.981  1.00  0.00     0.089 A 
HETATM   34  C   UNL     1     -52.974  62.894 -54.253  1.00  0.00     0.053 A 
HETATM   35  C   UNL     1     -52.411  63.805 -53.400  1.00  0.00     0.139 A 
HETATM   36  N   UNL     1     -51.087  63.958 -53.255  1.00  0.00    -0.075 NA
BRANCH  33  37
HETATM   37  C   UNL     1     -52.544  61.093 -55.941  1.00  0.00     0.011 A 
HETATM   38  C   UNL     1     -52.986  59.838 -55.512  1.00  0.00     0.130 A 
HETATM   39  N   UNL     1     -53.399  58.833 -56.325  1.00  0.00    -0.272 NA
HETATM   40  C   UNL     1     -53.386  59.082 -57.649  1.00  0.00     0.116 A 
HETATM   41  C   UNL     1     -52.982  60.287 -58.194  1.00  0.00     0.020 A 
HETATM   42  C   UNL     1     -52.561  61.297 -57.329  1.00  0.00     0.017 A 
ENDBRANCH  33  37
ENDBRANCH  29  31
ENDBRANCH   3  29
TORSDOF 9
ENDMDL
MODEL 9
REMARK VINA RESULT:      -7.6      5.493      6.804
REMARK  9 active torsions:
REMARK  status: ('A' for Active; 'I' for Inactive)
REMARK    1  A    between atoms: C_3  and  N_4 
REMARK    2  A    between atoms: N_4  and  C_5 
REMARK    3  A    between atoms: C_7  and  C_8 
REMARK    4  A    between atoms: C_19  and  N_20 
REMARK       I    between atoms: N_20  and  C_21 
REMARK    5  A    between atoms: C_21  and  C_22 
REMARK    6  A    between atoms: C_24  and  N_25 
REMARK       I    between atoms: N_25  and  C_26 
REMARK    7  A    between atoms: C_26  and  C_27 
REMARK    8  A    between atoms: C_28  and  C_29 
REMARK    9  A    between atoms: C_29  and  N_30 
ROOT
HETATM    1  C   UNL     1     -40.232  55.088 -54.751  1.00  0.00     0.050 C 
HETATM    2  C   UNL     1     -41.421  56.013 -54.743  1.00  0.00    -0.033 A 
HETATM    3  C   UNL     1     -41.730  56.809 -53.621  1.00  0.00     0.055 A 
HETATM    4  C   UNL     1     -42.859  57.635 -53.699  1.00  0.00     0.033 A 
HETATM    5  C   UNL     1     -43.685  57.660 -54.830  1.00  0.00     0.032 A 
HETATM    6  C   UNL     1     -43.416  56.835 -55.912  1.00  0.00     0.035 A 
HETATM    7  C   UNL     1     -42.272  56.027 -55.868  1.00  0.00     0.038 A 
ENDROOT
BRANCH   6   8
HETATM    8  N   UNL     1     -44.251  56.722 -57.046  1.00  0.00    -0.323 N 
HETATM    9  C   UNL     1     -44.119  57.393 -58.250  1.00  0.00     0.256 C 
HETATM   10  O   UNL     1     -43.203  58.139 -58.575  1.00  0.00    -0.267 OA
HETATM   11  H   UNL     1     -45.076  56.155 -56.911  1.00  0.00     0.169 HD
BRANCH   9  12
HETATM   12  C   UNL     1     -45.240  57.212 -59.221  1.00  0.00     0.034 A 
HETATM   13  C   UNL     1     -46.151  58.235 -59.521  1.00  0.00     0.046 A 
HETATM   14  C   UNL     1     -47.166  58.027 -60.461  1.00  0.00     0.035 A 
HETATM   15  C   UNL     1     -47.283  56.772 -61.072  1.00  0.00     0.029 A 
HETATM   16  C   UNL     1     -46.396  55.742 -60.759  1.00  0.00     0.003 A 
HETATM   17  C   UNL     1     -45.377  55.961 -59.837  1.00  0.00     0.017 A 
BRANCH  14  18
HETATM   18  N   UNL     1     -48.103  59.017 -60.836  1.00  0.00    -0.324 N 
HETATM   19  C   UNL     1     -47.887  60.070 -61.695  1.00  0.00     0.245 C 
HETATM   20  O   UNL     1     -46.868  60.332 -62.323  1.00  0.00    -0.268 OA
HETATM   21  H   UNL     1     -49.022  58.912 -60.426  1.00  0.00     0.169 HD
BRANCH  19  22
HETATM   22  C   UNL     1     -49.091  60.939 -61.849  1.00  0.00     0.072 C 
HETATM   23  C   UNL     1     -50.304  60.393 -61.661  1.00  0.00     0.006 C 
BRANCH  23  24
HETATM   24  C   UNL     1     -51.600  61.125 -61.724  1.00  0.00     0.261 C 
BRANCH  24  25
HETATM   25  N   UNL     1     -52.753  60.292 -61.222  1.00  0.00    -0.076 N 
HETATM   26  H   UNL     1     -52.668  60.257 -60.197  1.00  0.00     0.279 HD
HETATM   27  C   UNL     1     -54.097  60.896 -61.524  1.00  0.00     0.269 C 
HETATM   28  C   UNL     1     -52.666  58.872 -61.707  1.00  0.00     0.269 C 
ENDBRANCH  24  25
ENDBRANCH  23  24
ENDBRANCH  19  22
ENDBRANCH  14  18
ENDBRANCH   9  12
ENDBRANCH   6   8
BRANCH   3  29
HETATM   29  N   UNL     1     -40.985  56.696 -52.438  1.00  0.00    -0.188 N 
HETATM   30  H   UNL     1     -40.205  57.317 -52.302  1.00  0.00     0.184 HD
BRANCH  29  31
HETATM   31  C   UNL     1     -41.030  55.768 -51.398  1.00  0.00     0.727 A 
HETATM   32  N   UNL     1     -40.662  54.517 -51.720  1.00  0.00    -0.062 NA
HETATM   33  C   UNL     1     -40.719  53.562 -50.759  1.00  0.00     0.089 A 
HETATM   34  C   UNL     1     -41.168  53.847 -49.484  1.00  0.00     0.053 A 
HETATM   35  C   UNL     1     -41.532  55.146 -49.249  1.00  0.00     0.139 A 
HETATM   36  N   UNL     1     -41.468  56.109 -50.180  1.00  0.00    -0.075 NA
BRANCH  33  37
HETATM   37  C   UNL     1     -40.291  52.213 -51.169  1.00  0.00     0.011 A 
HETATM   38  C   UNL     1     -39.910  51.938 -52.485  1.00  0.00     0.130 A 
HETATM   39  N   UNL     1     -39.521  50.724 -52.950  1.00  0.00    -0.272 NA
HETATM   40  C   UNL     1     -39.495  49.714 -52.059  1.00  0.00     0.116 A 
HETATM   41  C   UNL     1     -39.838  49.863 -50.728  1.00  0.00     0.020 A 
HETATM   42  C   UNL     1     -40.237  51.124 -50.284  1.00  0.00     0.017 A 
ENDBRANCH  33  37
ENDBRANCH  29  31
ENDBRANCH   3  29
TORSDOF 9
ENDMDL
MODEL 10
REMARK VINA RESULT:      -7.5      5.486      6.890
REMARK  9 active torsions:
REMARK  status: ('A' for Active; 'I' for Inactive)
REMARK    1  A    between atoms: C_3  and  N_4 
REMARK    2  A    between atoms: N_4  and  C_5 
REMARK    3  A    between atoms: C_7  and  C_8 
REMARK    4  A    between atoms: C_19  and  N_20 
REMARK       I    between atoms: N_20  and  C_21 
REMARK    5  A    between atoms: C_21  and  C_22 
REMARK    6  A    between atoms: C_24  and  N_25 
REMARK       I    between atoms: N_25  and  C_26 
REMARK    7  A    between atoms: C_26  and  C_27 
REMARK    8  A    between atoms: C_28  and  C_29 
REMARK    9  A    between atoms: C_29  and  N_30 
ROOT
HETATM    1  C   UNL     1     -41.783  59.230 -54.330  1.00  0.00     0.050 C 
HETATM    2  C   UNL     1     -42.312  58.221 -55.317  1.00  0.00    -0.033 A 
HETATM    3  C   UNL     1     -41.904  56.872 -55.284  1.00  0.00     0.055 A 
HETATM    4  C   UNL     1     -42.442  56.005 -56.244  1.00  0.00     0.033 A 
HETATM    5  C   UNL     1     -43.330  56.449 -57.232  1.00  0.00     0.032 A 
HETATM    6  C   UNL     1     -43.688  57.788 -57.302  1.00  0.00     0.035 A 
HETATM    7  C   UNL     1     -43.188  58.664 -56.330  1.00  0.00     0.038 A 
ENDROOT
BRANCH   6   8
HETATM    8  N   UNL     1     -44.493  58.338 -58.324  1.00  0.00    -0.323 N 
HETATM    9  C   UNL     1     -44.223  58.351 -59.683  1.00  0.00     0.256 C 
HETATM   10  O   UNL     1     -43.279  57.811 -60.246  1.00  0.00    -0.267 OA
HETATM   11  H   UNL     1     -45.301  58.849 -57.999  1.00  0.00     0.169 HD
BRANCH   9  12
HETATM   12  C   UNL     1     -45.167  59.148 -60.523  1.00  0.00     0.034 A 
HETATM   13  C   UNL     1     -46.510  58.785 -60.701  1.00  0.00     0.046 A 
HETATM   14  C   UNL     1     -47.364  59.581 -61.472  1.00  0.00     0.035 A 
HETATM   15  C   UNL     1     -46.851  60.726 -62.095  1.00  0.00     0.029 A 
HETATM   16  C   UNL     1     -45.510  61.080 -61.943  1.00  0.00     0.003 A 
HETATM   17  C   UNL     1     -44.670  60.293 -61.159  1.00  0.00     0.017 A 
BRANCH  14  18
HETATM   18  N   UNL     1     -48.733  59.296 -61.674  1.00  0.00    -0.324 N 
HETATM   19  C   UNL     1     -49.264  58.413 -62.586  1.00  0.00     0.245 C 
HETATM   20  O   UNL     1     -48.662  57.684 -63.365  1.00  0.00    -0.268 OA
HETATM   21  H   UNL     1     -49.367  59.798 -61.066  1.00  0.00     0.169 HD
BRANCH  19  22
HETATM   22  C   UNL     1     -50.756  58.377 -62.546  1.00  0.00     0.072 C 
HETATM   23  C   UNL     1     -51.401  59.329 -61.852  1.00  0.00     0.006 C 
BRANCH  23  24
HETATM   24  C   UNL     1     -52.881  59.470 -61.751  1.00  0.00     0.261 C 
BRANCH  24  25
HETATM   25  N   UNL     1     -53.492  58.447 -60.827  1.00  0.00    -0.076 N 
HETATM   26  H   UNL     1     -52.781  57.718 -60.680  1.00  0.00     0.279 HD
HETATM   27  C   UNL     1     -53.829  58.999 -59.469  1.00  0.00     0.269 C 
HETATM   28  C   UNL     1     -54.677  57.769 -61.454  1.00  0.00     0.269 C 
ENDBRANCH  24  25
ENDBRANCH  23  24
ENDBRANCH  19  22
ENDBRANCH  14  18
ENDBRANCH   9  12
ENDBRANCH   6   8
BRANCH   3  29
HETATM   29  N   UNL     1     -40.918  56.446 -54.382  1.00  0.00    -0.188 N 
HETATM   30  H   UNL     1     -39.961  56.698 -54.565  1.00  0.00     0.184 HD
BRANCH  29  31
HETATM   31  C   UNL     1     -40.973  55.593 -53.281  1.00  0.00     0.727 A 
HETATM   32  N   UNL     1     -40.613  54.320 -53.513  1.00  0.00    -0.062 NA
HETATM   33  C   UNL     1     -40.681  53.435 -52.489  1.00  0.00     0.089 A 
HETATM   34  C   UNL     1     -41.133  53.810 -51.239  1.00  0.00     0.053 A 
HETATM   35  C   UNL     1     -41.489  55.125 -51.096  1.00  0.00     0.139 A 
HETATM   36  N   UNL     1     -41.414  56.021 -52.091  1.00  0.00    -0.075 NA
BRANCH  33  37
HETATM   37  C   UNL     1     -40.260  52.057 -52.802  1.00  0.00     0.011 A 
HETATM   38  C   UNL     1     -39.834  51.182 -51.800  1.00  0.00     0.130 A 
HETATM   39  N   UNL     1     -39.413  49.907 -52.000  1.00  0.00    -0.272 NA
HETATM   40  C   UNL     1     -39.422  49.460 -53.272  1.00  0.00     0.116 A 
HETATM   41  C   UNL     1     -39.832  50.227 -54.346  1.00  0.00     0.020 A 
HETATM   42  C   UNL     1     -40.255  51.534 -54.104  1.00  0.00     0.017 A 
ENDBRANCH  33  37
ENDBRANCH  29  31
ENDBRANCH   3  29
TORSDOF 9
ENDMDL
