MODEL 1
REMARK VINA RESULT:      -9.1      0.000      0.000
REMARK  7 active torsions:
REMARK  status: ('A' for Active; 'I' for Inactive)
REMARK    1  A    between atoms: C_2  and  O_3 
REMARK    2  A    between atoms: O_3  and  C_4 
REMARK    3  A    between atoms: C_7  and  N_8 
REMARK    4  A    between atoms: C_9  and  O_10 
REMARK    5  A    between atoms: C_9  and  C_11 
REMARK       I    between atoms: C_11  and  N_12 
REMARK    6  A    between atoms: N_12  and  C_13 
REMARK    7  A    between atoms: C_13  and  C_14 
ROOT
HETATM    1  N   UNL     1     -42.870  57.122 -54.300  1.00  0.00    -0.254 N 
HETATM    2  C   UNL     1     -43.031  55.800 -53.667  1.00  0.00     0.256 C 
HETATM    3  C   UNL     1     -42.564  55.788 -52.229  1.00  0.00     0.034 A 
HETATM    4  C   UNL     1     -41.555  56.677 -51.872  1.00  0.00     0.048 A 
HETATM    5  N   UNL     1     -41.094  57.576 -52.828  1.00  0.00    -0.308 N 
HETATM    6  C   UNL     1     -41.732  57.864 -54.008  1.00  0.00     0.330 C 
HETATM    7  O   UNL     1     -41.282  58.792 -54.679  1.00  0.00    -0.246 OA
HETATM    8  C   UNL     1     -43.032  54.875 -51.273  1.00  0.00     0.015 A 
HETATM    9  C   UNL     1     -42.498  54.868 -49.983  1.00  0.00     0.001 A 
HETATM   10  C   UNL     1     -41.481  55.760 -49.645  1.00  0.00     0.002 A 
HETATM   11  C   UNL     1     -40.999  56.662 -50.593  1.00  0.00     0.030 A 
HETATM   12  H   UNL     1     -40.355  58.228 -52.592  1.00  0.00     0.170 HD
ENDROOT
BRANCH   2  13
HETATM   13  O   UNL     1     -44.404  55.399 -53.657  1.00  0.00    -0.359 OA
HETATM   14  H   UNL     1     -44.714  55.564 -54.569  1.00  0.00     0.213 HD
ENDBRANCH   2  13
BRANCH   2  15
HETATM   15  C   UNL     1     -42.217  54.734 -54.518  1.00  0.00     0.279 C 
HETATM   16  N   UNL     1     -40.944  54.417 -54.092  1.00  0.00    -0.352 N 
HETATM   17  H   UNL     1     -40.584  54.818 -53.234  1.00  0.00     0.162 HD
HETATM   18  O   UNL     1     -42.709  54.221 -55.528  1.00  0.00    -0.268 OA
BRANCH  16  19
HETATM   19  C   UNL     1     -40.146  53.426 -54.771  1.00  0.00     0.161 C 
BRANCH  19  20
HETATM   20  C   UNL     1     -39.954  52.214 -53.899  1.00  0.00    -0.040 A 
HETATM   21  C   UNL     1     -39.936  50.928 -54.464  1.00  0.00     0.012 A 
HETATM   22  C   UNL     1     -39.790  49.802 -53.653  1.00  0.00     0.043 A 
HETATM   23  C   UNL     1     -39.667  49.959 -52.277  1.00  0.00     0.116 A 
HETATM   24  F   UNL     1     -39.527  48.878 -51.500  1.00  0.00    -0.206 F 
HETATM   25  C   UNL     1     -39.694  51.221 -51.697  1.00  0.00     0.043 A 
HETATM   26  C   UNL     1     -39.843  52.350 -52.506  1.00  0.00     0.012 A 
ENDBRANCH  19  20
ENDBRANCH  16  19
ENDBRANCH   2  15
BRANCH   1  27
HETATM   27  C   UNL     1     -43.642  57.427 -55.467  1.00  0.00     0.043 A 
HETATM   28  C   UNL     1     -43.163  57.176 -56.758  1.00  0.00     0.032 A 
HETATM   29  C   UNL     1     -43.936  57.485 -57.886  1.00  0.00     0.039 A 
HETATM   30  C   UNL     1     -45.195  58.064 -57.737  1.00  0.00     0.068 A 
HETATM   31  C   UNL     1     -45.661  58.352 -56.456  1.00  0.00     0.039 A 
HETATM   32  C   UNL     1     -44.893  58.038 -55.333  1.00  0.00     0.032 A 
BRANCH  30  33
HETATM   33  O   UNL     1     -46.048  58.414 -58.745  1.00  0.00    -0.352 OA
BRANCH  33  34
HETATM   34  C   UNL     1     -45.889  57.738 -59.990  1.00  0.00     0.171 C 
HETATM   35  C   UNL     1     -46.890  56.596 -60.028  1.00  0.00     0.034 C 
ENDBRANCH  33  34
ENDBRANCH  30  33
ENDBRANCH   1  27
TORSDOF 7
ENDMDL
MODEL 2
REMARK VINA RESULT:      -8.9      2.913      3.679
REMARK  7 active torsions:
REMARK  status: ('A' for Active; 'I' for Inactive)
REMARK    1  A    between atoms: C_2  and  O_3 
REMARK    2  A    between atoms: O_3  and  C_4 
REMARK    3  A    between atoms: C_7  and  N_8 
REMARK    4  A    between atoms: C_9  and  O_10 
REMARK    5  A    between atoms: C_9  and  C_11 
REMARK       I    between atoms: C_11  and  N_12 
REMARK    6  A    between atoms: N_12  and  C_13 
REMARK    7  A    between atoms: C_13  and  C_14 
ROOT
HETATM    1  N   UNL     1     -42.911  58.549 -53.306  1.00  0.00    -0.254 N 
HETATM    2  C   UNL     1     -43.819  58.144 -52.218  1.00  0.00     0.256 C 
HETATM    3  C   UNL     1     -44.133  59.282 -51.273  1.00  0.00     0.034 A 
HETATM    4  C   UNL     1     -43.173  60.276 -51.120  1.00  0.00     0.048 A 
HETATM    5  N   UNL     1     -42.023  60.212 -51.901  1.00  0.00    -0.308 N 
HETATM    6  C   UNL     1     -41.868  59.420 -53.010  1.00  0.00     0.330 C 
HETATM    7  O   UNL     1     -40.852  59.586 -53.684  1.00  0.00    -0.246 OA
HETATM    8  C   UNL     1     -45.294  59.335 -50.488  1.00  0.00     0.015 A 
HETATM    9  C   UNL     1     -45.482  60.376 -49.576  1.00  0.00     0.001 A 
HETATM   10  C   UNL     1     -44.504  61.359 -49.430  1.00  0.00     0.002 A 
HETATM   11  C   UNL     1     -43.340  61.306 -50.196  1.00  0.00     0.030 A 
HETATM   12  H   UNL     1     -41.305  60.922 -51.802  1.00  0.00     0.170 HD
ENDROOT
BRANCH   2  13
HETATM   13  O   UNL     1     -45.071  57.684 -52.738  1.00  0.00    -0.359 OA
HETATM   14  H   UNL     1     -45.298  58.331 -53.434  1.00  0.00     0.213 HD
ENDBRANCH   2  13
BRANCH   2  15
HETATM   15  C   UNL     1     -43.148  56.941 -51.426  1.00  0.00     0.279 C 
HETATM   16  N   UNL     1     -43.813  55.732 -51.423  1.00  0.00    -0.352 N 
HETATM   17  H   UNL     1     -44.665  55.622 -51.959  1.00  0.00     0.162 HD
HETATM   18  O   UNL     1     -42.078  57.094 -50.830  1.00  0.00    -0.268 OA
BRANCH  16  19
HETATM   19  C   UNL     1     -43.260  54.570 -50.773  1.00  0.00     0.161 C 
BRANCH  19  20
HETATM   20  C   UNL     1     -42.217  53.921 -51.644  1.00  0.00    -0.040 A 
HETATM   21  C   UNL     1     -42.470  53.696 -53.007  1.00  0.00     0.012 A 
HETATM   22  C   UNL     1     -41.516  53.066 -53.807  1.00  0.00     0.043 A 
HETATM   23  C   UNL     1     -40.313  52.656 -53.246  1.00  0.00     0.116 A 
HETATM   24  F   UNL     1     -39.399  52.051 -54.016  1.00  0.00    -0.206 F 
HETATM   25  C   UNL     1     -40.048  52.859 -51.898  1.00  0.00     0.043 A 
HETATM   26  C   UNL     1     -41.001  53.486 -51.093  1.00  0.00     0.012 A 
ENDBRANCH  19  20
ENDBRANCH  16  19
ENDBRANCH   2  15
BRANCH   1  27
HETATM   27  C   UNL     1     -42.865  57.758 -54.498  1.00  0.00     0.043 A 
HETATM   28  C   UNL     1     -41.960  56.701 -54.650  1.00  0.00     0.032 A 
HETATM   29  C   UNL     1     -41.931  55.941 -55.828  1.00  0.00     0.039 A 
HETATM   30  C   UNL     1     -42.800  56.238 -56.877  1.00  0.00     0.068 A 
HETATM   31  C   UNL     1     -43.675  57.313 -56.747  1.00  0.00     0.039 A 
HETATM   32  C   UNL     1     -43.708  58.066 -55.571  1.00  0.00     0.032 A 
BRANCH  30  33
HETATM   33  O   UNL     1     -42.878  55.582 -58.072  1.00  0.00    -0.352 OA
BRANCH  33  34
HETATM   34  C   UNL     1     -43.935  55.962 -58.950  1.00  0.00     0.171 C 
HETATM   35  C   UNL     1     -44.369  54.723 -59.714  1.00  0.00     0.034 C 
ENDBRANCH  33  34
ENDBRANCH  30  33
ENDBRANCH   1  27
TORSDOF 7
ENDMDL
MODEL 3
REMARK VINA RESULT:      -8.7      3.428      7.298
REMARK  7 active torsions:
REMARK  status: ('A' for Active; 'I' for Inactive)
REMARK    1  A    between atoms: C_2  and  O_3 
REMARK    2  A    between atoms: O_3  and  C_4 
REMARK    3  A    between atoms: C_7  and  N_8 
REMARK    4  A    between atoms: C_9  and  O_10 
REMARK    5  A    between atoms: C_9  and  C_11 
REMARK       I    between atoms: C_11  and  N_12 
REMARK    6  A    between atoms: N_12  and  C_13 
REMARK    7  A    between atoms: C_13  and  C_14 
ROOT
HETATM    1  N   UNL     1     -42.344  55.922 -52.008  1.00  0.00    -0.254 N 
HETATM    2  C   UNL     1     -42.248  56.994 -53.016  1.00  0.00     0.256 C 
HETATM    3  C   UNL     1     -42.685  58.337 -52.474  1.00  0.00     0.034 A 
HETATM    4  C   UNL     1     -43.632  58.343 -51.456  1.00  0.00     0.048 A 
HETATM    5  N   UNL     1     -44.059  57.123 -50.940  1.00  0.00    -0.308 N 
HETATM    6  C   UNL     1     -43.430  55.921 -51.141  1.00  0.00     0.330 C 
HETATM    7  O   UNL     1     -43.839  54.956 -50.496  1.00  0.00    -0.246 OA
HETATM    8  C   UNL     1     -42.251  59.561 -53.003  1.00  0.00     0.015 A 
HETATM    9  C   UNL     1     -42.758  60.763 -52.507  1.00  0.00     0.001 A 
HETATM   10  C   UNL     1     -43.714  60.750 -51.492  1.00  0.00     0.002 A 
HETATM   11  C   UNL     1     -44.161  59.537 -50.969  1.00  0.00     0.030 A 
HETATM   12  H   UNL     1     -44.754  57.103 -50.202  1.00  0.00     0.170 HD
ENDROOT
BRANCH   2  13
HETATM   13  O   UNL     1     -40.900  57.153 -53.470  1.00  0.00    -0.359 OA
HETATM   14  H   UNL     1     -40.352  56.920 -52.695  1.00  0.00     0.213 HD
ENDBRANCH   2  13
BRANCH   2  15
HETATM   15  C   UNL     1     -43.140  56.589 -54.266  1.00  0.00     0.279 C 
HETATM   16  N   UNL     1     -42.490  56.338 -55.457  1.00  0.00    -0.352 N 
HETATM   17  H   UNL     1     -41.478  56.360 -55.495  1.00  0.00     0.162 HD
HETATM   18  O   UNL     1     -44.369  56.515 -54.170  1.00  0.00    -0.268 OA
BRANCH  16  19
HETATM   19  C   UNL     1     -43.209  55.917 -56.633  1.00  0.00     0.161 C 
BRANCH  19  20
HETATM   20  C   UNL     1     -42.786  56.726 -57.831  1.00  0.00    -0.040 A 
HETATM   21  C   UNL     1     -42.788  56.152 -59.112  1.00  0.00     0.012 A 
HETATM   22  C   UNL     1     -42.365  56.892 -60.218  1.00  0.00     0.043 A 
HETATM   23  C   UNL     1     -41.934  58.201 -60.043  1.00  0.00     0.116 A 
HETATM   24  F   UNL     1     -41.528  58.910 -61.104  1.00  0.00    -0.206 F 
HETATM   25  C   UNL     1     -41.914  58.784 -58.781  1.00  0.00     0.043 A 
HETATM   26  C   UNL     1     -42.333  58.046 -57.673  1.00  0.00     0.012 A 
ENDBRANCH  19  20
ENDBRANCH  16  19
ENDBRANCH   2  15
BRANCH   1  27
HETATM   27  C   UNL     1     -41.579  54.726 -52.198  1.00  0.00     0.043 A 
HETATM   28  C   UNL     1     -41.794  53.876 -53.288  1.00  0.00     0.032 A 
HETATM   29  C   UNL     1     -41.034  52.708 -53.451  1.00  0.00     0.039 A 
HETATM   30  C   UNL     1     -40.058  52.369 -52.516  1.00  0.00     0.068 A 
HETATM   31  C   UNL     1     -39.867  53.191 -51.409  1.00  0.00     0.039 A 
HETATM   32  C   UNL     1     -40.619  54.357 -51.249  1.00  0.00     0.032 A 
BRANCH  30  33
HETATM   33  O   UNL     1     -39.251  51.268 -52.554  1.00  0.00    -0.352 OA
BRANCH  33  34
HETATM   34  C   UNL     1     -39.847  50.044 -52.977  1.00  0.00     0.171 C 
HETATM   35  C   UNL     1     -39.474  49.829 -54.434  1.00  0.00     0.034 C 
ENDBRANCH  33  34
ENDBRANCH  30  33
ENDBRANCH   1  27
TORSDOF 7
ENDMDL
MODEL 4
REMARK VINA RESULT:      -8.3      2.244      2.985
REMARK  7 active torsions:
REMARK  status: ('A' for Active; 'I' for Inactive)
REMARK    1  A    between atoms: C_2  and  O_3 
REMARK    2  A    between atoms: O_3  and  C_4 
REMARK    3  A    between atoms: C_7  and  N_8 
REMARK    4  A    between atoms: C_9  and  O_10 
REMARK    5  A    between atoms: C_9  and  C_11 
REMARK       I    between atoms: C_11  and  N_12 
REMARK    6  A    between atoms: N_12  and  C_13 
REMARK    7  A    between atoms: C_13  and  C_14 
ROOT
HETATM    1  N   UNL     1     -43.737  58.323 -55.780  1.00  0.00    -0.254 N 
HETATM    2  C   UNL     1     -43.649  57.416 -54.620  1.00  0.00     0.256 C 
HETATM    3  C   UNL     1     -44.096  58.077 -53.335  1.00  0.00     0.034 A 
HETATM    4  C   UNL     1     -43.933  59.454 -53.229  1.00  0.00     0.048 A 
HETATM    5  N   UNL     1     -43.450  60.152 -54.332  1.00  0.00    -0.308 N 
HETATM    6  C   UNL     1     -43.384  59.656 -55.609  1.00  0.00     0.330 C 
HETATM    7  O   UNL     1     -43.077  60.443 -56.504  1.00  0.00    -0.246 OA
HETATM    8  C   UNL     1     -44.579  57.365 -52.228  1.00  0.00     0.015 A 
HETATM    9  C   UNL     1     -44.898  58.032 -51.044  1.00  0.00     0.001 A 
HETATM   10  C   UNL     1     -44.719  59.412 -50.952  1.00  0.00     0.002 A 
HETATM   11  C   UNL     1     -44.227  60.127 -52.043  1.00  0.00     0.030 A 
HETATM   12  H   UNL     1     -43.316  61.156 -54.275  1.00  0.00     0.170 HD
ENDROOT
BRANCH   2  13
HETATM   13  O   UNL     1     -44.482  56.267 -54.802  1.00  0.00    -0.359 OA
HETATM   14  H   UNL     1     -45.047  56.246 -54.006  1.00  0.00     0.213 HD
ENDBRANCH   2  13
BRANCH   2  15
HETATM   15  C   UNL     1     -42.147  56.916 -54.487  1.00  0.00     0.279 C 
HETATM   16  N   UNL     1     -41.884  55.602 -54.813  1.00  0.00    -0.352 N 
HETATM   17  H   UNL     1     -42.624  55.013 -55.176  1.00  0.00     0.162 HD
HETATM   18  O   UNL     1     -41.258  57.678 -54.096  1.00  0.00    -0.268 OA
BRANCH  16  19
HETATM   19  C   UNL     1     -40.545  55.069 -54.770  1.00  0.00     0.161 C 
BRANCH  19  20
HETATM   20  C   UNL     1     -40.431  54.006 -53.709  1.00  0.00    -0.040 A 
HETATM   21  C   UNL     1     -40.723  54.307 -52.369  1.00  0.00     0.012 A 
HETATM   22  C   UNL     1     -40.587  53.330 -51.381  1.00  0.00     0.043 A 
HETATM   23  C   UNL     1     -40.153  52.057 -51.730  1.00  0.00     0.116 A 
HETATM   24  F   UNL     1     -40.023  51.121 -50.780  1.00  0.00    -0.206 F 
HETATM   25  C   UNL     1     -39.848  51.743 -53.048  1.00  0.00     0.043 A 
HETATM   26  C   UNL     1     -39.981  52.718 -54.039  1.00  0.00     0.012 A 
ENDBRANCH  19  20
ENDBRANCH  16  19
ENDBRANCH   2  15
BRANCH   1  27
HETATM   27  C   UNL     1     -43.783  57.758 -57.095  1.00  0.00     0.043 A 
HETATM   28  C   UNL     1     -42.649  57.208 -57.704  1.00  0.00     0.032 A 
HETATM   29  C   UNL     1     -42.718  56.664 -58.995  1.00  0.00     0.039 A 
HETATM   30  C   UNL     1     -43.920  56.675 -59.699  1.00  0.00     0.068 A 
HETATM   31  C   UNL     1     -45.042  57.256 -59.113  1.00  0.00     0.039 A 
HETATM   32  C   UNL     1     -44.976  57.793 -57.826  1.00  0.00     0.032 A 
BRANCH  30  33
HETATM   33  O   UNL     1     -44.126  56.181 -60.955  1.00  0.00    -0.352 OA
BRANCH  33  34
HETATM   34  C   UNL     1     -45.122  55.171 -61.097  1.00  0.00     0.171 C 
HETATM   35  C   UNL     1     -44.857  54.109 -60.043  1.00  0.00     0.034 C 
ENDBRANCH  33  34
ENDBRANCH  30  33
ENDBRANCH   1  27
TORSDOF 7
ENDMDL
MODEL 5
REMARK VINA RESULT:      -8.2      3.353      7.033
REMARK  7 active torsions:
REMARK  status: ('A' for Active; 'I' for Inactive)
REMARK    1  A    between atoms: C_2  and  O_3 
REMARK    2  A    between atoms: O_3  and  C_4 
REMARK    3  A    between atoms: C_7  and  N_8 
REMARK    4  A    between atoms: C_9  and  O_10 
REMARK    5  A    between atoms: C_9  and  C_11 
REMARK       I    between atoms: C_11  and  N_12 
REMARK    6  A    between atoms: N_12  and  C_13 
REMARK    7  A    between atoms: C_13  and  C_14 
ROOT
HETATM    1  N   UNL     1     -42.781  57.009 -52.699  1.00  0.00    -0.254 N 
HETATM    2  C   UNL     1     -42.050  58.213 -52.266  1.00  0.00     0.256 C 
HETATM    3  C   UNL     1     -42.923  59.168 -51.482  1.00  0.00     0.034 A 
HETATM    4  C   UNL     1     -44.285  59.174 -51.763  1.00  0.00     0.048 A 
HETATM    5  N   UNL     1     -44.776  58.252 -52.682  1.00  0.00    -0.308 N 
HETATM    6  C   UNL     1     -44.096  57.149 -53.130  1.00  0.00     0.330 C 
HETATM    7  O   UNL     1     -44.719  56.345 -53.823  1.00  0.00    -0.246 OA
HETATM    8  C   UNL     1     -42.417  60.096 -50.561  1.00  0.00     0.015 A 
HETATM    9  C   UNL     1     -43.271  61.003 -49.932  1.00  0.00     0.001 A 
HETATM   10  C   UNL     1     -44.633  61.001 -50.232  1.00  0.00     0.002 A 
HETATM   11  C   UNL     1     -45.143  60.091 -51.158  1.00  0.00     0.030 A 
HETATM   12  H   UNL     1     -45.765  58.243 -52.908  1.00  0.00     0.170 HD
ENDROOT
BRANCH   2  13
HETATM   13  O   UNL     1     -40.951  57.870 -51.417  1.00  0.00    -0.359 OA
HETATM   14  H   UNL     1     -41.014  58.496 -50.670  1.00  0.00     0.213 HD
ENDBRANCH   2  13
BRANCH   2  15
HETATM   15  C   UNL     1     -41.465  58.936 -53.555  1.00  0.00     0.279 C 
HETATM   16  N   UNL     1     -42.340  59.204 -54.586  1.00  0.00    -0.352 N 
HETATM   17  H   UNL     1     -43.325  58.993 -54.481  1.00  0.00     0.162 HD
HETATM   18  O   UNL     1     -40.268  59.232 -53.626  1.00  0.00    -0.268 OA
BRANCH  16  19
HETATM   19  C   UNL     1     -41.913  59.899 -55.775  1.00  0.00     0.161 C 
BRANCH  19  20
HETATM   20  C   UNL     1     -42.122  59.040 -56.994  1.00  0.00    -0.040 A 
HETATM   21  C   UNL     1     -41.852  59.548 -58.276  1.00  0.00     0.012 A 
HETATM   22  C   UNL     1     -42.076  58.763 -59.408  1.00  0.00     0.043 A 
HETATM   23  C   UNL     1     -42.575  57.475 -59.261  1.00  0.00     0.116 A 
HETATM   24  F   UNL     1     -42.790  56.723 -60.349  1.00  0.00    -0.206 F 
HETATM   25  C   UNL     1     -42.860  56.958 -58.004  1.00  0.00     0.043 A 
HETATM   26  C   UNL     1     -42.640  57.741 -56.869  1.00  0.00     0.012 A 
ENDBRANCH  19  20
ENDBRANCH  16  19
ENDBRANCH   2  15
BRANCH   1  27
HETATM   27  C   UNL     1     -42.036  55.837 -53.048  1.00  0.00     0.043 A 
HETATM   28  C   UNL     1     -41.986  54.716 -52.212  1.00  0.00     0.032 A 
HETATM   29  C   UNL     1     -41.247  53.580 -52.574  1.00  0.00     0.039 A 
HETATM   30  C   UNL     1     -40.537  53.557 -53.773  1.00  0.00     0.068 A 
HETATM   31  C   UNL     1     -40.551  54.685 -54.590  1.00  0.00     0.039 A 
HETATM   32  C   UNL     1     -41.292  55.813 -54.233  1.00  0.00     0.032 A 
BRANCH  30  33
HETATM   33  O   UNL     1     -39.781  52.522 -54.245  1.00  0.00    -0.352 OA
BRANCH  33  34
HETATM   34  C   UNL     1     -39.728  51.343 -53.443  1.00  0.00     0.171 C 
HETATM   35  C   UNL     1     -39.760  50.147 -54.379  1.00  0.00     0.034 C 
ENDBRANCH  33  34
ENDBRANCH  30  33
ENDBRANCH   1  27
TORSDOF 7
ENDMDL
MODEL 6
REMARK VINA RESULT:      -8.0      3.275      6.864
REMARK  7 active torsions:
REMARK  status: ('A' for Active; 'I' for Inactive)
REMARK    1  A    between atoms: C_2  and  O_3 
REMARK    2  A    between atoms: O_3  and  C_4 
REMARK    3  A    between atoms: C_7  and  N_8 
REMARK    4  A    between atoms: C_9  and  O_10 
REMARK    5  A    between atoms: C_9  and  C_11 
REMARK       I    between atoms: C_11  and  N_12 
REMARK    6  A    between atoms: N_12  and  C_13 
REMARK    7  A    between atoms: C_13  and  C_14 
ROOT
HETATM    1  N   UNL     1     -43.295  57.328 -52.190  1.00  0.00    -0.254 N 
HETATM    2  C   UNL     1     -43.147  58.605 -52.911  1.00  0.00     0.256 C 
HETATM    3  C   UNL     1     -43.278  59.803 -51.997  1.00  0.00     0.034 A 
HETATM    4  C   UNL     1     -44.075  59.666 -50.866  1.00  0.00     0.048 A 
HETATM    5  N   UNL     1     -44.634  58.420 -50.596  1.00  0.00    -0.308 N 
HETATM    6  C   UNL     1     -44.248  57.242 -51.182  1.00  0.00     0.330 C 
HETATM    7  O   UNL     1     -44.730  56.203 -50.729  1.00  0.00    -0.246 OA
HETATM    8  C   UNL     1     -42.714  61.056 -52.280  1.00  0.00     0.015 A 
HETATM    9  C   UNL     1     -42.943  62.141 -51.433  1.00  0.00     0.001 A 
HETATM   10  C   UNL     1     -43.752  61.987 -50.307  1.00  0.00     0.002 A 
HETATM   11  C   UNL     1     -44.329  60.749 -50.026  1.00  0.00     0.030 A 
HETATM   12  H   UNL     1     -45.224  58.298 -49.780  1.00  0.00     0.170 HD
ENDROOT
BRANCH   2  13
HETATM   13  O   UNL     1     -41.860  58.700 -53.529  1.00  0.00    -0.359 OA
HETATM   14  H   UNL     1     -42.036  59.107 -54.400  1.00  0.00     0.213 HD
ENDBRANCH   2  13
BRANCH   2  15
HETATM   15  C   UNL     1     -44.245  58.664 -54.057  1.00  0.00     0.279 C 
HETATM   16  N   UNL     1     -43.808  58.890 -55.346  1.00  0.00    -0.352 N 
HETATM   17  H   UNL     1     -42.816  58.954 -55.539  1.00  0.00     0.162 HD
HETATM   18  O   UNL     1     -45.443  58.524 -53.794  1.00  0.00    -0.268 OA
BRANCH  16  19
HETATM   19  C   UNL     1     -44.724  58.913 -56.459  1.00  0.00     0.161 C 
BRANCH  19  20
HETATM   20  C   UNL     1     -44.420  57.793 -57.418  1.00  0.00    -0.040 A 
HETATM   21  C   UNL     1     -45.217  57.598 -58.558  1.00  0.00     0.012 A 
HETATM   22  C   UNL     1     -44.954  56.540 -59.430  1.00  0.00     0.043 A 
HETATM   23  C   UNL     1     -43.901  55.675 -59.162  1.00  0.00     0.116 A 
HETATM   24  F   UNL     1     -43.650  54.660 -60.000  1.00  0.00    -0.206 F 
HETATM   25  C   UNL     1     -43.107  55.844 -58.034  1.00  0.00     0.043 A 
HETATM   26  C   UNL     1     -43.369  56.899 -57.158  1.00  0.00     0.012 A 
ENDBRANCH  19  20
ENDBRANCH  16  19
ENDBRANCH   2  15
BRANCH   1  27
HETATM   27  C   UNL     1     -42.774  56.134 -52.785  1.00  0.00     0.043 A 
HETATM   28  C   UNL     1     -43.448  55.465 -53.812  1.00  0.00     0.032 A 
HETATM   29  C   UNL     1     -42.919  54.295 -54.378  1.00  0.00     0.039 A 
HETATM   30  C   UNL     1     -41.714  53.773 -53.913  1.00  0.00     0.068 A 
HETATM   31  C   UNL     1     -41.059  54.413 -52.864  1.00  0.00     0.039 A 
HETATM   32  C   UNL     1     -41.582  55.581 -52.305  1.00  0.00     0.032 A 
BRANCH  30  33
HETATM   33  O   UNL     1     -41.090  52.649 -54.372  1.00  0.00    -0.352 OA
BRANCH  33  34
HETATM   34  C   UNL     1     -40.119  52.053 -53.515  1.00  0.00     0.171 C 
HETATM   35  C   UNL     1     -39.813  50.667 -54.056  1.00  0.00     0.034 C 
ENDBRANCH  33  34
ENDBRANCH  30  33
ENDBRANCH   1  27
TORSDOF 7
ENDMDL
MODEL 7
REMARK VINA RESULT:      -7.8      2.290      6.048
REMARK  7 active torsions:
REMARK  status: ('A' for Active; 'I' for Inactive)
REMARK    1  A    between atoms: C_2  and  O_3 
REMARK    2  A    between atoms: O_3  and  C_4 
REMARK    3  A    between atoms: C_7  and  N_8 
REMARK    4  A    between atoms: C_9  and  O_10 
REMARK    5  A    between atoms: C_9  and  C_11 
REMARK       I    between atoms: C_11  and  N_12 
REMARK    6  A    between atoms: N_12  and  C_13 
REMARK    7  A    between atoms: C_13  and  C_14 
ROOT
HETATM    1  N   UNL     1     -43.430  57.757 -55.432  1.00  0.00    -0.254 N 
HETATM    2  C   UNL     1     -42.724  56.679 -56.149  1.00  0.00     0.256 C 
HETATM    3  C   UNL     1     -43.153  56.570 -57.595  1.00  0.00     0.034 A 
HETATM    4  C   UNL     1     -44.449  56.963 -57.914  1.00  0.00     0.048 A 
HETATM    5  N   UNL     1     -45.242  57.509 -56.909  1.00  0.00    -0.308 N 
HETATM    6  C   UNL     1     -44.779  57.959 -55.699  1.00  0.00     0.330 C 
HETATM    7  O   UNL     1     -45.577  58.556 -54.977  1.00  0.00    -0.246 OA
HETATM    8  C   UNL     1     -42.348  56.015 -58.600  1.00  0.00     0.015 A 
HETATM    9  C   UNL     1     -42.838  55.870 -59.898  1.00  0.00     0.001 A 
HETATM   10  C   UNL     1     -44.143  56.262 -60.198  1.00  0.00     0.002 A 
HETATM   11  C   UNL     1     -44.956  56.802 -59.202  1.00  0.00     0.030 A 
HETATM   12  H   UNL     1     -46.192  57.797 -57.117  1.00  0.00     0.170 HD
ENDROOT
BRANCH   2  13
HETATM   13  O   UNL     1     -41.311  56.906 -56.156  1.00  0.00    -0.359 OA
HETATM   14  H   UNL     1     -40.991  56.430 -56.946  1.00  0.00     0.213 HD
ENDBRANCH   2  13
BRANCH   2  15
HETATM   15  C   UNL     1     -42.995  55.310 -55.390  1.00  0.00     0.279 C 
HETATM   16  N   UNL     1     -41.917  54.477 -55.175  1.00  0.00    -0.352 N 
HETATM   17  H   UNL     1     -40.988  54.773 -55.448  1.00  0.00     0.162 HD
HETATM   18  O   UNL     1     -44.134  55.006 -55.019  1.00  0.00    -0.268 OA
BRANCH  16  19
HETATM   19  C   UNL     1     -42.055  53.237 -54.453  1.00  0.00     0.161 C 
BRANCH  19  20
HETATM   20  C   UNL     1     -41.456  53.356 -53.077  1.00  0.00    -0.040 A 
HETATM   21  C   UNL     1     -42.066  54.165 -52.105  1.00  0.00     0.012 A 
HETATM   22  C   UNL     1     -41.494  54.300 -50.839  1.00  0.00     0.043 A 
HETATM   23  C   UNL     1     -40.311  53.633 -50.546  1.00  0.00     0.116 A 
HETATM   24  F   UNL     1     -39.763  53.765 -49.331  1.00  0.00    -0.206 F 
HETATM   25  C   UNL     1     -39.685  52.837 -51.497  1.00  0.00     0.043 A 
HETATM   26  C   UNL     1     -40.253  52.702 -52.765  1.00  0.00     0.012 A 
ENDBRANCH  19  20
ENDBRANCH  16  19
ENDBRANCH   2  15
BRANCH   1  27
HETATM   27  C   UNL     1     -42.853  58.280 -54.231  1.00  0.00     0.043 A 
HETATM   28  C   UNL     1     -42.751  57.513 -53.064  1.00  0.00     0.032 A 
HETATM   29  C   UNL     1     -42.183  58.049 -51.898  1.00  0.00     0.039 A 
HETATM   30  C   UNL     1     -41.723  59.364 -51.881  1.00  0.00     0.068 A 
HETATM   31  C   UNL     1     -41.859  60.144 -53.027  1.00  0.00     0.039 A 
HETATM   32  C   UNL     1     -42.417  59.609 -54.190  1.00  0.00     0.032 A 
BRANCH  30  33
HETATM   33  O   UNL     1     -41.153  60.007 -50.820  1.00  0.00    -0.352 OA
BRANCH  33  34
HETATM   34  C   UNL     1     -40.196  59.273 -50.058  1.00  0.00     0.171 C 
HETATM   35  C   UNL     1     -38.842  59.452 -50.723  1.00  0.00     0.034 C 
ENDBRANCH  33  34
ENDBRANCH  30  33
ENDBRANCH   1  27
TORSDOF 7
ENDMDL
MODEL 8
REMARK VINA RESULT:      -7.8     15.117     18.610
REMARK  7 active torsions:
REMARK  status: ('A' for Active; 'I' for Inactive)
REMARK    1  A    between atoms: C_2  and  O_3 
REMARK    2  A    between atoms: O_3  and  C_4 
REMARK    3  A    between atoms: C_7  and  N_8 
REMARK    4  A    between atoms: C_9  and  O_10 
REMARK    5  A    between atoms: C_9  and  C_11 
REMARK       I    between atoms: C_11  and  N_12 
REMARK    6  A    between atoms: N_12  and  C_13 
REMARK    7  A    between atoms: C_13  and  C_14 
ROOT
HETATM    1  N   UNL     1     -35.031  40.802 -53.066  1.00  0.00    -0.254 N 
HETATM    2  C   UNL     1     -35.762  39.659 -53.642  1.00  0.00     0.256 C 
HETATM    3  C   UNL     1     -36.487  40.022 -54.919  1.00  0.00     0.034 A 
HETATM    4  C   UNL     1     -36.910  41.339 -55.068  1.00  0.00     0.048 A 
HETATM    5  N   UNL     1     -36.572  42.259 -54.080  1.00  0.00    -0.308 N 
HETATM    6  C   UNL     1     -35.621  42.059 -53.112  1.00  0.00     0.330 C 
HETATM    7  O   UNL     1     -35.327  43.023 -52.404  1.00  0.00    -0.246 OA
HETATM    8  C   UNL     1     -36.826  39.086 -55.907  1.00  0.00     0.015 A 
HETATM    9  C   UNL     1     -37.567  39.476 -57.024  1.00  0.00     0.001 A 
HETATM   10  C   UNL     1     -37.991  40.799 -57.152  1.00  0.00     0.002 A 
HETATM   11  C   UNL     1     -37.670  41.733 -56.168  1.00  0.00     0.030 A 
HETATM   12  H   UNL     1     -36.875  43.223 -54.164  1.00  0.00     0.170 HD
ENDROOT
BRANCH   2  13
HETATM   13  O   UNL     1     -34.869  38.589 -53.967  1.00  0.00    -0.359 OA
HETATM   14  H   UNL     1     -35.442  37.799 -54.014  1.00  0.00     0.213 HD
ENDBRANCH   2  13
BRANCH   2  15
HETATM   15  C   UNL     1     -36.793  39.124 -52.558  1.00  0.00     0.279 C 
HETATM   16  N   UNL     1     -36.436  38.001 -51.842  1.00  0.00    -0.352 N 
HETATM   17  H   UNL     1     -35.523  37.584 -51.977  1.00  0.00     0.162 HD
HETATM   18  O   UNL     1     -37.874  39.692 -52.378  1.00  0.00    -0.268 OA
BRANCH  16  19
HETATM   19  C   UNL     1     -37.283  37.469 -50.803  1.00  0.00     0.161 C 
BRANCH  19  20
HETATM   20  C   UNL     1     -36.606  37.571 -49.462  1.00  0.00    -0.040 A 
HETATM   21  C   UNL     1     -37.224  38.256 -48.404  1.00  0.00     0.012 A 
HETATM   22  C   UNL     1     -36.582  38.378 -47.171  1.00  0.00     0.043 A 
HETATM   23  C   UNL     1     -35.321  37.821 -46.996  1.00  0.00     0.116 A 
HETATM   24  F   UNL     1     -34.706  37.939 -45.812  1.00  0.00    -0.206 F 
HETATM   25  C   UNL     1     -34.687  37.149 -48.034  1.00  0.00     0.043 A 
HETATM   26  C   UNL     1     -35.325  37.028 -49.270  1.00  0.00     0.012 A 
ENDBRANCH  19  20
ENDBRANCH  16  19
ENDBRANCH   2  15
BRANCH   1  27
HETATM   27  C   UNL     1     -33.966  40.546 -52.144  1.00  0.00     0.043 A 
HETATM   28  C   UNL     1     -32.638  40.409 -52.566  1.00  0.00     0.032 A 
HETATM   29  C   UNL     1     -31.612  40.156 -51.644  1.00  0.00     0.039 A 
HETATM   30  C   UNL     1     -31.903  40.023 -50.288  1.00  0.00     0.068 A 
HETATM   31  C   UNL     1     -33.228  40.118 -49.867  1.00  0.00     0.039 A 
HETATM   32  C   UNL     1     -34.249  40.376 -50.784  1.00  0.00     0.032 A 
BRANCH  30  33
HETATM   33  O   UNL     1     -31.005  39.777 -49.289  1.00  0.00    -0.352 OA
BRANCH  33  34
HETATM   34  C   UNL     1     -31.538  39.431 -48.012  1.00  0.00     0.171 C 
HETATM   35  C   UNL     1     -30.479  39.745 -46.969  1.00  0.00     0.034 C 
ENDBRANCH  33  34
ENDBRANCH  30  33
ENDBRANCH   1  27
TORSDOF 7
ENDMDL
MODEL 9
REMARK VINA RESULT:      -7.6      3.723      6.839
REMARK  7 active torsions:
REMARK  status: ('A' for Active; 'I' for Inactive)
REMARK    1  A    between atoms: C_2  and  O_3 
REMARK    2  A    between atoms: O_3  and  C_4 
REMARK    3  A    between atoms: C_7  and  N_8 
REMARK    4  A    between atoms: C_9  and  O_10 
REMARK    5  A    between atoms: C_9  and  C_11 
REMARK       I    between atoms: C_11  and  N_12 
REMARK    6  A    between atoms: N_12  and  C_13 
REMARK    7  A    between atoms: C_13  and  C_14 
ROOT
HETATM    1  N   UNL     1     -43.172  57.284 -53.004  1.00  0.00    -0.254 N 
HETATM    2  C   UNL     1     -43.424  56.391 -54.150  1.00  0.00     0.256 C 
HETATM    3  C   UNL     1     -42.572  55.143 -54.107  1.00  0.00     0.034 A 
HETATM    4  C   UNL     1     -41.335  55.229 -53.476  1.00  0.00     0.048 A 
HETATM    5  N   UNL     1     -40.990  56.424 -52.853  1.00  0.00    -0.308 N 
HETATM    6  C   UNL     1     -41.866  57.437 -52.555  1.00  0.00     0.330 C 
HETATM    7  O   UNL     1     -41.441  58.365 -51.867  1.00  0.00    -0.246 OA
HETATM    8  C   UNL     1     -42.927  53.943 -54.741  1.00  0.00     0.015 A 
HETATM    9  C   UNL     1     -42.054  52.854 -54.729  1.00  0.00     0.001 A 
HETATM   10  C   UNL     1     -40.814  52.961 -54.100  1.00  0.00     0.002 A 
HETATM   11  C   UNL     1     -40.447  54.154 -53.479  1.00  0.00     0.030 A 
HETATM   12  H   UNL     1     -40.090  56.512 -52.393  1.00  0.00     0.170 HD
ENDROOT
BRANCH   2  13
HETATM   13  O   UNL     1     -44.787  55.958 -54.173  1.00  0.00    -0.359 OA
HETATM   14  H   UNL     1     -45.099  56.081 -53.256  1.00  0.00     0.213 HD
ENDBRANCH   2  13
BRANCH   2  15
HETATM   15  C   UNL     1     -43.146  57.201 -55.488  1.00  0.00     0.279 C 
HETATM   16  N   UNL     1     -44.038  57.038 -56.527  1.00  0.00    -0.352 N 
HETATM   17  H   UNL     1     -44.863  56.465 -56.400  1.00  0.00     0.162 HD
HETATM   18  O   UNL     1     -42.160  57.938 -55.589  1.00  0.00    -0.268 OA
BRANCH  16  19
HETATM   19  C   UNL     1     -43.896  57.767 -57.763  1.00  0.00     0.161 C 
BRANCH  19  20
HETATM   20  C   UNL     1     -44.952  57.346 -58.751  1.00  0.00    -0.040 A 
HETATM   21  C   UNL     1     -46.142  58.081 -58.875  1.00  0.00     0.012 A 
HETATM   22  C   UNL     1     -47.134  57.672 -59.768  1.00  0.00     0.043 A 
HETATM   23  C   UNL     1     -46.941  56.526 -60.531  1.00  0.00     0.116 A 
HETATM   24  F   UNL     1     -47.894  56.135 -61.386  1.00  0.00    -0.206 F 
HETATM   25  C   UNL     1     -45.775  55.779 -60.414  1.00  0.00     0.043 A 
HETATM   26  C   UNL     1     -44.782  56.183 -59.520  1.00  0.00     0.012 A 
ENDBRANCH  19  20
ENDBRANCH  16  19
ENDBRANCH   2  15
BRANCH   1  27
HETATM   27  C   UNL     1     -44.166  58.254 -52.653  1.00  0.00     0.043 A 
HETATM   28  C   UNL     1     -44.905  58.161 -51.468  1.00  0.00     0.032 A 
HETATM   29  C   UNL     1     -45.875  59.122 -51.147  1.00  0.00     0.039 A 
HETATM   30  C   UNL     1     -46.128  60.182 -52.016  1.00  0.00     0.068 A 
HETATM   31  C   UNL     1     -45.424  60.257 -53.215  1.00  0.00     0.039 A 
HETATM   32  C   UNL     1     -44.454  59.304 -53.532  1.00  0.00     0.032 A 
BRANCH  30  33
HETATM   33  O   UNL     1     -47.039  61.181 -51.827  1.00  0.00    -0.352 OA
BRANCH  33  34
HETATM   34  C   UNL     1     -47.425  61.929 -52.979  1.00  0.00     0.171 C 
HETATM   35  C   UNL     1     -48.934  62.101 -52.934  1.00  0.00     0.034 C 
ENDBRANCH  33  34
ENDBRANCH  30  33
ENDBRANCH   1  27
TORSDOF 7
ENDMDL
MODEL 10
REMARK VINA RESULT:      -7.6     15.544     18.613
REMARK  7 active torsions:
REMARK  status: ('A' for Active; 'I' for Inactive)
REMARK    1  A    between atoms: C_2  and  O_3 
REMARK    2  A    between atoms: O_3  and  C_4 
REMARK    3  A    between atoms: C_7  and  N_8 
REMARK    4  A    between atoms: C_9  and  O_10 
REMARK    5  A    between atoms: C_9  and  C_11 
REMARK       I    between atoms: C_11  and  N_12 
REMARK    6  A    between atoms: N_12  and  C_13 
REMARK    7  A    between atoms: C_13  and  C_14 
ROOT
HETATM    1  N   UNL     1     -33.931  39.569 -52.415  1.00  0.00    -0.254 N 
HETATM    2  C   UNL     1     -34.474  39.171 -53.726  1.00  0.00     0.256 C 
HETATM    3  C   UNL     1     -33.388  38.909 -54.745  1.00  0.00     0.034 A 
HETATM    4  C   UNL     1     -32.192  39.605 -54.605  1.00  0.00     0.048 A 
HETATM    5  N   UNL     1     -32.032  40.433 -53.498  1.00  0.00    -0.308 N 
HETATM    6  C   UNL     1     -32.828  40.415 -52.382  1.00  0.00     0.330 C 
HETATM    7  O   UNL     1     -32.469  41.098 -51.423  1.00  0.00    -0.246 OA
HETATM    8  C   UNL     1     -33.560  38.075 -55.860  1.00  0.00     0.015 A 
HETATM    9  C   UNL     1     -32.542  37.942 -56.805  1.00  0.00     0.001 A 
HETATM   10  C   UNL     1     -31.353  38.655 -56.654  1.00  0.00     0.002 A 
HETATM   11  C   UNL     1     -31.178  39.497 -55.556  1.00  0.00     0.030 A 
HETATM   12  H   UNL     1     -31.171  40.955 -53.379  1.00  0.00     0.170 HD
ENDROOT
BRANCH   2  13
HETATM   13  O   UNL     1     -35.238  37.966 -53.621  1.00  0.00    -0.359 OA
HETATM   14  H   UNL     1     -34.604  37.303 -53.286  1.00  0.00     0.213 HD
ENDBRANCH   2  13
BRANCH   2  15
HETATM   15  C   UNL     1     -35.443  40.321 -54.238  1.00  0.00     0.279 C 
HETATM   16  N   UNL     1     -36.710  39.954 -54.640  1.00  0.00    -0.352 N 
HETATM   17  H   UNL     1     -37.010  38.991 -54.548  1.00  0.00     0.162 HD
HETATM   18  O   UNL     1     -35.064  41.496 -54.282  1.00  0.00    -0.268 OA
BRANCH  16  19
HETATM   19  C   UNL     1     -37.676  40.931 -55.074  1.00  0.00     0.161 C 
BRANCH  19  20
HETATM   20  C   UNL     1     -37.659  41.063 -56.574  1.00  0.00    -0.040 A 
HETATM   21  C   UNL     1     -38.247  40.075 -57.380  1.00  0.00     0.012 A 
HETATM   22  C   UNL     1     -38.203  40.181 -58.771  1.00  0.00     0.043 A 
HETATM   23  C   UNL     1     -37.568  41.269 -59.357  1.00  0.00     0.116 A 
HETATM   24  F   UNL     1     -37.526  41.369 -60.692  1.00  0.00    -0.206 F 
HETATM   25  C   UNL     1     -36.970  42.252 -58.577  1.00  0.00     0.043 A 
HETATM   26  C   UNL     1     -37.010  42.148 -57.185  1.00  0.00     0.012 A 
ENDBRANCH  19  20
ENDBRANCH  16  19
ENDBRANCH   2  15
BRANCH   1  27
HETATM   27  C   UNL     1     -34.756  39.426 -51.253  1.00  0.00     0.043 A 
HETATM   28  C   UNL     1     -35.832  40.284 -50.999  1.00  0.00     0.032 A 
HETATM   29  C   UNL     1     -36.625  40.125 -49.853  1.00  0.00     0.039 A 
HETATM   30  C   UNL     1     -36.342  39.112 -48.938  1.00  0.00     0.068 A 
HETATM   31  C   UNL     1     -35.249  38.280 -49.166  1.00  0.00     0.039 A 
HETATM   32  C   UNL     1     -34.463  38.434 -50.310  1.00  0.00     0.032 A 
BRANCH  30  33
HETATM   33  O   UNL     1     -37.029  38.847 -47.788  1.00  0.00    -0.352 OA
BRANCH  33  34
HETATM   34  C   UNL     1     -37.868  37.694 -47.789  1.00  0.00     0.171 C 
HETATM   35  C   UNL     1     -39.267  38.141 -48.181  1.00  0.00     0.034 C 
ENDBRANCH  33  34
ENDBRANCH  30  33
ENDBRANCH   1  27
TORSDOF 7
ENDMDL
