MODEL 1
REMARK VINA RESULT:      -7.4      0.000      0.000
REMARK  5 active torsions:
REMARK  status: ('A' for Active; 'I' for Inactive)
REMARK    1  A    between atoms: C_4  and  N_5 
REMARK       I    between atoms: N_5  and  C_6 
REMARK       I    between atoms: C_6  and  N_7 
REMARK    2  A    between atoms: N_7  and  C_8 
REMARK    3  A    between atoms: C_11  and  O_12 
REMARK    4  A    between atoms: O_12  and  C_13 
REMARK    5  A    between atoms: C_13  and  C_14 
ROOT
HETATM    1  N   UNL     1     -43.741  57.314 -57.726  1.00  0.00    -0.293 N 
HETATM    2  C   UNL     1     -43.176  56.888 -56.555  1.00  0.00     0.326 C 
HETATM    3  N   UNL     1     -43.113  55.537 -56.365  1.00  0.00    -0.309 N 
HETATM    4  O   UNL     1     -42.765  57.753 -55.783  1.00  0.00    -0.247 OA
HETATM    5  H   UNL     1     -43.735  58.320 -57.805  1.00  0.00     0.172 HD
HETATM    6  H   UNL     1     -43.510  54.998 -57.132  1.00  0.00     0.170 HD
ENDROOT
BRANCH   3   7
HETATM    7  C   UNL     1     -42.550  54.825 -55.294  1.00  0.00     0.036 A 
HETATM    8  C   UNL     1     -43.204  54.591 -54.084  1.00  0.00     0.032 A 
HETATM    9  C   UNL     1     -42.566  53.895 -53.048  1.00  0.00     0.039 A 
HETATM   10  C   UNL     1     -41.262  53.433 -53.209  1.00  0.00     0.068 A 
HETATM   11  C   UNL     1     -40.614  53.642 -54.426  1.00  0.00     0.039 A 
HETATM   12  C   UNL     1     -41.252  54.333 -55.461  1.00  0.00     0.032 A 
BRANCH  10  13
HETATM   13  O   UNL     1     -40.525  52.768 -52.268  1.00  0.00    -0.351 OA
BRANCH  13  14
HETATM   14  C   UNL     1     -39.457  51.950 -52.753  1.00  0.00     0.179 C 
BRANCH  14  15
HETATM   15  C   UNL     1     -39.974  50.518 -52.948  1.00  0.00     0.002 C 
HETATM   16  C   UNL     1     -39.465  49.919 -54.262  1.00  0.00     0.011 C 
HETATM   17  C   UNL     1     -39.559  49.638 -51.769  1.00  0.00     0.011 C 
ENDBRANCH  14  15
ENDBRANCH  13  14
ENDBRANCH  10  13
ENDBRANCH   3   7
BRANCH   1  18
HETATM   18  C   UNL     1     -44.287  56.573 -58.776  1.00  0.00     0.131 A 
HETATM   19  C   UNL     1     -45.511  56.994 -59.290  1.00  0.00     0.057 A 
HETATM   20  C   UNL     1     -46.093  56.284 -60.344  1.00  0.00    -0.057 A 
HETATM   21  C   UNL     1     -47.423  56.697 -60.899  1.00  0.00     0.048 C 
HETATM   22  C   UNL     1     -45.436  55.155 -60.827  1.00  0.00     0.026 A 
HETATM   23  C   UNL     1     -44.222  54.806 -60.259  1.00  0.00     0.119 A 
HETATM   24  N   UNL     1     -43.633  55.491 -59.253  1.00  0.00    -0.243 NA
ENDBRANCH   1  18
TORSDOF 5
ENDMDL
MODEL 2
REMARK VINA RESULT:      -7.1      1.685      2.469
REMARK  5 active torsions:
REMARK  status: ('A' for Active; 'I' for Inactive)
REMARK    1  A    between atoms: C_4  and  N_5 
REMARK       I    between atoms: N_5  and  C_6 
REMARK       I    between atoms: C_6  and  N_7 
REMARK    2  A    between atoms: N_7  and  C_8 
REMARK    3  A    between atoms: C_11  and  O_12 
REMARK    4  A    between atoms: O_12  and  C_13 
REMARK    5  A    between atoms: C_13  and  C_14 
ROOT
HETATM    1  N   UNL     1     -43.689  57.316 -57.703  1.00  0.00    -0.293 N 
HETATM    2  C   UNL     1     -43.199  56.954 -56.478  1.00  0.00     0.326 C 
HETATM    3  N   UNL     1     -43.227  55.621 -56.181  1.00  0.00    -0.309 N 
HETATM    4  O   UNL     1     -42.765  57.852 -55.759  1.00  0.00    -0.247 OA
HETATM    5  H   UNL     1     -43.618  58.310 -57.860  1.00  0.00     0.172 HD
HETATM    6  H   UNL     1     -43.626  55.046 -56.920  1.00  0.00     0.170 HD
ENDROOT
BRANCH   3   7
HETATM    7  C   UNL     1     -42.753  54.965 -55.033  1.00  0.00     0.036 A 
HETATM    8  C   UNL     1     -43.510  54.769 -53.878  1.00  0.00     0.032 A 
HETATM    9  C   UNL     1     -42.958  54.130 -52.760  1.00  0.00     0.039 A 
HETATM   10  C   UNL     1     -41.636  53.689 -52.782  1.00  0.00     0.068 A 
HETATM   11  C   UNL     1     -40.885  53.860 -53.944  1.00  0.00     0.039 A 
HETATM   12  C   UNL     1     -41.437  54.494 -55.061  1.00  0.00     0.032 A 
BRANCH  10  13
HETATM   13  O   UNL     1     -40.978  53.079 -51.751  1.00  0.00    -0.351 OA
BRANCH  13  14
HETATM   14  C   UNL     1     -40.191  53.922 -50.906  1.00  0.00     0.179 C 
BRANCH  14  15
HETATM   15  C   UNL     1     -41.033  54.338 -49.691  1.00  0.00     0.002 C 
HETATM   16  C   UNL     1     -40.319  53.999 -48.379  1.00  0.00     0.011 C 
HETATM   17  C   UNL     1     -41.351  55.831 -49.750  1.00  0.00     0.011 C 
ENDBRANCH  14  15
ENDBRANCH  13  14
ENDBRANCH  10  13
ENDBRANCH   3   7
BRANCH   1  18
HETATM   18  C   UNL     1     -44.239  56.527 -58.714  1.00  0.00     0.131 A 
HETATM   19  C   UNL     1     -45.436  56.954 -59.283  1.00  0.00     0.057 A 
HETATM   20  C   UNL     1     -46.020  56.196 -60.303  1.00  0.00    -0.057 A 
HETATM   21  C   UNL     1     -47.323  56.616 -60.914  1.00  0.00     0.048 C 
HETATM   22  C   UNL     1     -45.393  55.016 -60.696  1.00  0.00     0.026 A 
HETATM   23  C   UNL     1     -44.205  54.665 -60.077  1.00  0.00     0.119 A 
HETATM   24  N   UNL     1     -43.613  55.394 -59.105  1.00  0.00    -0.243 NA
ENDBRANCH   1  18
TORSDOF 5
ENDMDL
MODEL 3
REMARK VINA RESULT:      -7.0     14.462     15.845
REMARK  5 active torsions:
REMARK  status: ('A' for Active; 'I' for Inactive)
REMARK    1  A    between atoms: C_4  and  N_5 
REMARK       I    between atoms: N_5  and  C_6 
REMARK       I    between atoms: C_6  and  N_7 
REMARK    2  A    between atoms: N_7  and  C_8 
REMARK    3  A    between atoms: C_11  and  O_12 
REMARK    4  A    between atoms: O_12  and  C_13 
REMARK    5  A    between atoms: C_13  and  C_14 
ROOT
HETATM    1  N   UNL     1     -37.481  40.777 -60.921  1.00  0.00    -0.293 N 
HETATM    2  C   UNL     1     -37.211  41.532 -59.812  1.00  0.00     0.326 C 
HETATM    3  N   UNL     1     -36.930  40.848 -58.664  1.00  0.00    -0.309 N 
HETATM    4  O   UNL     1     -37.232  42.754 -59.946  1.00  0.00    -0.247 OA
HETATM    5  H   UNL     1     -37.659  41.349 -61.734  1.00  0.00     0.172 HD
HETATM    6  H   UNL     1     -36.963  39.836 -58.773  1.00  0.00     0.170 HD
ENDROOT
BRANCH   3   7
HETATM    7  C   UNL     1     -36.573  41.354 -57.404  1.00  0.00     0.036 A 
HETATM    8  C   UNL     1     -35.331  41.919 -57.113  1.00  0.00     0.032 A 
HETATM    9  C   UNL     1     -35.037  42.376 -55.821  1.00  0.00     0.039 A 
HETATM   10  C   UNL     1     -35.981  42.264 -54.803  1.00  0.00     0.068 A 
HETATM   11  C   UNL     1     -37.233  41.724 -55.096  1.00  0.00     0.039 A 
HETATM   12  C   UNL     1     -37.528  41.272 -56.386  1.00  0.00     0.032 A 
BRANCH  10  13
HETATM   13  O   UNL     1     -35.806  42.647 -53.502  1.00  0.00    -0.351 OA
BRANCH  13  14
HETATM   14  C   UNL     1     -36.473  41.864 -52.509  1.00  0.00     0.179 C 
BRANCH  14  15
HETATM   15  C   UNL     1     -35.433  41.028 -51.750  1.00  0.00     0.002 C 
HETATM   16  C   UNL     1     -34.231  41.881 -51.335  1.00  0.00     0.011 C 
HETATM   17  C   UNL     1     -36.068  40.376 -50.523  1.00  0.00     0.011 C 
ENDBRANCH  14  15
ENDBRANCH  13  14
ENDBRANCH  10  13
ENDBRANCH   3   7
BRANCH   1  18
HETATM   18  C   UNL     1     -37.529  39.390 -61.068  1.00  0.00     0.131 A 
HETATM   19  C   UNL     1     -38.786  38.795 -61.140  1.00  0.00     0.057 A 
HETATM   20  C   UNL     1     -38.881  37.409 -61.291  1.00  0.00    -0.057 A 
HETATM   21  C   UNL     1     -40.221  36.738 -61.343  1.00  0.00     0.048 C 
HETATM   22  C   UNL     1     -37.706  36.663 -61.336  1.00  0.00     0.026 A 
HETATM   23  C   UNL     1     -36.497  37.335 -61.257  1.00  0.00     0.119 A 
HETATM   24  N   UNL     1     -36.383  38.676 -61.132  1.00  0.00    -0.243 NA
ENDBRANCH   1  18
TORSDOF 5
ENDMDL
MODEL 4
REMARK VINA RESULT:      -6.9      4.663      6.582
REMARK  5 active torsions:
REMARK  status: ('A' for Active; 'I' for Inactive)
REMARK    1  A    between atoms: C_4  and  N_5 
REMARK       I    between atoms: N_5  and  C_6 
REMARK       I    between atoms: C_6  and  N_7 
REMARK    2  A    between atoms: N_7  and  C_8 
REMARK    3  A    between atoms: C_11  and  O_12 
REMARK    4  A    between atoms: O_12  and  C_13 
REMARK    5  A    between atoms: C_13  and  C_14 
ROOT
HETATM    1  N   UNL     1     -41.926  60.089 -52.250  1.00  0.00    -0.293 N 
HETATM    2  C   UNL     1     -41.223  59.023 -52.740  1.00  0.00     0.326 C 
HETATM    3  N   UNL     1     -41.808  57.796 -52.610  1.00  0.00    -0.309 N 
HETATM    4  O   UNL     1     -40.137  59.260 -53.266  1.00  0.00    -0.247 OA
HETATM    5  H   UNL     1     -41.442  60.962 -52.399  1.00  0.00     0.172 HD
HETATM    6  H   UNL     1     -42.714  57.822 -52.145  1.00  0.00     0.170 HD
ENDROOT
BRANCH   3   7
HETATM    7  C   UNL     1     -41.345  56.548 -53.058  1.00  0.00     0.036 A 
HETATM    8  C   UNL     1     -41.044  56.261 -54.390  1.00  0.00     0.032 A 
HETATM    9  C   UNL     1     -40.615  54.981 -54.767  1.00  0.00     0.039 A 
HETATM   10  C   UNL     1     -40.490  53.971 -53.815  1.00  0.00     0.068 A 
HETATM   11  C   UNL     1     -40.764  54.262 -52.479  1.00  0.00     0.039 A 
HETATM   12  C   UNL     1     -41.189  55.540 -52.102  1.00  0.00     0.032 A 
BRANCH  10  13
HETATM   13  O   UNL     1     -40.107  52.681 -54.060  1.00  0.00    -0.351 OA
BRANCH  13  14
HETATM   14  C   UNL     1     -39.981  51.824 -52.923  1.00  0.00     0.179 C 
BRANCH  14  15
HETATM   15  C   UNL     1     -39.516  50.438 -53.390  1.00  0.00     0.002 C 
HETATM   16  C   UNL     1     -39.553  49.424 -52.243  1.00  0.00     0.011 C 
HETATM   17  C   UNL     1     -40.379  49.953 -54.554  1.00  0.00     0.011 C 
ENDBRANCH  14  15
ENDBRANCH  13  14
ENDBRANCH  10  13
ENDBRANCH   3   7
BRANCH   1  18
HETATM   18  C   UNL     1     -43.166  60.124 -51.611  1.00  0.00     0.131 A 
HETATM   19  C   UNL     1     -43.245  60.804 -50.398  1.00  0.00     0.057 A 
HETATM   20  C   UNL     1     -44.469  60.867 -49.725  1.00  0.00    -0.057 A 
HETATM   21  C   UNL     1     -44.577  61.569 -48.405  1.00  0.00     0.048 C 
HETATM   22  C   UNL     1     -45.568  60.218 -50.283  1.00  0.00     0.026 A 
HETATM   23  C   UNL     1     -45.402  59.564 -51.493  1.00  0.00     0.119 A 
HETATM   24  N   UNL     1     -44.232  59.508 -52.169  1.00  0.00    -0.243 NA
ENDBRANCH   1  18
TORSDOF 5
ENDMDL
MODEL 5
REMARK VINA RESULT:      -6.7      5.754      7.062
REMARK  5 active torsions:
REMARK  status: ('A' for Active; 'I' for Inactive)
REMARK    1  A    between atoms: C_4  and  N_5 
REMARK       I    between atoms: N_5  and  C_6 
REMARK       I    between atoms: C_6  and  N_7 
REMARK    2  A    between atoms: N_7  and  C_8 
REMARK    3  A    between atoms: C_11  and  O_12 
REMARK    4  A    between atoms: O_12  and  C_13 
REMARK    5  A    between atoms: C_13  and  C_14 
ROOT
HETATM    1  N   UNL     1     -41.924  60.083 -50.616  1.00  0.00    -0.293 N 
HETATM    2  C   UNL     1     -41.210  58.916 -50.643  1.00  0.00     0.326 C 
HETATM    3  N   UNL     1     -41.931  57.764 -50.779  1.00  0.00    -0.309 N 
HETATM    4  O   UNL     1     -39.987  59.004 -50.558  1.00  0.00    -0.247 OA
HETATM    5  H   UNL     1     -41.325  60.891 -50.534  1.00  0.00     0.172 HD
HETATM    6  H   UNL     1     -42.937  57.916 -50.836  1.00  0.00     0.170 HD
ENDROOT
BRANCH   3   7
HETATM    7  C   UNL     1     -41.467  56.443 -50.884  1.00  0.00     0.036 A 
HETATM    8  C   UNL     1     -41.029  55.682 -49.801  1.00  0.00     0.032 A 
HETATM    9  C   UNL     1     -40.551  54.378 -49.988  1.00  0.00     0.039 A 
HETATM   10  C   UNL     1     -40.499  53.824 -51.266  1.00  0.00     0.068 A 
HETATM   11  C   UNL     1     -40.961  54.572 -52.348  1.00  0.00     0.039 A 
HETATM   12  C   UNL     1     -41.441  55.872 -52.160  1.00  0.00     0.032 A 
BRANCH  10  13
HETATM   13  O   UNL     1     -40.032  52.578 -51.581  1.00  0.00    -0.351 OA
BRANCH  13  14
HETATM   14  C   UNL     1     -40.162  52.172 -52.945  1.00  0.00     0.179 C 
BRANCH  14  15
HETATM   15  C   UNL     1     -39.466  50.817 -53.133  1.00  0.00     0.002 C 
HETATM   16  C   UNL     1     -39.596  49.947 -51.879  1.00  0.00     0.011 C 
HETATM   17  C   UNL     1     -40.041  50.087 -54.346  1.00  0.00     0.011 C 
ENDBRANCH  14  15
ENDBRANCH  13  14
ENDBRANCH  10  13
ENDBRANCH   3   7
BRANCH   1  18
HETATM   18  C   UNL     1     -43.303  60.289 -50.691  1.00  0.00     0.131 A 
HETATM   19  C   UNL     1     -43.889  61.079 -49.706  1.00  0.00     0.057 A 
HETATM   20  C   UNL     1     -45.266  61.315 -49.745  1.00  0.00    -0.057 A 
HETATM   21  C   UNL     1     -45.929  62.137 -48.681  1.00  0.00     0.048 C 
HETATM   22  C   UNL     1     -46.013  60.723 -50.761  1.00  0.00     0.026 A 
HETATM   23  C   UNL     1     -45.350  59.952 -51.701  1.00  0.00     0.119 A 
HETATM   24  N   UNL     1     -44.017  59.728 -51.693  1.00  0.00    -0.243 NA
ENDBRANCH   1  18
TORSDOF 5
ENDMDL
MODEL 6
REMARK VINA RESULT:      -6.7     14.152     16.557
REMARK  5 active torsions:
REMARK  status: ('A' for Active; 'I' for Inactive)
REMARK    1  A    between atoms: C_4  and  N_5 
REMARK       I    between atoms: N_5  and  C_6 
REMARK       I    between atoms: C_6  and  N_7 
REMARK    2  A    between atoms: N_7  and  C_8 
REMARK    3  A    between atoms: C_11  and  O_12 
REMARK    4  A    between atoms: O_12  and  C_13 
REMARK    5  A    between atoms: C_13  and  C_14 
ROOT
HETATM    1  N   UNL     1     -36.907  42.073 -54.919  1.00  0.00    -0.293 N 
HETATM    2  C   UNL     1     -36.075  41.933 -53.841  1.00  0.00     0.326 C 
HETATM    3  N   UNL     1     -35.110  40.972 -53.937  1.00  0.00    -0.309 N 
HETATM    4  O   UNL     1     -36.258  42.690 -52.889  1.00  0.00    -0.247 OA
HETATM    5  H   UNL     1     -37.579  42.813 -54.784  1.00  0.00     0.172 HD
HETATM    6  H   UNL     1     -35.131  40.457 -54.816  1.00  0.00     0.170 HD
ENDROOT
BRANCH   3   7
HETATM    7  C   UNL     1     -34.101  40.643 -53.018  1.00  0.00     0.036 A 
HETATM    8  C   UNL     1     -32.935  39.954 -53.353  1.00  0.00     0.032 A 
HETATM    9  C   UNL     1     -31.985  39.635 -52.374  1.00  0.00     0.039 A 
HETATM   10  C   UNL     1     -32.195  39.995 -51.044  1.00  0.00     0.068 A 
HETATM   11  C   UNL     1     -33.347  40.706 -50.710  1.00  0.00     0.039 A 
HETATM   12  C   UNL     1     -34.293  41.028 -51.688  1.00  0.00     0.032 A 
BRANCH  10  13
HETATM   13  O   UNL     1     -31.360  39.719 -49.997  1.00  0.00    -0.351 OA
BRANCH  13  14
HETATM   14  C   UNL     1     -31.882  39.948 -48.686  1.00  0.00     0.179 C 
BRANCH  14  15
HETATM   15  C   UNL     1     -32.031  38.601 -47.965  1.00  0.00     0.002 C 
HETATM   16  C   UNL     1     -31.449  38.661 -46.550  1.00  0.00     0.011 C 
HETATM   17  C   UNL     1     -33.500  38.184 -47.916  1.00  0.00     0.011 C 
ENDBRANCH  14  15
ENDBRANCH  13  14
ENDBRANCH  10  13
ENDBRANCH   3   7
BRANCH   1  18
HETATM   18  C   UNL     1     -36.936  41.365 -56.122  1.00  0.00     0.131 A 
HETATM   19  C   UNL     1     -37.082  42.101 -57.295  1.00  0.00     0.057 A 
HETATM   20  C   UNL     1     -37.113  41.434 -58.524  1.00  0.00    -0.057 A 
HETATM   21  C   UNL     1     -37.296  42.197 -59.801  1.00  0.00     0.048 C 
HETATM   22  C   UNL     1     -37.025  40.044 -58.527  1.00  0.00     0.026 A 
HETATM   23  C   UNL     1     -36.882  39.390 -57.314  1.00  0.00     0.119 A 
HETATM   24  N   UNL     1     -36.829  40.018 -56.118  1.00  0.00    -0.243 NA
ENDBRANCH   1  18
TORSDOF 5
ENDMDL
MODEL 7
REMARK VINA RESULT:      -6.7      5.509      7.135
REMARK  5 active torsions:
REMARK  status: ('A' for Active; 'I' for Inactive)
REMARK    1  A    between atoms: C_4  and  N_5 
REMARK       I    between atoms: N_5  and  C_6 
REMARK       I    between atoms: C_6  and  N_7 
REMARK    2  A    between atoms: N_7  and  C_8 
REMARK    3  A    between atoms: C_11  and  O_12 
REMARK    4  A    between atoms: O_12  and  C_13 
REMARK    5  A    between atoms: C_13  and  C_14 
ROOT
HETATM    1  N   UNL     1     -44.909  58.724 -50.620  1.00  0.00    -0.293 N 
HETATM    2  C   UNL     1     -44.371  57.472 -50.734  1.00  0.00     0.326 C 
HETATM    3  N   UNL     1     -43.038  57.405 -51.022  1.00  0.00    -0.309 N 
HETATM    4  O   UNL     1     -45.127  56.518 -50.556  1.00  0.00    -0.247 OA
HETATM    5  H   UNL     1     -45.891  58.695 -50.387  1.00  0.00     0.172 HD
HETATM    6  H   UNL     1     -42.597  58.317 -51.127  1.00  0.00     0.170 HD
ENDROOT
BRANCH   3   7
HETATM    7  C   UNL     1     -42.221  56.270 -51.149  1.00  0.00     0.036 A 
HETATM    8  C   UNL     1     -41.392  55.790 -50.134  1.00  0.00     0.032 A 
HETATM    9  C   UNL     1     -40.580  54.667 -50.344  1.00  0.00     0.039 A 
HETATM   10  C   UNL     1     -40.583  54.016 -51.577  1.00  0.00     0.068 A 
HETATM   11  C   UNL     1     -41.430  54.478 -52.584  1.00  0.00     0.039 A 
HETATM   12  C   UNL     1     -42.242  55.596 -52.373  1.00  0.00     0.032 A 
BRANCH  10  13
HETATM   13  O   UNL     1     -39.821  52.932 -51.913  1.00  0.00    -0.351 OA
BRANCH  13  14
HETATM   14  C   UNL     1     -40.174  52.251 -53.120  1.00  0.00     0.179 C 
BRANCH  14  15
HETATM   15  C   UNL     1     -39.453  50.897 -53.159  1.00  0.00     0.002 C 
HETATM   16  C   UNL     1     -39.595  50.153 -51.828  1.00  0.00     0.011 C 
HETATM   17  C   UNL     1     -39.992  50.041 -54.304  1.00  0.00     0.011 C 
ENDBRANCH  14  15
ENDBRANCH  13  14
ENDBRANCH  10  13
ENDBRANCH   3   7
BRANCH   1  18
HETATM   18  C   UNL     1     -44.304  59.973 -50.766  1.00  0.00     0.131 A 
HETATM   19  C   UNL     1     -44.544  60.923 -49.777  1.00  0.00     0.057 A 
HETATM   20  C   UNL     1     -43.954  62.187 -49.881  1.00  0.00    -0.057 A 
HETATM   21  C   UNL     1     -44.218  63.239 -48.846  1.00  0.00     0.048 C 
HETATM   22  C   UNL     1     -43.164  62.461 -50.995  1.00  0.00     0.026 A 
HETATM   23  C   UNL     1     -42.977  61.459 -51.932  1.00  0.00     0.119 A 
HETATM   24  N   UNL     1     -43.521  60.225 -51.839  1.00  0.00    -0.243 NA
ENDBRANCH   1  18
TORSDOF 5
ENDMDL
MODEL 8
REMARK VINA RESULT:      -6.7     14.783     17.643
REMARK  5 active torsions:
REMARK  status: ('A' for Active; 'I' for Inactive)
REMARK    1  A    between atoms: C_4  and  N_5 
REMARK       I    between atoms: N_5  and  C_6 
REMARK       I    between atoms: C_6  and  N_7 
REMARK    2  A    between atoms: N_7  and  C_8 
REMARK    3  A    between atoms: C_11  and  O_12 
REMARK    4  A    between atoms: O_12  and  C_13 
REMARK    5  A    between atoms: C_13  and  C_14 
ROOT
HETATM    1  N   UNL     1     -35.265  41.621 -51.816  1.00  0.00    -0.293 N 
HETATM    2  C   UNL     1     -36.007  41.782 -52.954  1.00  0.00     0.326 C 
HETATM    3  N   UNL     1     -35.512  41.208 -54.090  1.00  0.00    -0.309 N 
HETATM    4  O   UNL     1     -37.056  42.416 -52.855  1.00  0.00    -0.247 OA
HETATM    5  H   UNL     1     -35.701  42.054 -51.016  1.00  0.00     0.172 HD
HETATM    6  H   UNL     1     -34.627  40.724 -53.951  1.00  0.00     0.170 HD
ENDROOT
BRANCH   3   7
HETATM    7  C   UNL     1     -36.077  41.170 -55.376  1.00  0.00     0.036 A 
HETATM    8  C   UNL     1     -35.721  42.038 -56.409  1.00  0.00     0.032 A 
HETATM    9  C   UNL     1     -36.351  41.959 -57.658  1.00  0.00     0.039 A 
HETATM   10  C   UNL     1     -37.351  41.016 -57.885  1.00  0.00     0.068 A 
HETATM   11  C   UNL     1     -37.691  40.130 -56.863  1.00  0.00     0.039 A 
HETATM   12  C   UNL     1     -37.060  40.206 -55.617  1.00  0.00     0.032 A 
BRANCH  10  13
HETATM   13  O   UNL     1     -38.056  40.857 -59.046  1.00  0.00    -0.351 OA
BRANCH  13  14
HETATM   14  C   UNL     1     -37.298  40.532 -60.214  1.00  0.00     0.179 C 
BRANCH  14  15
HETATM   15  C   UNL     1     -37.612  39.086 -60.626  1.00  0.00     0.002 C 
HETATM   16  C   UNL     1     -38.966  38.633 -60.075  1.00  0.00     0.011 C 
HETATM   17  C   UNL     1     -37.586  38.950 -62.147  1.00  0.00     0.011 C 
ENDBRANCH  14  15
ENDBRANCH  13  14
ENDBRANCH  10  13
ENDBRANCH   3   7
BRANCH   1  18
HETATM   18  C   UNL     1     -34.050  40.960 -51.628  1.00  0.00     0.131 A 
HETATM   19  C   UNL     1     -33.642  40.729 -50.317  1.00  0.00     0.057 A 
HETATM   20  C   UNL     1     -32.433  40.067 -50.081  1.00  0.00    -0.057 A 
HETATM   21  C   UNL     1     -31.954  39.829 -48.681  1.00  0.00     0.048 C 
HETATM   22  C   UNL     1     -31.661  39.684 -51.176  1.00  0.00     0.026 A 
HETATM   23  C   UNL     1     -32.142  39.953 -52.446  1.00  0.00     0.119 A 
HETATM   24  N   UNL     1     -33.317  40.574 -52.695  1.00  0.00    -0.243 NA
ENDBRANCH   1  18
TORSDOF 5
ENDMDL
MODEL 9
REMARK VINA RESULT:      -6.6      5.644      8.944
REMARK  5 active torsions:
REMARK  status: ('A' for Active; 'I' for Inactive)
REMARK    1  A    between atoms: C_4  and  N_5 
REMARK       I    between atoms: N_5  and  C_6 
REMARK       I    between atoms: C_6  and  N_7 
REMARK    2  A    between atoms: N_7  and  C_8 
REMARK    3  A    between atoms: C_11  and  O_12 
REMARK    4  A    between atoms: O_12  and  C_13 
REMARK    5  A    between atoms: C_13  and  C_14 
ROOT
HETATM    1  N   UNL     1     -40.832  54.535 -51.119  1.00  0.00    -0.293 N 
HETATM    2  C   UNL     1     -41.372  55.686 -50.614  1.00  0.00     0.326 C 
HETATM    3  N   UNL     1     -41.834  56.593 -51.524  1.00  0.00    -0.309 N 
HETATM    4  O   UNL     1     -41.408  55.798 -49.390  1.00  0.00    -0.247 OA
HETATM    5  H   UNL     1     -40.531  53.905 -50.390  1.00  0.00     0.172 HD
HETATM    6  H   UNL     1     -41.710  56.300 -52.491  1.00  0.00     0.170 HD
ENDROOT
BRANCH   3   7
HETATM    7  C   UNL     1     -42.473  57.822 -51.295  1.00  0.00     0.036 A 
HETATM    8  C   UNL     1     -41.803  58.997 -50.952  1.00  0.00     0.032 A 
HETATM    9  C   UNL     1     -42.512  60.181 -50.709  1.00  0.00     0.039 A 
HETATM   10  C   UNL     1     -43.903  60.200 -50.798  1.00  0.00     0.068 A 
HETATM   11  C   UNL     1     -44.574  59.034 -51.166  1.00  0.00     0.039 A 
HETATM   12  C   UNL     1     -43.866  57.853 -51.412  1.00  0.00     0.032 A 
BRANCH  10  13
HETATM   13  O   UNL     1     -44.707  61.280 -50.561  1.00  0.00    -0.351 OA
BRANCH  13  14
HETATM   14  C   UNL     1     -45.595  61.183 -49.444  1.00  0.00     0.179 C 
BRANCH  14  15
HETATM   15  C   UNL     1     -44.829  61.544 -48.164  1.00  0.00     0.002 C 
HETATM   16  C   UNL     1     -44.797  63.060 -47.945  1.00  0.00     0.011 C 
HETATM   17  C   UNL     1     -45.455  60.849 -46.956  1.00  0.00     0.011 C 
ENDBRANCH  14  15
ENDBRANCH  13  14
ENDBRANCH  10  13
ENDBRANCH   3   7
BRANCH   1  18
HETATM   18  C   UNL     1     -40.660  54.136 -52.446  1.00  0.00     0.131 A 
HETATM   19  C   UNL     1     -40.492  52.776 -52.691  1.00  0.00     0.057 A 
HETATM   20  C   UNL     1     -40.321  52.331 -54.005  1.00  0.00    -0.057 A 
HETATM   21  C   UNL     1     -40.110  50.875 -54.296  1.00  0.00     0.048 C 
HETATM   22  C   UNL     1     -40.297  53.276 -55.028  1.00  0.00     0.026 A 
HETATM   23  C   UNL     1     -40.472  54.609 -54.697  1.00  0.00     0.119 A 
HETATM   24  N   UNL     1     -40.659  55.057 -53.435  1.00  0.00    -0.243 NA
ENDBRANCH   1  18
TORSDOF 5
ENDMDL
MODEL 10
REMARK VINA RESULT:      -6.4      6.042      7.954
REMARK  5 active torsions:
REMARK  status: ('A' for Active; 'I' for Inactive)
REMARK    1  A    between atoms: C_4  and  N_5 
REMARK       I    between atoms: N_5  and  C_6 
REMARK       I    between atoms: C_6  and  N_7 
REMARK    2  A    between atoms: N_7  and  C_8 
REMARK    3  A    between atoms: C_11  and  O_12 
REMARK    4  A    between atoms: O_12  and  C_13 
REMARK    5  A    between atoms: C_13  and  C_14 
ROOT
HETATM    1  N   UNL     1     -45.366  60.355 -51.406  1.00  0.00    -0.293 N 
HETATM    2  C   UNL     1     -44.859  59.176 -51.879  1.00  0.00     0.326 C 
HETATM    3  N   UNL     1     -44.123  58.433 -51.000  1.00  0.00    -0.309 N 
HETATM    4  O   UNL     1     -45.119  58.881 -53.044  1.00  0.00    -0.247 OA
HETATM    5  H   UNL     1     -45.914  60.838 -52.102  1.00  0.00     0.172 HD
HETATM    6  H   UNL     1     -44.032  58.860 -50.080  1.00  0.00     0.170 HD
ENDROOT
BRANCH   3   7
HETATM    7  C   UNL     1     -43.530  57.175 -51.193  1.00  0.00     0.036 A 
HETATM    8  C   UNL     1     -44.078  55.976 -50.737  1.00  0.00     0.032 A 
HETATM    9  C   UNL     1     -43.412  54.760 -50.941  1.00  0.00     0.039 A 
HETATM   10  C   UNL     1     -42.183  54.732 -51.598  1.00  0.00     0.068 A 
HETATM   11  C   UNL     1     -41.644  55.925 -52.078  1.00  0.00     0.039 A 
HETATM   12  C   UNL     1     -42.311  57.138 -51.878  1.00  0.00     0.032 A 
BRANCH  10  13
HETATM   13  O   UNL     1     -41.425  53.619 -51.834  1.00  0.00    -0.351 OA
BRANCH  13  14
HETATM   14  C   UNL     1     -41.275  53.225 -53.201  1.00  0.00     0.179 C 
BRANCH  14  15
HETATM   15  C   UNL     1     -40.020  52.352 -53.335  1.00  0.00     0.002 C 
HETATM   16  C   UNL     1     -39.571  51.812 -51.974  1.00  0.00     0.011 C 
HETATM   17  C   UNL     1     -40.275  51.200 -54.304  1.00  0.00     0.011 C 
ENDBRANCH  14  15
ENDBRANCH  13  14
ENDBRANCH  10  13
ENDBRANCH   3   7
BRANCH   1  18
HETATM   18  C   UNL     1     -45.238  60.941 -50.145  1.00  0.00     0.131 A 
HETATM   19  C   UNL     1     -44.633  62.193 -50.077  1.00  0.00     0.057 A 
HETATM   20  C   UNL     1     -44.488  62.819 -48.835  1.00  0.00    -0.057 A 
HETATM   21  C   UNL     1     -43.815  64.154 -48.729  1.00  0.00     0.048 C 
HETATM   22  C   UNL     1     -44.932  62.148 -47.698  1.00  0.00     0.026 A 
HETATM   23  C   UNL     1     -45.522  60.905 -47.855  1.00  0.00     0.119 A 
HETATM   24  N   UNL     1     -45.691  60.293 -49.049  1.00  0.00    -0.243 NA
ENDBRANCH   1  18
TORSDOF 5
ENDMDL
