MODEL 1
REMARK VINA RESULT:     -10.2      0.000      0.000
REMARK  5 active torsions:
REMARK  status: ('A' for Active; 'I' for Inactive)
REMARK    1  A    between atoms: C_2  and  O_5 
REMARK    2  A    between atoms: O_5  and  C_6 
REMARK    3  A    between atoms: C_10  and  C_12 
REMARK    4  A    between atoms: C_16  and  C_17 
REMARK       I    between atoms: C_17  and  N_19 
REMARK    5  A    between atoms: N_19  and  C_20 
ROOT
HETATM    1  C   UNL     1     -42.540  54.975 -51.978  1.00  0.00     0.061 C 
HETATM    2  C   UNL     1     -43.620  54.963 -50.896  1.00  0.00     0.279 C 
HETATM    3  N   UNL     1     -44.241  56.283 -51.054  1.00  0.00     0.085 N 
HETATM    4  C   UNL     1     -43.118  57.214 -51.189  1.00  0.00     0.284 C 
HETATM    5  C   UNL     1     -42.041  56.432 -51.945  1.00  0.00     0.116 C 
HETATM    6  H   UNL     1     -44.803  56.511 -50.232  1.00  0.00     0.315 HD
ENDROOT
BRANCH   5   7
HETATM    7  C   UNL     1     -41.776  56.944 -53.352  1.00  0.00     0.228 C 
HETATM    8  O   UNL     1     -40.681  57.430 -53.624  1.00  0.00    -0.273 OA
HETATM    9  N   UNL     1     -42.815  56.768 -54.244  1.00  0.00    -0.325 N 
HETATM   10  H   UNL     1     -43.735  56.553 -53.862  1.00  0.00     0.169 HD
BRANCH   9  11
HETATM   11  C   UNL     1     -42.771  56.969 -55.645  1.00  0.00     0.057 A 
HETATM   12  C   UNL     1     -42.544  58.231 -56.212  1.00  0.00     0.043 A 
HETATM   13  C   UNL     1     -42.461  58.386 -57.600  1.00  0.00    -0.017 A 
HETATM   14  C   UNL     1     -42.185  59.696 -58.195  1.00  0.00     0.029 A 
HETATM   15  C   UNL     1     -42.625  57.267 -58.429  1.00  0.00     0.044 A 
HETATM   16  C   UNL     1     -42.103  59.809 -59.525  1.00  0.00     0.092 A 
HETATM   17  N   UNL     1     -42.278  58.725 -60.344  1.00  0.00    -0.333 N 
HETATM   18  C   UNL     1     -42.541  57.446 -59.901  1.00  0.00     0.256 A 
HETATM   19  H   UNL     1     -42.218  58.834 -61.351  1.00  0.00     0.168 HD
HETATM   20  O   UNL     1     -42.691  56.506 -60.673  1.00  0.00    -0.267 OA
HETATM   21  C   UNL     1     -42.850  56.001 -57.884  1.00  0.00     0.044 A 
HETATM   22  C   UNL     1     -42.907  55.856 -56.498  1.00  0.00     0.061 A 
HETATM   23 CL   UNL     1     -43.175  54.272 -55.852  1.00  0.00    -0.082 Cl
ENDBRANCH   9  11
ENDBRANCH   5   7
BRANCH   1  24
HETATM   24  C   UNL     1     -41.529  53.853 -51.828  1.00  0.00    -0.049 A 
HETATM   25  C   UNL     1     -41.183  53.444 -50.528  1.00  0.00     0.007 A 
HETATM   26  C   UNL     1     -40.278  52.404 -50.320  1.00  0.00     0.003 A 
HETATM   27  C   UNL     1     -39.706  51.755 -51.410  1.00  0.00     0.037 A 
HETATM   28  C   UNL     1     -40.028  52.139 -52.712  1.00  0.00     0.078 A 
HETATM   29  C   UNL     1     -40.925  53.196 -52.914  1.00  0.00     0.044 A 
BRANCH  28  30
HETATM   30  O   UNL     1     -39.400  51.413 -53.684  1.00  0.00    -0.255 OA
BRANCH  30  31
HETATM   31  C   UNL     1     -40.031  50.228 -54.139  1.00  0.00     0.530 C 
HETATM   32  F   UNL     1     -40.055  49.282 -53.176  1.00  0.00    -0.144 F 
HETATM   33  F   UNL     1     -39.331  49.740 -55.188  1.00  0.00    -0.144 F 
HETATM   34  F   UNL     1     -41.290  50.480 -54.558  1.00  0.00    -0.144 F 
ENDBRANCH  30  31
ENDBRANCH  28  30
ENDBRANCH   1  24
TORSDOF 5
ENDMDL
MODEL 2
REMARK VINA RESULT:     -10.1      3.264      7.511
REMARK  5 active torsions:
REMARK  status: ('A' for Active; 'I' for Inactive)
REMARK    1  A    between atoms: C_2  and  O_5 
REMARK    2  A    between atoms: O_5  and  C_6 
REMARK    3  A    between atoms: C_10  and  C_12 
REMARK    4  A    between atoms: C_16  and  C_17 
REMARK       I    between atoms: C_17  and  N_19 
REMARK    5  A    between atoms: N_19  and  C_20 
ROOT
HETATM    1  C   UNL     1     -41.841  57.825 -53.650  1.00  0.00     0.061 C 
HETATM    2  C   UNL     1     -41.228  59.187 -53.324  1.00  0.00     0.279 C 
HETATM    3  N   UNL     1     -40.652  58.965 -51.993  1.00  0.00     0.085 N 
HETATM    4  C   UNL     1     -41.690  58.247 -51.248  1.00  0.00     0.284 C 
HETATM    5  C   UNL     1     -42.382  57.360 -52.284  1.00  0.00     0.116 C 
HETATM    6  H   UNL     1     -40.437  59.858 -51.545  1.00  0.00     0.315 HD
ENDROOT
BRANCH   5   7
HETATM    7  C   UNL     1     -42.141  55.871 -52.087  1.00  0.00     0.228 C 
HETATM    8  O   UNL     1     -42.959  55.202 -51.461  1.00  0.00    -0.273 OA
HETATM    9  N   UNL     1     -41.001  55.379 -52.690  1.00  0.00    -0.325 N 
HETATM   10  H   UNL     1     -40.299  56.051 -52.994  1.00  0.00     0.169 HD
BRANCH   9  11
HETATM   11  C   UNL     1     -40.639  54.017 -52.831  1.00  0.00     0.057 A 
HETATM   12  C   UNL     1     -40.367  53.197 -51.727  1.00  0.00     0.043 A 
HETATM   13  C   UNL     1     -40.058  51.844 -51.901  1.00  0.00    -0.017 A 
HETATM   14  C   UNL     1     -39.812  50.975 -50.748  1.00  0.00     0.029 A 
HETATM   15  C   UNL     1     -40.002  51.311 -53.197  1.00  0.00     0.044 A 
HETATM   16  C   UNL     1     -39.527  49.684 -50.947  1.00  0.00     0.092 A 
HETATM   17  N   UNL     1     -39.455  49.157 -52.210  1.00  0.00    -0.333 N 
HETATM   18  C   UNL     1     -39.667  49.874 -53.368  1.00  0.00     0.256 A 
HETATM   19  H   UNL     1     -39.231  48.176 -52.339  1.00  0.00     0.168 HD
HETATM   20  O   UNL     1     -39.590  49.359 -54.478  1.00  0.00    -0.267 OA
HETATM   21  C   UNL     1     -40.272  52.111 -54.310  1.00  0.00     0.044 A 
HETATM   22  C   UNL     1     -40.603  53.452 -54.121  1.00  0.00     0.061 A 
HETATM   23 CL   UNL     1     -40.943  54.414 -55.520  1.00  0.00    -0.082 Cl
ENDBRANCH   9  11
ENDBRANCH   5   7
BRANCH   1  24
HETATM   24  C   UNL     1     -42.786  57.862 -54.837  1.00  0.00    -0.049 A 
HETATM   25  C   UNL     1     -44.108  58.286 -54.617  1.00  0.00     0.007 A 
HETATM   26  C   UNL     1     -45.021  58.365 -55.667  1.00  0.00     0.003 A 
HETATM   27  C   UNL     1     -44.625  58.021 -56.956  1.00  0.00     0.037 A 
HETATM   28  C   UNL     1     -43.320  57.593 -57.206  1.00  0.00     0.078 A 
HETATM   29  C   UNL     1     -42.413  57.500 -56.143  1.00  0.00     0.044 A 
BRANCH  28  30
HETATM   30  O   UNL     1     -43.067  57.295 -58.516  1.00  0.00    -0.255 OA
BRANCH  30  31
HETATM   31  C   UNL     1     -43.358  55.983 -58.965  1.00  0.00     0.530 C 
HETATM   32  F   UNL     1     -43.327  55.096 -57.948  1.00  0.00    -0.144 F 
HETATM   33  F   UNL     1     -42.421  55.617 -59.868  1.00  0.00    -0.144 F 
HETATM   34  F   UNL     1     -44.564  55.934 -59.571  1.00  0.00    -0.144 F 
ENDBRANCH  30  31
ENDBRANCH  28  30
ENDBRANCH   1  24
TORSDOF 5
ENDMDL
MODEL 3
REMARK VINA RESULT:     -10.0      1.763      2.326
REMARK  5 active torsions:
REMARK  status: ('A' for Active; 'I' for Inactive)
REMARK    1  A    between atoms: C_2  and  O_5 
REMARK    2  A    between atoms: O_5  and  C_6 
REMARK    3  A    between atoms: C_10  and  C_12 
REMARK    4  A    between atoms: C_16  and  C_17 
REMARK       I    between atoms: C_17  and  N_19 
REMARK    5  A    between atoms: N_19  and  C_20 
ROOT
HETATM    1  C   UNL     1     -41.886  55.309 -51.683  1.00  0.00     0.061 C 
HETATM    2  C   UNL     1     -41.788  56.077 -50.365  1.00  0.00     0.279 C 
HETATM    3  N   UNL     1     -42.288  57.406 -50.733  1.00  0.00     0.085 N 
HETATM    4  C   UNL     1     -41.628  57.718 -52.003  1.00  0.00     0.284 C 
HETATM    5  C   UNL     1     -41.501  56.376 -52.727  1.00  0.00     0.116 C 
HETATM    6  H   UNL     1     -42.037  58.091 -50.018  1.00  0.00     0.315 HD
ENDROOT
BRANCH   5   7
HETATM    7  C   UNL     1     -42.372  56.254 -53.967  1.00  0.00     0.228 C 
HETATM    8  O   UNL     1     -43.544  55.901 -53.854  1.00  0.00    -0.273 OA
HETATM    9  N   UNL     1     -41.757  56.608 -55.151  1.00  0.00    -0.325 N 
HETATM   10  H   UNL     1     -40.740  56.678 -55.153  1.00  0.00     0.169 HD
BRANCH   9  11
HETATM   11  C   UNL     1     -42.379  56.775 -56.412  1.00  0.00     0.057 A 
HETATM   12  C   UNL     1     -42.831  55.687 -57.173  1.00  0.00     0.043 A 
HETATM   13  C   UNL     1     -43.484  55.891 -58.393  1.00  0.00    -0.017 A 
HETATM   14  C   UNL     1     -43.991  54.758 -59.171  1.00  0.00     0.029 A 
HETATM   15  C   UNL     1     -43.669  57.197 -58.866  1.00  0.00     0.044 A 
HETATM   16  C   UNL     1     -44.619  54.987 -60.331  1.00  0.00     0.092 A 
HETATM   17  N   UNL     1     -44.791  56.259 -60.808  1.00  0.00    -0.333 N 
HETATM   18  C   UNL     1     -44.358  57.400 -60.166  1.00  0.00     0.256 A 
HETATM   19  H   UNL     1     -45.264  56.410 -61.693  1.00  0.00     0.168 HD
HETATM   20  O   UNL     1     -44.534  58.519 -60.633  1.00  0.00    -0.267 OA
HETATM   21  C   UNL     1     -43.228  58.295 -58.122  1.00  0.00     0.044 A 
HETATM   22  C   UNL     1     -42.601  58.079 -56.895  1.00  0.00     0.061 A 
HETATM   23 CL   UNL     1     -42.077  59.460 -55.992  1.00  0.00    -0.082 Cl
ENDBRANCH   9  11
ENDBRANCH   5   7
BRANCH   1  24
HETATM   24  C   UNL     1     -41.130  53.994 -51.668  1.00  0.00    -0.049 A 
HETATM   25  C   UNL     1     -40.952  53.346 -50.434  1.00  0.00     0.007 A 
HETATM   26  C   UNL     1     -40.287  52.123 -50.353  1.00  0.00     0.003 A 
HETATM   27  C   UNL     1     -39.789  51.529 -51.509  1.00  0.00     0.037 A 
HETATM   28  C   UNL     1     -39.947  52.148 -52.749  1.00  0.00     0.078 A 
HETATM   29  C   UNL     1     -40.601  53.385 -52.820  1.00  0.00     0.044 A 
BRANCH  28  30
HETATM   30  O   UNL     1     -39.416  51.451 -53.798  1.00  0.00    -0.255 OA
BRANCH  30  31
HETATM   31  C   UNL     1     -40.092  50.282 -54.227  1.00  0.00     0.530 C 
HETATM   32  F   UNL     1     -40.098  49.335 -53.265  1.00  0.00    -0.144 F 
HETATM   33  F   UNL     1     -39.450  49.780 -55.305  1.00  0.00    -0.144 F 
HETATM   34  F   UNL     1     -41.363  50.563 -54.592  1.00  0.00    -0.144 F 
ENDBRANCH  30  31
ENDBRANCH  28  30
ENDBRANCH   1  24
TORSDOF 5
ENDMDL
MODEL 4
REMARK VINA RESULT:      -9.4      1.693      2.206
REMARK  5 active torsions:
REMARK  status: ('A' for Active; 'I' for Inactive)
REMARK    1  A    between atoms: C_2  and  O_5 
REMARK    2  A    between atoms: O_5  and  C_6 
REMARK    3  A    between atoms: C_10  and  C_12 
REMARK    4  A    between atoms: C_16  and  C_17 
REMARK       I    between atoms: C_17  and  N_19 
REMARK    5  A    between atoms: N_19  and  C_20 
ROOT
HETATM    1  C   UNL     1     -43.077  54.614 -51.893  1.00  0.00     0.061 C 
HETATM    2  C   UNL     1     -43.757  54.478 -50.531  1.00  0.00     0.279 C 
HETATM    3  N   UNL     1     -44.722  55.583 -50.546  1.00  0.00     0.085 N 
HETATM    4  C   UNL     1     -43.973  56.730 -51.063  1.00  0.00     0.284 C 
HETATM    5  C   UNL     1     -42.994  56.142 -52.080  1.00  0.00     0.116 C 
HETATM    6  H   UNL     1     -45.064  55.769 -49.601  1.00  0.00     0.315 HD
ENDROOT
BRANCH   5   7
HETATM    7  C   UNL     1     -43.290  56.525 -53.521  1.00  0.00     0.228 C 
HETATM    8  O   UNL     1     -44.442  56.459 -53.942  1.00  0.00    -0.273 OA
HETATM    9  N   UNL     1     -42.201  56.973 -54.243  1.00  0.00    -0.325 N 
HETATM   10  H   UNL     1     -41.274  56.786 -53.865  1.00  0.00     0.169 HD
BRANCH   9  11
HETATM   11  C   UNL     1     -42.225  57.570 -55.526  1.00  0.00     0.057 A 
HETATM   12  C   UNL     1     -42.448  56.827 -56.693  1.00  0.00     0.043 A 
HETATM   13  C   UNL     1     -42.511  57.456 -57.941  1.00  0.00    -0.017 A 
HETATM   14  C   UNL     1     -42.783  56.687 -59.158  1.00  0.00     0.029 A 
HETATM   15  C   UNL     1     -42.329  58.844 -58.022  1.00  0.00     0.044 A 
HETATM   16  C   UNL     1     -42.845  57.321 -60.334  1.00  0.00     0.092 A 
HETATM   17  N   UNL     1     -42.654  58.674 -60.426  1.00  0.00    -0.333 N 
HETATM   18  C   UNL     1     -42.392  59.500 -59.353  1.00  0.00     0.256 A 
HETATM   19  H   UNL     1     -42.699  59.133 -61.329  1.00  0.00     0.168 HD
HETATM   20  O   UNL     1     -42.226  60.707 -59.485  1.00  0.00    -0.267 OA
HETATM   21  C   UNL     1     -42.107  59.604 -56.871  1.00  0.00     0.044 A 
HETATM   22  C   UNL     1     -42.071  58.967 -55.631  1.00  0.00     0.061 A 
HETATM   23 CL   UNL     1     -41.807  59.937 -54.222  1.00  0.00    -0.082 Cl
ENDBRANCH   9  11
ENDBRANCH   5   7
BRANCH   1  24
HETATM   24  C   UNL     1     -41.807  53.793 -52.014  1.00  0.00    -0.049 A 
HETATM   25  C   UNL     1     -40.946  53.738 -50.904  1.00  0.00     0.007 A 
HETATM   26  C   UNL     1     -39.774  52.984 -50.940  1.00  0.00     0.003 A 
HETATM   27  C   UNL     1     -39.446  52.269 -52.089  1.00  0.00     0.037 A 
HETATM   28  C   UNL     1     -40.280  52.304 -53.208  1.00  0.00     0.078 A 
HETATM   29  C   UNL     1     -41.446  53.079 -53.170  1.00  0.00     0.044 A 
BRANCH  28  30
HETATM   30  O   UNL     1     -39.840  51.552 -54.260  1.00  0.00    -0.255 OA
BRANCH  30  31
HETATM   31  C   UNL     1     -40.296  50.214 -54.355  1.00  0.00     0.530 C 
HETATM   32  F   UNL     1     -41.594  50.160 -54.721  1.00  0.00    -0.144 F 
HETATM   33  F   UNL     1     -40.177  49.629 -53.143  1.00  0.00    -0.144 F 
HETATM   34  F   UNL     1     -39.549  49.509 -55.234  1.00  0.00    -0.144 F 
ENDBRANCH  30  31
ENDBRANCH  28  30
ENDBRANCH   1  24
TORSDOF 5
ENDMDL
MODEL 5
REMARK VINA RESULT:      -9.3      3.369      7.807
REMARK  5 active torsions:
REMARK  status: ('A' for Active; 'I' for Inactive)
REMARK    1  A    between atoms: C_2  and  O_5 
REMARK    2  A    between atoms: O_5  and  C_6 
REMARK    3  A    between atoms: C_10  and  C_12 
REMARK    4  A    between atoms: C_16  and  C_17 
REMARK       I    between atoms: C_17  and  N_19 
REMARK    5  A    between atoms: N_19  and  C_20 
ROOT
HETATM    1  C   UNL     1     -42.296  58.701 -56.187  1.00  0.00     0.061 C 
HETATM    2  C   UNL     1     -42.033  60.195 -56.008  1.00  0.00     0.279 C 
HETATM    3  N   UNL     1     -42.287  60.392 -54.576  1.00  0.00     0.085 N 
HETATM    4  C   UNL     1     -43.529  59.663 -54.309  1.00  0.00     0.284 C 
HETATM    5  C   UNL     1     -43.484  58.448 -55.238  1.00  0.00     0.116 C 
HETATM    6  H   UNL     1     -42.399  61.387 -54.369  1.00  0.00     0.315 HD
ENDROOT
BRANCH   5   7
HETATM    7  C   UNL     1     -43.325  57.119 -54.516  1.00  0.00     0.228 C 
HETATM    8  O   UNL     1     -44.235  56.295 -54.553  1.00  0.00    -0.273 OA
HETATM    9  N   UNL     1     -42.106  56.934 -53.895  1.00  0.00    -0.325 N 
HETATM   10  H   UNL     1     -41.519  57.754 -53.750  1.00  0.00     0.169 HD
BRANCH   9  11
HETATM   11  C   UNL     1     -41.621  55.732 -53.325  1.00  0.00     0.057 A 
HETATM   12  C   UNL     1     -41.150  54.669 -54.108  1.00  0.00     0.043 A 
HETATM   13  C   UNL     1     -40.634  53.514 -53.511  1.00  0.00    -0.017 A 
HETATM   14  C   UNL     1     -40.106  52.418 -54.326  1.00  0.00     0.029 A 
HETATM   15  C   UNL     1     -40.607  53.416 -52.113  1.00  0.00     0.044 A 
HETATM   16  C   UNL     1     -39.611  51.331 -53.724  1.00  0.00     0.092 A 
HETATM   17  N   UNL     1     -39.594  51.219 -52.359  1.00  0.00    -0.333 N 
HETATM   18  C   UNL     1     -40.062  52.182 -51.490  1.00  0.00     0.256 A 
HETATM   19  H   UNL     1     -39.221  50.382 -51.922  1.00  0.00     0.168 HD
HETATM   20  O   UNL     1     -40.027  52.036 -50.274  1.00  0.00    -0.267 OA
HETATM   21  C   UNL     1     -41.069  54.464 -51.313  1.00  0.00     0.044 A 
HETATM   22  C   UNL     1     -41.558  55.620 -51.922  1.00  0.00     0.061 A 
HETATM   23 CL   UNL     1     -42.112  56.907 -50.904  1.00  0.00    -0.082 Cl
ENDBRANCH   9  11
ENDBRANCH   5   7
BRANCH   1  24
HETATM   24  C   UNL     1     -42.421  58.284 -57.641  1.00  0.00    -0.049 A 
HETATM   25  C   UNL     1     -42.221  59.263 -58.629  1.00  0.00     0.007 A 
HETATM   26  C   UNL     1     -42.298  58.943 -59.984  1.00  0.00     0.003 A 
HETATM   27  C   UNL     1     -42.575  57.635 -60.371  1.00  0.00     0.037 A 
HETATM   28  C   UNL     1     -42.781  56.641 -59.414  1.00  0.00     0.078 A 
HETATM   29  C   UNL     1     -42.719  56.974 -58.055  1.00  0.00     0.044 A 
BRANCH  28  30
HETATM   30  O   UNL     1     -43.037  55.404 -59.934  1.00  0.00    -0.255 OA
BRANCH  30  31
HETATM   31  C   UNL     1     -44.391  55.013 -60.080  1.00  0.00     0.530 C 
HETATM   32  F   UNL     1     -45.231  55.973 -59.640  1.00  0.00    -0.144 F 
HETATM   33  F   UNL     1     -44.603  53.900 -59.343  1.00  0.00    -0.144 F 
HETATM   34  F   UNL     1     -44.674  54.720 -61.369  1.00  0.00    -0.144 F 
ENDBRANCH  30  31
ENDBRANCH  28  30
ENDBRANCH   1  24
TORSDOF 5
ENDMDL
MODEL 6
REMARK VINA RESULT:      -9.2      4.216      8.173
REMARK  5 active torsions:
REMARK  status: ('A' for Active; 'I' for Inactive)
REMARK    1  A    between atoms: C_2  and  O_5 
REMARK    2  A    between atoms: O_5  and  C_6 
REMARK    3  A    between atoms: C_10  and  C_12 
REMARK    4  A    between atoms: C_16  and  C_17 
REMARK       I    between atoms: C_17  and  N_19 
REMARK    5  A    between atoms: N_19  and  C_20 
ROOT
HETATM    1  C   UNL     1     -42.058  57.767 -54.402  1.00  0.00     0.061 C 
HETATM    2  C   UNL     1     -41.569  59.210 -54.284  1.00  0.00     0.279 C 
HETATM    3  N   UNL     1     -41.239  59.318 -52.858  1.00  0.00     0.085 N 
HETATM    4  C   UNL     1     -42.367  58.693 -52.163  1.00  0.00     0.284 C 
HETATM    5  C   UNL     1     -42.822  57.557 -53.080  1.00  0.00     0.116 C 
HETATM    6  H   UNL     1     -41.146  60.299 -52.589  1.00  0.00     0.315 HD
ENDROOT
BRANCH   5   7
HETATM    7  C   UNL     1     -42.562  56.166 -52.522  1.00  0.00     0.228 C 
HETATM    8  O   UNL     1     -43.444  55.593 -51.888  1.00  0.00    -0.273 OA
HETATM    9  N   UNL     1     -41.325  55.635 -52.827  1.00  0.00    -0.325 N 
HETATM   10  H   UNL     1     -40.607  56.273 -53.169  1.00  0.00     0.169 HD
BRANCH   9  11
HETATM   11  C   UNL     1     -40.897  54.303 -52.607  1.00  0.00     0.057 A 
HETATM   12  C   UNL     1     -40.840  53.356 -53.638  1.00  0.00     0.043 A 
HETATM   13  C   UNL     1     -40.368  52.062 -53.394  1.00  0.00    -0.017 A 
HETATM   14  C   UNL     1     -40.270  51.081 -54.478  1.00  0.00     0.029 A 
HETATM   15  C   UNL     1     -39.968  51.708 -52.098  1.00  0.00     0.044 A 
HETATM   16  C   UNL     1     -39.807  49.854 -54.213  1.00  0.00     0.092 A 
HETATM   17  N   UNL     1     -39.428  49.494 -52.948  1.00  0.00    -0.333 N 
HETATM   18  C   UNL     1     -39.475  50.328 -51.851  1.00  0.00     0.256 A 
HETATM   19  H   UNL     1     -39.086  48.556 -52.767  1.00  0.00     0.168 HD
HETATM   20  O   UNL     1     -39.125  49.960 -50.735  1.00  0.00    -0.267 OA
HETATM   21  C   UNL     1     -40.015  52.637 -51.057  1.00  0.00     0.044 A 
HETATM   22  C   UNL     1     -40.464  53.931 -51.319  1.00  0.00     0.061 A 
HETATM   23 CL   UNL     1     -40.500  55.064 -50.010  1.00  0.00    -0.082 Cl
ENDBRANCH   9  11
ENDBRANCH   5   7
BRANCH   1  24
HETATM   24  C   UNL     1     -42.770  57.480 -55.711  1.00  0.00    -0.049 A 
HETATM   25  C   UNL     1     -42.378  56.346 -56.443  1.00  0.00     0.007 A 
HETATM   26  C   UNL     1     -43.006  56.012 -57.642  1.00  0.00     0.003 A 
HETATM   27  C   UNL     1     -44.039  56.808 -58.127  1.00  0.00     0.037 A 
HETATM   28  C   UNL     1     -44.450  57.942 -57.425  1.00  0.00     0.078 A 
HETATM   29  C   UNL     1     -43.803  58.281 -56.230  1.00  0.00     0.044 A 
BRANCH  28  30
HETATM   30  O   UNL     1     -45.478  58.625 -58.011  1.00  0.00    -0.255 OA
BRANCH  30  31
HETATM   31  C   UNL     1     -46.799  58.182 -57.758  1.00  0.00     0.530 C 
HETATM   32  F   UNL     1     -47.687  59.194 -57.863  1.00  0.00    -0.144 F 
HETATM   33  F   UNL     1     -46.861  57.700 -56.497  1.00  0.00    -0.144 F 
HETATM   34  F   UNL     1     -47.147  57.186 -58.603  1.00  0.00    -0.144 F 
ENDBRANCH  30  31
ENDBRANCH  28  30
ENDBRANCH   1  24
TORSDOF 5
ENDMDL
MODEL 7
REMARK VINA RESULT:      -9.1      1.758      2.031
REMARK  5 active torsions:
REMARK  status: ('A' for Active; 'I' for Inactive)
REMARK    1  A    between atoms: C_2  and  O_5 
REMARK    2  A    between atoms: O_5  and  C_6 
REMARK    3  A    between atoms: C_10  and  C_12 
REMARK    4  A    between atoms: C_16  and  C_17 
REMARK       I    between atoms: C_17  and  N_19 
REMARK    5  A    between atoms: N_19  and  C_20 
ROOT
HETATM    1  C   UNL     1     -41.631  56.866 -51.371  1.00  0.00     0.061 C 
HETATM    2  C   UNL     1     -41.313  57.771 -50.182  1.00  0.00     0.279 C 
HETATM    3  N   UNL     1     -41.635  59.104 -50.704  1.00  0.00     0.085 N 
HETATM    4  C   UNL     1     -41.039  59.139 -52.041  1.00  0.00     0.284 C 
HETATM    5  C   UNL     1     -41.174  57.712 -52.576  1.00  0.00     0.116 C 
HETATM    6  H   UNL     1     -41.228  59.827 -50.107  1.00  0.00     0.315 HD
ENDROOT
BRANCH   5   7
HETATM    7  C   UNL     1     -42.149  57.572 -53.734  1.00  0.00     0.228 C 
HETATM    8  O   UNL     1     -43.232  58.152 -53.688  1.00  0.00    -0.273 OA
HETATM    9  N   UNL     1     -41.695  56.813 -54.793  1.00  0.00    -0.325 N 
HETATM   10  H   UNL     1     -40.885  56.216 -54.634  1.00  0.00     0.169 HD
BRANCH   9  11
HETATM   11  C   UNL     1     -42.306  56.680 -56.063  1.00  0.00     0.057 A 
HETATM   12  C   UNL     1     -42.390  57.748 -56.968  1.00  0.00     0.043 A 
HETATM   13  C   UNL     1     -42.959  57.569 -58.233  1.00  0.00    -0.017 A 
HETATM   14  C   UNL     1     -43.014  58.673 -59.195  1.00  0.00     0.029 A 
HETATM   15  C   UNL     1     -43.466  56.312 -58.589  1.00  0.00     0.044 A 
HETATM   16  C   UNL     1     -43.557  58.468 -60.400  1.00  0.00     0.092 A 
HETATM   17  N   UNL     1     -44.068  57.247 -60.751  1.00  0.00    -0.333 N 
HETATM   18  C   UNL     1     -44.073  56.137 -59.934  1.00  0.00     0.256 A 
HETATM   19  H   UNL     1     -44.482  57.114 -61.669  1.00  0.00     0.168 HD
HETATM   20  O   UNL     1     -44.544  55.064 -60.292  1.00  0.00    -0.267 OA
HETATM   21  C   UNL     1     -43.390  55.234 -57.704  1.00  0.00     0.044 A 
HETATM   22  C   UNL     1     -42.798  55.419 -56.454  1.00  0.00     0.061 A 
HETATM   23 CL   UNL     1     -42.708  54.062 -55.384  1.00  0.00    -0.082 Cl
ENDBRANCH   9  11
ENDBRANCH   5   7
BRANCH   1  24
HETATM   24  C   UNL     1     -41.083  55.459 -51.217  1.00  0.00    -0.049 A 
HETATM   25  C   UNL     1     -40.398  55.142 -50.031  1.00  0.00     0.007 A 
HETATM   26  C   UNL     1     -39.889  53.862 -49.815  1.00  0.00     0.003 A 
HETATM   27  C   UNL     1     -40.060  52.877 -50.784  1.00  0.00     0.037 A 
HETATM   28  C   UNL     1     -40.734  53.161 -51.973  1.00  0.00     0.078 A 
HETATM   29  C   UNL     1     -41.226  54.454 -52.190  1.00  0.00     0.044 A 
BRANCH  28  30
HETATM   30  O   UNL     1     -40.834  52.101 -52.829  1.00  0.00    -0.255 OA
BRANCH  30  31
HETATM   31  C   UNL     1     -39.903  52.019 -53.894  1.00  0.00     0.530 C 
HETATM   32  F   UNL     1     -40.276  51.095 -54.804  1.00  0.00    -0.144 F 
HETATM   33  F   UNL     1     -38.702  51.652 -53.393  1.00  0.00    -0.144 F 
HETATM   34  F   UNL     1     -39.754  53.217 -54.501  1.00  0.00    -0.144 F 
ENDBRANCH  30  31
ENDBRANCH  28  30
ENDBRANCH   1  24
TORSDOF 5
ENDMDL
MODEL 8
REMARK VINA RESULT:      -9.0      3.793      7.774
REMARK  5 active torsions:
REMARK  status: ('A' for Active; 'I' for Inactive)
REMARK    1  A    between atoms: C_2  and  O_5 
REMARK    2  A    between atoms: O_5  and  C_6 
REMARK    3  A    between atoms: C_10  and  C_12 
REMARK    4  A    between atoms: C_16  and  C_17 
REMARK       I    between atoms: C_17  and  N_19 
REMARK    5  A    between atoms: N_19  and  C_20 
ROOT
HETATM    1  C   UNL     1     -41.911  58.134 -53.380  1.00  0.00     0.061 C 
HETATM    2  C   UNL     1     -41.206  59.471 -53.155  1.00  0.00     0.279 C 
HETATM    3  N   UNL     1     -40.665  59.321 -51.800  1.00  0.00     0.085 N 
HETATM    4  C   UNL     1     -41.762  58.744 -51.019  1.00  0.00     0.284 C 
HETATM    5  C   UNL     1     -42.503  57.824 -51.991  1.00  0.00     0.116 C 
HETATM    6  H   UNL     1     -40.392  60.231 -51.423  1.00  0.00     0.315 HD
ENDROOT
BRANCH   5   7
HETATM    7  C   UNL     1     -42.373  56.344 -51.667  1.00  0.00     0.228 C 
HETATM    8  O   UNL     1     -43.352  55.725 -51.256  1.00  0.00    -0.273 OA
HETATM    9  N   UNL     1     -41.130  55.798 -51.914  1.00  0.00    -0.325 N 
HETATM   10  H   UNL     1     -40.350  56.440 -52.048  1.00  0.00     0.169 HD
BRANCH   9  11
HETATM   11  C   UNL     1     -40.788  54.424 -51.889  1.00  0.00     0.057 A 
HETATM   12  C   UNL     1     -40.766  53.638 -53.049  1.00  0.00     0.043 A 
HETATM   13  C   UNL     1     -40.379  52.295 -52.995  1.00  0.00    -0.017 A 
HETATM   14  C   UNL     1     -40.317  51.481 -54.211  1.00  0.00     0.029 A 
HETATM   15  C   UNL     1     -40.028  51.729 -51.761  1.00  0.00     0.044 A 
HETATM   16  C   UNL     1     -39.935  50.202 -54.126  1.00  0.00     0.092 A 
HETATM   17  N   UNL     1     -39.605  49.636 -52.924  1.00  0.00    -0.333 N 
HETATM   18  C   UNL     1     -39.624  50.300 -51.716  1.00  0.00     0.256 A 
HETATM   19  H   UNL     1     -39.323  48.661 -52.881  1.00  0.00     0.168 HD
HETATM   20  O   UNL     1     -39.321  49.750 -50.663  1.00  0.00    -0.267 OA
HETATM   21  C   UNL     1     -40.041  52.495 -50.594  1.00  0.00     0.044 A 
HETATM   22  C   UNL     1     -40.406  53.840 -50.665  1.00  0.00     0.061 A 
HETATM   23 CL   UNL     1     -40.401  54.767 -49.203  1.00  0.00    -0.082 Cl
ENDBRANCH   9  11
ENDBRANCH   5   7
BRANCH   1  24
HETATM   24  C   UNL     1     -42.835  58.138 -54.583  1.00  0.00    -0.049 A 
HETATM   25  C   UNL     1     -43.887  59.070 -54.607  1.00  0.00     0.007 A 
HETATM   26  C   UNL     1     -44.758  59.143 -55.693  1.00  0.00     0.003 A 
HETATM   27  C   UNL     1     -44.589  58.283 -56.775  1.00  0.00     0.037 A 
HETATM   28  C   UNL     1     -43.556  57.345 -56.780  1.00  0.00     0.078 A 
HETATM   29  C   UNL     1     -42.695  57.267 -55.678  1.00  0.00     0.044 A 
BRANCH  28  30
HETATM   30  O   UNL     1     -43.504  56.573 -57.906  1.00  0.00    -0.255 OA
BRANCH  30  31
HETATM   31  C   UNL     1     -42.760  57.059 -59.010  1.00  0.00     0.530 C 
HETATM   32  F   UNL     1     -42.309  56.049 -59.783  1.00  0.00    -0.144 F 
HETATM   33  F   UNL     1     -41.690  57.742 -58.545  1.00  0.00    -0.144 F 
HETATM   34  F   UNL     1     -43.502  57.905 -59.759  1.00  0.00    -0.144 F 
ENDBRANCH  30  31
ENDBRANCH  28  30
ENDBRANCH   1  24
TORSDOF 5
ENDMDL
MODEL 9
REMARK VINA RESULT:      -8.9      4.041      5.911
REMARK  5 active torsions:
REMARK  status: ('A' for Active; 'I' for Inactive)
REMARK    1  A    between atoms: C_2  and  O_5 
REMARK    2  A    between atoms: O_5  and  C_6 
REMARK    3  A    between atoms: C_10  and  C_12 
REMARK    4  A    between atoms: C_16  and  C_17 
REMARK       I    between atoms: C_17  and  N_19 
REMARK    5  A    between atoms: N_19  and  C_20 
ROOT
HETATM    1  C   UNL     1     -41.162  54.463 -53.953  1.00  0.00     0.061 C 
HETATM    2  C   UNL     1     -40.645  54.146 -55.356  1.00  0.00     0.279 C 
HETATM    3  N   UNL     1     -41.461  55.025 -56.201  1.00  0.00     0.085 N 
HETATM    4  C   UNL     1     -42.827  54.872 -55.694  1.00  0.00     0.284 C 
HETATM    5  C   UNL     1     -42.672  54.668 -54.186  1.00  0.00     0.116 C 
HETATM    6  H   UNL     1     -41.403  54.732 -57.178  1.00  0.00     0.315 HD
ENDROOT
BRANCH   5   7
HETATM    7  C   UNL     1     -43.195  55.823 -53.346  1.00  0.00     0.228 C 
HETATM    8  O   UNL     1     -43.534  55.622 -52.182  1.00  0.00    -0.273 OA
HETATM    9  N   UNL     1     -43.200  57.050 -53.978  1.00  0.00    -0.325 N 
HETATM   10  H   UNL     1     -43.102  57.061 -54.992  1.00  0.00     0.169 HD
BRANCH   9  11
HETATM   11  C   UNL     1     -43.447  58.310 -53.379  1.00  0.00     0.057 A 
HETATM   12  C   UNL     1     -44.738  58.735 -53.038  1.00  0.00     0.043 A 
HETATM   13  C   UNL     1     -44.941  59.966 -52.405  1.00  0.00    -0.017 A 
HETATM   14  C   UNL     1     -46.285  60.397 -52.012  1.00  0.00     0.029 A 
HETATM   15  C   UNL     1     -43.840  60.788 -52.128  1.00  0.00     0.044 A 
HETATM   16  C   UNL     1     -46.445  61.576 -51.401  1.00  0.00     0.092 A 
HETATM   17  N   UNL     1     -45.376  62.392 -51.140  1.00  0.00    -0.333 N 
HETATM   18  C   UNL     1     -44.069  62.095 -51.461  1.00  0.00     0.256 A 
HETATM   19  H   UNL     1     -45.520  63.286 -50.681  1.00  0.00     0.168 HD
HETATM   20  O   UNL     1     -43.145  62.859 -51.208  1.00  0.00    -0.267 OA
HETATM   21  C   UNL     1     -42.545  60.382 -52.458  1.00  0.00     0.044 A 
HETATM   22  C   UNL     1     -42.354  59.141 -53.066  1.00  0.00     0.061 A 
HETATM   23 CL   UNL     1     -40.736  58.661 -53.452  1.00  0.00    -0.082 Cl
ENDBRANCH   9  11
ENDBRANCH   5   7
BRANCH   1  24
HETATM   24  C   UNL     1     -40.714  53.458 -52.908  1.00  0.00    -0.049 A 
HETATM   25  C   UNL     1     -40.078  52.285 -53.348  1.00  0.00     0.007 A 
HETATM   26  C   UNL     1     -39.620  51.331 -52.439  1.00  0.00     0.003 A 
HETATM   27  C   UNL     1     -39.792  51.538 -51.074  1.00  0.00     0.037 A 
HETATM   28  C   UNL     1     -40.423  52.692 -50.605  1.00  0.00     0.078 A 
HETATM   29  C   UNL     1     -40.895  53.637 -51.525  1.00  0.00     0.044 A 
BRANCH  28  30
HETATM   30  O   UNL     1     -40.517  52.768 -49.244  1.00  0.00    -0.255 OA
BRANCH  30  31
HETATM   31  C   UNL     1     -40.121  53.976 -48.618  1.00  0.00     0.530 C 
HETATM   32  F   UNL     1     -39.016  54.492 -49.197  1.00  0.00    -0.144 F 
HETATM   33  F   UNL     1     -39.835  53.719 -47.323  1.00  0.00    -0.144 F 
HETATM   34  F   UNL     1     -41.117  54.889 -48.653  1.00  0.00    -0.144 F 
ENDBRANCH  30  31
ENDBRANCH  28  30
ENDBRANCH   1  24
TORSDOF 5
ENDMDL
MODEL 10
REMARK VINA RESULT:      -8.7      2.402      3.162
REMARK  5 active torsions:
REMARK  status: ('A' for Active; 'I' for Inactive)
REMARK    1  A    between atoms: C_2  and  O_5 
REMARK    2  A    between atoms: O_5  and  C_6 
REMARK    3  A    between atoms: C_10  and  C_12 
REMARK    4  A    between atoms: C_16  and  C_17 
REMARK       I    between atoms: C_17  and  N_19 
REMARK    5  A    between atoms: N_19  and  C_20 
ROOT
HETATM    1  C   UNL     1     -41.573  57.605 -51.913  1.00  0.00     0.061 C 
HETATM    2  C   UNL     1     -40.828  58.180 -50.709  1.00  0.00     0.279 C 
HETATM    3  N   UNL     1     -40.352  59.472 -51.218  1.00  0.00     0.085 N 
HETATM    4  C   UNL     1     -39.814  59.177 -52.548  1.00  0.00     0.284 C 
HETATM    5  C   UNL     1     -40.706  58.064 -53.102  1.00  0.00     0.116 C 
HETATM    6  H   UNL     1     -39.623  59.847 -50.608  1.00  0.00     0.315 HD
ENDROOT
BRANCH   5   7
HETATM    7  C   UNL     1     -41.577  58.491 -54.272  1.00  0.00     0.228 C 
HETATM    8  O   UNL     1     -41.425  59.605 -54.767  1.00  0.00    -0.273 OA
HETATM    9  N   UNL     1     -42.465  57.534 -54.720  1.00  0.00    -0.325 N 
HETATM   10  H   UNL     1     -42.651  56.739 -54.110  1.00  0.00     0.169 HD
BRANCH   9  11
HETATM   11  C   UNL     1     -43.248  57.590 -55.899  1.00  0.00     0.057 A 
HETATM   12  C   UNL     1     -42.815  57.033 -57.110  1.00  0.00     0.043 A 
HETATM   13  C   UNL     1     -43.634  57.066 -58.244  1.00  0.00    -0.017 A 
HETATM   14  C   UNL     1     -43.201  56.450 -59.501  1.00  0.00     0.029 A 
HETATM   15  C   UNL     1     -44.892  57.680 -58.168  1.00  0.00     0.044 A 
HETATM   16  C   UNL     1     -44.011  56.491 -60.565  1.00  0.00     0.092 A 
HETATM   17  N   UNL     1     -45.235  57.102 -60.505  1.00  0.00    -0.333 N 
HETATM   18  C   UNL     1     -45.749  57.713 -59.381  1.00  0.00     0.256 A 
HETATM   19  H   UNL     1     -45.831  57.128 -61.326  1.00  0.00     0.168 HD
HETATM   20  O   UNL     1     -46.851  58.249 -59.375  1.00  0.00    -0.267 OA
HETATM   21  C   UNL     1     -45.342  58.239 -56.970  1.00  0.00     0.044 A 
HETATM   22  C   UNL     1     -44.527  58.178 -55.840  1.00  0.00     0.061 A 
HETATM   23 CL   UNL     1     -45.118  58.869 -54.367  1.00  0.00    -0.082 Cl
ENDBRANCH   9  11
ENDBRANCH   5   7
BRANCH   1  24
HETATM   24  C   UNL     1     -41.895  56.129 -51.770  1.00  0.00    -0.049 A 
HETATM   25  C   UNL     1     -43.031  55.768 -51.025  1.00  0.00     0.007 A 
HETATM   26  C   UNL     1     -43.396  54.432 -50.874  1.00  0.00     0.003 A 
HETATM   27  C   UNL     1     -42.630  53.433 -51.468  1.00  0.00     0.037 A 
HETATM   28  C   UNL     1     -41.495  53.759 -52.212  1.00  0.00     0.078 A 
HETATM   29  C   UNL     1     -41.124  55.103 -52.345  1.00  0.00     0.044 A 
BRANCH  28  30
HETATM   30  O   UNL     1     -40.843  52.682 -52.743  1.00  0.00    -0.255 OA
BRANCH  30  31
HETATM   31  C   UNL     1     -40.891  52.504 -54.148  1.00  0.00     0.530 C 
HETATM   32  F   UNL     1     -42.071  52.918 -54.657  1.00  0.00    -0.144 F 
HETATM   33  F   UNL     1     -40.754  51.188 -54.423  1.00  0.00    -0.144 F 
HETATM   34  F   UNL     1     -39.880  53.165 -54.755  1.00  0.00    -0.144 F 
ENDBRANCH  30  31
ENDBRANCH  28  30
ENDBRANCH   1  24
TORSDOF 5
ENDMDL
