MODEL 1
REMARK VINA RESULT:      -7.9      0.000      0.000
REMARK  9 active torsions:
REMARK  status: ('A' for Active; 'I' for Inactive)
REMARK       I    between atoms: C_2  and  N_3 
REMARK    1  A    between atoms: N_3  and  C_4 
REMARK    2  A    between atoms: C_6  and  O_7 
REMARK    3  A    between atoms: O_7  and  C_8 
REMARK    4  A    between atoms: C_8  and  C_9 
REMARK    5  A    between atoms: C_9  and  C_10 
REMARK    6  A    between atoms: C_10  and  C_11 
REMARK    7  A    between atoms: C_11  and  N_12 
REMARK       I    between atoms: N_12  and  C_13 
REMARK    8  A    between atoms: C_13  and  C_14 
REMARK    9  A    between atoms: C_18  and  C_19 
ROOT
HETATM    1  N   UNL     1     -42.441  57.837 -54.598  1.00  0.00    -0.345 N 
HETATM    2  C   UNL     1     -41.324  57.686 -53.817  1.00  0.00     0.270 C 
HETATM    3  O   UNL     1     -40.557  58.612 -53.574  1.00  0.00    -0.266 OA
HETATM    4  H   UNL     1     -43.103  57.082 -54.682  1.00  0.00     0.163 HD
ENDROOT
BRANCH   1   5
HETATM    5  C   UNL     1     -42.809  59.125 -55.122  1.00  0.00     0.217 C 
BRANCH   5   6
HETATM    6  C   UNL     1     -42.671  59.097 -56.635  1.00  0.00    -0.085 C 
BRANCH   6   7
HETATM    7  C   UNL     1     -42.555  59.073 -57.934  1.00  0.00    -0.078 C 
BRANCH   7   8
HETATM    8  C   UNL     1     -42.419  59.045 -59.448  1.00  0.00     0.269 C 
BRANCH   8   9
HETATM    9  O   UNL     1     -42.069  57.734 -59.882  1.00  0.00    -0.339 OA
BRANCH   9  10
HETATM   10  C   UNL     1     -43.100  56.830 -59.943  1.00  0.00     0.072 A 
HETATM   11  C   UNL     1     -44.297  56.997 -60.652  1.00  0.00     0.066 A 
HETATM   12  C   UNL     1     -45.272  55.994 -60.663  1.00  0.00     0.037 A 
HETATM   13  C   UNL     1     -45.044  54.821 -59.936  1.00  0.00     0.029 A 
HETATM   14  C   UNL     1     -43.859  54.650 -59.219  1.00  0.00     0.005 A 
HETATM   15  C   UNL     1     -42.890  55.652 -59.227  1.00  0.00     0.037 A 
BRANCH  12  16
HETATM   16  N   UNL     1     -46.487  56.089 -61.376  1.00  0.00    -0.327 N 
HETATM   17  C   UNL     1     -47.468  57.059 -61.248  1.00  0.00     0.218 C 
HETATM   18  C   UNL     1     -48.621  56.842 -62.196  1.00  0.00     0.117 C 
HETATM   19  O   UNL     1     -47.451  58.029 -60.498  1.00  0.00    -0.274 OA
HETATM   20  H   UNL     1     -46.643  55.377 -62.079  1.00  0.00     0.169 HD
ENDBRANCH  12  16
ENDBRANCH   9  10
ENDBRANCH   8   9
ENDBRANCH   7   8
ENDBRANCH   6   7
ENDBRANCH   5   6
ENDBRANCH   1   5
BRANCH   2  21
HETATM   21  C   UNL     1     -41.118  56.364 -53.292  1.00  0.00     0.120 A 
HETATM   22  N   UNL     1     -41.401  56.059 -51.990  1.00  0.00    -0.272 N 
HETATM   23  H   UNL     1     -41.766  56.691 -51.283  1.00  0.00     0.189 HD
HETATM   24  N   UNL     1     -41.156  54.783 -51.657  1.00  0.00    -0.174 NA
HETATM   25  C   UNL     1     -40.693  54.218 -52.784  1.00  0.00     0.089 A 
HETATM   26  C   UNL     1     -40.647  55.183 -53.830  1.00  0.00     0.071 A 
BRANCH  25  27
HETATM   27  C   UNL     1     -40.311  52.802 -52.833  1.00  0.00    -0.005 A 
HETATM   28  C   UNL     1     -40.330  52.085 -54.042  1.00  0.00     0.017 A 
HETATM   29  C   UNL     1     -39.965  50.735 -54.075  1.00  0.00     0.043 A 
HETATM   30  C   UNL     1     -39.580  50.098 -52.903  1.00  0.00     0.116 A 
HETATM   31  F   UNL     1     -39.232  48.805 -52.938  1.00  0.00    -0.206 F 
HETATM   32  C   UNL     1     -39.554  50.782 -51.695  1.00  0.00     0.043 A 
HETATM   33  C   UNL     1     -39.920  52.130 -51.661  1.00  0.00     0.017 A 
ENDBRANCH  25  27
ENDBRANCH   2  21
TORSDOF 9
ENDMDL
MODEL 2
REMARK VINA RESULT:      -7.9      3.084      4.138
REMARK  9 active torsions:
REMARK  status: ('A' for Active; 'I' for Inactive)
REMARK       I    between atoms: C_2  and  N_3 
REMARK    1  A    between atoms: N_3  and  C_4 
REMARK    2  A    between atoms: C_6  and  O_7 
REMARK    3  A    between atoms: O_7  and  C_8 
REMARK    4  A    between atoms: C_8  and  C_9 
REMARK    5  A    between atoms: C_9  and  C_10 
REMARK    6  A    between atoms: C_10  and  C_11 
REMARK    7  A    between atoms: C_11  and  N_12 
REMARK       I    between atoms: N_12  and  C_13 
REMARK    8  A    between atoms: C_13  and  C_14 
REMARK    9  A    between atoms: C_18  and  C_19 
ROOT
HETATM    1  N   UNL     1     -41.527  58.550 -51.174  1.00  0.00    -0.345 N 
HETATM    2  C   UNL     1     -42.332  57.439 -51.151  1.00  0.00     0.270 C 
HETATM    3  O   UNL     1     -43.555  57.510 -51.100  1.00  0.00    -0.266 OA
HETATM    4  H   UNL     1     -40.536  58.452 -51.328  1.00  0.00     0.163 HD
ENDROOT
BRANCH   1   5
HETATM    5  C   UNL     1     -42.093  59.872 -51.210  1.00  0.00     0.217 C 
BRANCH   5   6
HETATM    6  C   UNL     1     -42.325  60.267 -52.660  1.00  0.00    -0.085 C 
BRANCH   6   7
HETATM    7  C   UNL     1     -42.524  60.606 -53.903  1.00  0.00    -0.078 C 
BRANCH   7   8
HETATM    8  C   UNL     1     -42.757  61.002 -55.352  1.00  0.00     0.269 C 
BRANCH   8   9
HETATM    9  O   UNL     1     -41.720  60.476 -56.174  1.00  0.00    -0.339 OA
BRANCH   9  10
HETATM   10  C   UNL     1     -42.047  59.366 -56.912  1.00  0.00     0.072 A 
HETATM   11  C   UNL     1     -42.479  58.137 -56.396  1.00  0.00     0.066 A 
HETATM   12  C   UNL     1     -42.809  57.077 -57.246  1.00  0.00     0.037 A 
HETATM   13  C   UNL     1     -42.684  57.254 -58.629  1.00  0.00     0.029 A 
HETATM   14  C   UNL     1     -42.246  58.471 -59.151  1.00  0.00     0.005 A 
HETATM   15  C   UNL     1     -41.931  59.524 -58.293  1.00  0.00     0.037 A 
BRANCH  12  16
HETATM   16  N   UNL     1     -43.273  55.822 -56.793  1.00  0.00    -0.327 N 
HETATM   17  C   UNL     1     -42.579  54.885 -56.047  1.00  0.00     0.218 C 
HETATM   18  C   UNL     1     -43.412  53.667 -55.732  1.00  0.00     0.117 C 
HETATM   19  O   UNL     1     -41.432  54.982 -55.625  1.00  0.00    -0.274 OA
HETATM   20  H   UNL     1     -44.234  55.598 -57.022  1.00  0.00     0.169 HD
ENDBRANCH  12  16
ENDBRANCH   9  10
ENDBRANCH   8   9
ENDBRANCH   7   8
ENDBRANCH   6   7
ENDBRANCH   5   6
ENDBRANCH   1   5
BRANCH   2  21
HETATM   21  C   UNL     1     -41.639  56.180 -51.199  1.00  0.00     0.120 A 
HETATM   22  N   UNL     1     -40.783  55.797 -50.205  1.00  0.00    -0.272 N 
HETATM   23  H   UNL     1     -40.549  56.322 -49.368  1.00  0.00     0.189 HD
HETATM   24  N   UNL     1     -40.218  54.596 -50.398  1.00  0.00    -0.174 NA
HETATM   25  C   UNL     1     -40.721  54.164 -51.566  1.00  0.00     0.089 A 
HETATM   26  C   UNL     1     -41.611  55.138 -52.103  1.00  0.00     0.071 A 
BRANCH  25  27
HETATM   27  C   UNL     1     -40.346  52.863 -52.132  1.00  0.00    -0.005 A 
HETATM   28  C   UNL     1     -39.828  51.839 -51.320  1.00  0.00     0.017 A 
HETATM   29  C   UNL     1     -39.472  50.604 -51.872  1.00  0.00     0.043 A 
HETATM   30  C   UNL     1     -39.633  50.388 -53.234  1.00  0.00     0.116 A 
HETATM   31  F   UNL     1     -39.292  49.204 -53.760  1.00  0.00    -0.206 F 
HETATM   32  C   UNL     1     -40.141  51.383 -54.059  1.00  0.00     0.043 A 
HETATM   33  C   UNL     1     -40.495  52.617 -53.509  1.00  0.00     0.017 A 
ENDBRANCH  25  27
ENDBRANCH   2  21
TORSDOF 9
ENDMDL
MODEL 3
REMARK VINA RESULT:      -7.9      2.191      3.424
REMARK  9 active torsions:
REMARK  status: ('A' for Active; 'I' for Inactive)
REMARK       I    between atoms: C_2  and  N_3 
REMARK    1  A    between atoms: N_3  and  C_4 
REMARK    2  A    between atoms: C_6  and  O_7 
REMARK    3  A    between atoms: O_7  and  C_8 
REMARK    4  A    between atoms: C_8  and  C_9 
REMARK    5  A    between atoms: C_9  and  C_10 
REMARK    6  A    between atoms: C_10  and  C_11 
REMARK    7  A    between atoms: C_11  and  N_12 
REMARK       I    between atoms: N_12  and  C_13 
REMARK    8  A    between atoms: C_13  and  C_14 
REMARK    9  A    between atoms: C_18  and  C_19 
ROOT
HETATM    1  N   UNL     1     -44.087  57.381 -51.543  1.00  0.00    -0.345 N 
HETATM    2  C   UNL     1     -42.733  57.498 -51.354  1.00  0.00     0.270 C 
HETATM    3  O   UNL     1     -42.185  58.576 -51.152  1.00  0.00    -0.266 OA
HETATM    4  H   UNL     1     -44.513  56.469 -51.595  1.00  0.00     0.163 HD
ENDROOT
BRANCH   1   5
HETATM    5  C   UNL     1     -44.949  58.528 -51.444  1.00  0.00     0.217 C 
BRANCH   5   6
HETATM    6  C   UNL     1     -45.036  59.196 -52.806  1.00  0.00    -0.085 C 
BRANCH   6   7
HETATM    7  C   UNL     1     -45.111  59.768 -53.976  1.00  0.00    -0.078 C 
BRANCH   7   8
HETATM    8  C   UNL     1     -45.199  60.435 -55.339  1.00  0.00     0.269 C 
BRANCH   8   9
HETATM    9  O   UNL     1     -43.982  60.245 -56.054  1.00  0.00    -0.339 OA
BRANCH   9  10
HETATM   10  C   UNL     1     -43.681  58.948 -56.388  1.00  0.00     0.072 A 
HETATM   11  C   UNL     1     -44.296  58.197 -57.399  1.00  0.00     0.066 A 
HETATM   12  C   UNL     1     -43.890  56.886 -57.668  1.00  0.00     0.037 A 
HETATM   13  C   UNL     1     -42.868  56.322 -56.895  1.00  0.00     0.029 A 
HETATM   14  C   UNL     1     -42.258  57.059 -55.880  1.00  0.00     0.005 A 
HETATM   15  C   UNL     1     -42.663  58.369 -55.631  1.00  0.00     0.037 A 
BRANCH  12  16
HETATM   16  N   UNL     1     -44.450  56.084 -58.686  1.00  0.00    -0.327 N 
HETATM   17  C   UNL     1     -43.904  55.788 -59.923  1.00  0.00     0.218 C 
HETATM   18  C   UNL     1     -44.787  54.878 -60.741  1.00  0.00     0.117 C 
HETATM   19  O   UNL     1     -42.817  56.156 -60.357  1.00  0.00    -0.274 OA
HETATM   20  H   UNL     1     -45.343  55.659 -58.471  1.00  0.00     0.169 HD
ENDBRANCH  12  16
ENDBRANCH   9  10
ENDBRANCH   8   9
ENDBRANCH   7   8
ENDBRANCH   6   7
ENDBRANCH   5   6
ENDBRANCH   1   5
BRANCH   2  21
HETATM   21  C   UNL     1     -42.000  56.262 -51.400  1.00  0.00     0.120 A 
HETATM   22  N   UNL     1     -41.251  55.836 -50.340  1.00  0.00    -0.272 N 
HETATM   23  H   UNL     1     -41.129  56.312 -49.451  1.00  0.00     0.189 HD
HETATM   24  N   UNL     1     -40.630  54.664 -50.540  1.00  0.00    -0.174 NA
HETATM   25  C   UNL     1     -40.983  54.297 -51.782  1.00  0.00     0.089 A 
HETATM   26  C   UNL     1     -41.837  55.281 -52.357  1.00  0.00     0.071 A 
BRANCH  25  27
HETATM   27  C   UNL     1     -40.506  53.044 -52.379  1.00  0.00    -0.005 A 
HETATM   28  C   UNL     1     -39.866  52.064 -51.601  1.00  0.00     0.017 A 
HETATM   29  C   UNL     1     -39.414  50.876 -52.183  1.00  0.00     0.043 A 
HETATM   30  C   UNL     1     -39.600  50.662 -53.543  1.00  0.00     0.116 A 
HETATM   31  F   UNL     1     -39.166  49.522 -54.098  1.00  0.00    -0.206 F 
HETATM   32  C   UNL     1     -40.227  51.614 -54.335  1.00  0.00     0.043 A 
HETATM   33  C   UNL     1     -40.677  52.802 -53.755  1.00  0.00     0.017 A 
ENDBRANCH  25  27
ENDBRANCH   2  21
TORSDOF 9
ENDMDL
MODEL 4
REMARK VINA RESULT:      -7.8      2.161      3.166
REMARK  9 active torsions:
REMARK  status: ('A' for Active; 'I' for Inactive)
REMARK       I    between atoms: C_2  and  N_3 
REMARK    1  A    between atoms: N_3  and  C_4 
REMARK    2  A    between atoms: C_6  and  O_7 
REMARK    3  A    between atoms: O_7  and  C_8 
REMARK    4  A    between atoms: C_8  and  C_9 
REMARK    5  A    between atoms: C_9  and  C_10 
REMARK    6  A    between atoms: C_10  and  C_11 
REMARK    7  A    between atoms: C_11  and  N_12 
REMARK       I    between atoms: N_12  and  C_13 
REMARK    8  A    between atoms: C_13  and  C_14 
REMARK    9  A    between atoms: C_18  and  C_19 
ROOT
HETATM    1  N   UNL     1     -41.574  58.576 -51.777  1.00  0.00    -0.345 N 
HETATM    2  C   UNL     1     -42.487  57.581 -51.537  1.00  0.00     0.270 C 
HETATM    3  O   UNL     1     -43.679  57.806 -51.354  1.00  0.00    -0.266 OA
HETATM    4  H   UNL     1     -40.628  58.342 -52.032  1.00  0.00     0.163 HD
ENDROOT
BRANCH   1   5
HETATM    5  C   UNL     1     -41.991  59.948 -51.896  1.00  0.00     0.217 C 
BRANCH   5   6
HETATM    6  C   UNL     1     -42.210  60.268 -53.366  1.00  0.00    -0.085 C 
BRANCH   6   7
HETATM    7  C   UNL     1     -42.397  60.543 -54.627  1.00  0.00    -0.078 C 
BRANCH   7   8
HETATM    8  C   UNL     1     -42.615  60.864 -56.097  1.00  0.00     0.269 C 
BRANCH   8   9
HETATM    9  O   UNL     1     -41.507  60.405 -56.866  1.00  0.00    -0.339 OA
BRANCH   9  10
HETATM   10  C   UNL     1     -41.819  59.698 -58.000  1.00  0.00     0.072 A 
HETATM   11  C   UNL     1     -42.221  58.356 -58.046  1.00  0.00     0.066 A 
HETATM   12  C   UNL     1     -42.539  57.743 -59.262  1.00  0.00     0.037 A 
HETATM   13  C   UNL     1     -42.430  58.485 -60.444  1.00  0.00     0.029 A 
HETATM   14  C   UNL     1     -42.021  59.818 -60.408  1.00  0.00     0.005 A 
HETATM   15  C   UNL     1     -41.720  60.422 -59.188  1.00  0.00     0.037 A 
BRANCH  12  16
HETATM   16  N   UNL     1     -42.973  56.404 -59.376  1.00  0.00    -0.327 N 
HETATM   17  C   UNL     1     -44.276  55.939 -59.417  1.00  0.00     0.218 C 
HETATM   18  C   UNL     1     -44.350  54.440 -59.565  1.00  0.00     0.117 C 
HETATM   19  O   UNL     1     -45.300  56.613 -59.379  1.00  0.00    -0.274 OA
HETATM   20  H   UNL     1     -42.241  55.709 -59.463  1.00  0.00     0.169 HD
ENDBRANCH  12  16
ENDBRANCH   9  10
ENDBRANCH   8   9
ENDBRANCH   7   8
ENDBRANCH   6   7
ENDBRANCH   5   6
ENDBRANCH   1   5
BRANCH   2  21
HETATM   21  C   UNL     1     -41.949  56.247 -51.523  1.00  0.00     0.120 A 
HETATM   22  N   UNL     1     -41.732  55.576 -50.352  1.00  0.00    -0.272 N 
HETATM   23  H   UNL     1     -41.911  55.919 -49.413  1.00  0.00     0.189 HD
HETATM   24  N   UNL     1     -41.228  54.344 -50.510  1.00  0.00    -0.174 NA
HETATM   25  C   UNL     1     -41.108  54.189 -51.838  1.00  0.00     0.089 A 
HETATM   26  C   UNL     1     -41.544  55.369 -52.507  1.00  0.00     0.071 A 
BRANCH  25  27
HETATM   27  C   UNL     1     -40.589  52.948 -52.425  1.00  0.00    -0.005 A 
HETATM   28  C   UNL     1     -40.788  52.647 -53.784  1.00  0.00     0.017 A 
HETATM   29  C   UNL     1     -40.290  51.460 -54.330  1.00  0.00     0.043 A 
HETATM   30  C   UNL     1     -39.592  50.571 -53.523  1.00  0.00     0.116 A 
HETATM   31  F   UNL     1     -39.117  49.434 -54.050  1.00  0.00    -0.206 F 
HETATM   32  C   UNL     1     -39.384  50.843 -52.178  1.00  0.00     0.043 A 
HETATM   33  C   UNL     1     -39.882  52.028 -51.631  1.00  0.00     0.017 A 
ENDBRANCH  25  27
ENDBRANCH   2  21
TORSDOF 9
ENDMDL
MODEL 5
REMARK VINA RESULT:      -7.8      3.608      7.044
REMARK  9 active torsions:
REMARK  status: ('A' for Active; 'I' for Inactive)
REMARK       I    between atoms: C_2  and  N_3 
REMARK    1  A    between atoms: N_3  and  C_4 
REMARK    2  A    between atoms: C_6  and  O_7 
REMARK    3  A    between atoms: O_7  and  C_8 
REMARK    4  A    between atoms: C_8  and  C_9 
REMARK    5  A    between atoms: C_9  and  C_10 
REMARK    6  A    between atoms: C_10  and  C_11 
REMARK    7  A    between atoms: C_11  and  N_12 
REMARK       I    between atoms: N_12  and  C_13 
REMARK    8  A    between atoms: C_13  and  C_14 
REMARK    9  A    between atoms: C_18  and  C_19 
ROOT
HETATM    1  N   UNL     1     -43.532  56.575 -55.468  1.00  0.00    -0.345 N 
HETATM    2  C   UNL     1     -42.933  55.596 -56.221  1.00  0.00     0.270 C 
HETATM    3  O   UNL     1     -43.175  55.439 -57.413  1.00  0.00    -0.266 OA
HETATM    4  H   UNL     1     -43.225  56.743 -54.523  1.00  0.00     0.163 HD
ENDROOT
BRANCH   1   5
HETATM    5  C   UNL     1     -44.434  57.520 -56.068  1.00  0.00     0.217 C 
BRANCH   5   6
HETATM    6  C   UNL     1     -44.888  58.507 -55.004  1.00  0.00    -0.085 C 
BRANCH   6   7
HETATM    7  C   UNL     1     -45.277  59.355 -54.093  1.00  0.00    -0.078 C 
BRANCH   7   8
HETATM    8  C   UNL     1     -45.731  60.343 -53.030  1.00  0.00     0.269 C 
BRANCH   8   9
HETATM    9  O   UNL     1     -45.642  59.747 -51.740  1.00  0.00    -0.339 OA
BRANCH   9  10
HETATM   10  C   UNL     1     -44.597  58.876 -51.555  1.00  0.00     0.072 A 
HETATM   11  C   UNL     1     -43.236  59.196 -51.648  1.00  0.00     0.066 A 
HETATM   12  C   UNL     1     -42.252  58.229 -51.415  1.00  0.00     0.037 A 
HETATM   13  C   UNL     1     -42.648  56.923 -51.104  1.00  0.00     0.029 A 
HETATM   14  C   UNL     1     -44.001  56.593 -51.018  1.00  0.00     0.005 A 
HETATM   15  C   UNL     1     -44.971  57.569 -51.241  1.00  0.00     0.037 A 
BRANCH  12  16
HETATM   16  N   UNL     1     -40.866  58.491 -51.469  1.00  0.00    -0.327 N 
HETATM   17  C   UNL     1     -40.103  59.193 -50.551  1.00  0.00     0.218 C 
HETATM   18  C   UNL     1     -38.645  59.249 -50.936  1.00  0.00     0.117 C 
HETATM   19  O   UNL     1     -40.492  59.705 -49.507  1.00  0.00    -0.274 OA
HETATM   20  H   UNL     1     -40.373  58.095 -52.260  1.00  0.00     0.169 HD
ENDBRANCH  12  16
ENDBRANCH   9  10
ENDBRANCH   8   9
ENDBRANCH   7   8
ENDBRANCH   6   7
ENDBRANCH   5   6
ENDBRANCH   1   5
BRANCH   2  21
HETATM   21  C   UNL     1     -41.991  54.771 -55.515  1.00  0.00     0.120 A 
HETATM   22  N   UNL     1     -40.648  54.854 -55.754  1.00  0.00    -0.272 N 
HETATM   23  H   UNL     1     -40.186  55.468 -56.417  1.00  0.00     0.189 HD
HETATM   24  N   UNL     1     -39.905  54.019 -55.013  1.00  0.00    -0.174 NA
HETATM   25  C   UNL     1     -40.789  53.357 -54.250  1.00  0.00     0.089 A 
HETATM   26  C   UNL     1     -42.112  53.797 -54.545  1.00  0.00     0.071 A 
BRANCH  25  27
HETATM   27  C   UNL     1     -40.362  52.341 -53.282  1.00  0.00    -0.005 A 
HETATM   28  C   UNL     1     -39.982  51.053 -53.699  1.00  0.00     0.017 A 
HETATM   29  C   UNL     1     -39.578  50.093 -52.765  1.00  0.00     0.043 A 
HETATM   30  C   UNL     1     -39.552  50.415 -51.415  1.00  0.00     0.116 A 
HETATM   31  F   UNL     1     -39.165  49.493 -50.523  1.00  0.00    -0.206 F 
HETATM   32  C   UNL     1     -39.924  51.679 -50.976  1.00  0.00     0.043 A 
HETATM   33  C   UNL     1     -40.329  52.638 -51.907  1.00  0.00     0.017 A 
ENDBRANCH  25  27
ENDBRANCH   2  21
TORSDOF 9
ENDMDL
MODEL 6
REMARK VINA RESULT:      -7.6      2.415      3.662
REMARK  9 active torsions:
REMARK  status: ('A' for Active; 'I' for Inactive)
REMARK       I    between atoms: C_2  and  N_3 
REMARK    1  A    between atoms: N_3  and  C_4 
REMARK    2  A    between atoms: C_6  and  O_7 
REMARK    3  A    between atoms: O_7  and  C_8 
REMARK    4  A    between atoms: C_8  and  C_9 
REMARK    5  A    between atoms: C_9  and  C_10 
REMARK    6  A    between atoms: C_10  and  C_11 
REMARK    7  A    between atoms: C_11  and  N_12 
REMARK       I    between atoms: N_12  and  C_13 
REMARK    8  A    between atoms: C_13  and  C_14 
REMARK    9  A    between atoms: C_18  and  C_19 
ROOT
HETATM    1  N   UNL     1     -44.233  56.955 -54.892  1.00  0.00    -0.345 N 
HETATM    2  C   UNL     1     -42.873  57.102 -55.002  1.00  0.00     0.270 C 
HETATM    3  O   UNL     1     -42.344  58.174 -55.274  1.00  0.00    -0.266 OA
HETATM    4  H   UNL     1     -44.621  56.087 -54.558  1.00  0.00     0.163 HD
ENDROOT
BRANCH   1   5
HETATM    5  C   UNL     1     -45.111  58.086 -55.026  1.00  0.00     0.217 C 
BRANCH   5   6
HETATM    6  C   UNL     1     -45.652  58.121 -56.447  1.00  0.00    -0.085 C 
BRANCH   6   7
HETATM    7  C   UNL     1     -46.115  58.152 -57.665  1.00  0.00    -0.078 C 
BRANCH   7   8
HETATM    8  C   UNL     1     -46.655  58.188 -59.086  1.00  0.00     0.269 C 
BRANCH   8   9
HETATM    9  O   UNL     1     -45.928  57.280 -59.907  1.00  0.00    -0.339 OA
BRANCH   9  10
HETATM   10  C   UNL     1     -44.576  57.501 -59.991  1.00  0.00     0.072 A 
HETATM   11  C   UNL     1     -43.957  58.748 -60.146  1.00  0.00     0.066 A 
HETATM   12  C   UNL     1     -42.563  58.857 -60.196  1.00  0.00     0.037 A 
HETATM   13  C   UNL     1     -41.790  57.694 -60.109  1.00  0.00     0.029 A 
HETATM   14  C   UNL     1     -42.399  56.447 -59.964  1.00  0.00     0.005 A 
HETATM   15  C   UNL     1     -43.788  56.354 -59.903  1.00  0.00     0.037 A 
BRANCH  12  16
HETATM   16  N   UNL     1     -41.876  60.084 -60.326  1.00  0.00    -0.327 N 
HETATM   17  C   UNL     1     -41.792  60.889 -61.449  1.00  0.00     0.218 C 
HETATM   18  C   UNL     1     -40.984  62.139 -61.203  1.00  0.00     0.117 C 
HETATM   19  O   UNL     1     -42.317  60.691 -62.540  1.00  0.00    -0.274 OA
HETATM   20  H   UNL     1     -41.415  60.421 -59.490  1.00  0.00     0.169 HD
ENDBRANCH  12  16
ENDBRANCH   9  10
ENDBRANCH   8   9
ENDBRANCH   7   8
ENDBRANCH   6   7
ENDBRANCH   5   6
ENDBRANCH   1   5
BRANCH   2  21
HETATM   21  C   UNL     1     -42.108  55.908 -54.764  1.00  0.00     0.120 A 
HETATM   22  N   UNL     1     -41.358  55.332 -55.751  1.00  0.00    -0.272 N 
HETATM   23  H   UNL     1     -41.260  55.657 -56.708  1.00  0.00     0.189 HD
HETATM   24  N   UNL     1     -40.702  54.226 -55.369  1.00  0.00    -0.174 NA
HETATM   25  C   UNL     1     -41.029  54.063 -54.077  1.00  0.00     0.089 A 
HETATM   26  C   UNL     1     -41.918  55.096 -53.665  1.00  0.00     0.071 A 
BRANCH  25  27
HETATM   27  C   UNL     1     -40.500  52.947 -53.284  1.00  0.00    -0.005 A 
HETATM   28  C   UNL     1     -40.389  53.036 -51.886  1.00  0.00     0.017 A 
HETATM   29  C   UNL     1     -39.880  51.965 -51.143  1.00  0.00     0.043 A 
HETATM   30  C   UNL     1     -39.482  50.804 -51.793  1.00  0.00     0.116 A 
HETATM   31  F   UNL     1     -38.996  49.781 -51.077  1.00  0.00    -0.206 F 
HETATM   32  C   UNL     1     -39.579  50.691 -53.173  1.00  0.00     0.043 A 
HETATM   33  C   UNL     1     -40.085  51.760 -53.916  1.00  0.00     0.017 A 
ENDBRANCH  25  27
ENDBRANCH   2  21
TORSDOF 9
ENDMDL
MODEL 7
REMARK VINA RESULT:      -7.5      3.217      6.724
REMARK  9 active torsions:
REMARK  status: ('A' for Active; 'I' for Inactive)
REMARK       I    between atoms: C_2  and  N_3 
REMARK    1  A    between atoms: N_3  and  C_4 
REMARK    2  A    between atoms: C_6  and  O_7 
REMARK    3  A    between atoms: O_7  and  C_8 
REMARK    4  A    between atoms: C_8  and  C_9 
REMARK    5  A    between atoms: C_9  and  C_10 
REMARK    6  A    between atoms: C_10  and  C_11 
REMARK    7  A    between atoms: C_11  and  N_12 
REMARK       I    between atoms: N_12  and  C_13 
REMARK    8  A    between atoms: C_13  and  C_14 
REMARK    9  A    between atoms: C_18  and  C_19 
ROOT
HETATM    1  N   UNL     1     -44.382  57.403 -56.551  1.00  0.00    -0.345 N 
HETATM    2  C   UNL     1     -43.118  56.876 -56.639  1.00  0.00     0.270 C 
HETATM    3  O   UNL     1     -42.289  57.280 -57.447  1.00  0.00    -0.266 OA
HETATM    4  H   UNL     1     -44.995  57.121 -55.802  1.00  0.00     0.163 HD
ENDROOT
BRANCH   1   5
HETATM    5  C   UNL     1     -44.777  58.518 -57.369  1.00  0.00     0.217 C 
BRANCH   5   6
HETATM    6  C   UNL     1     -44.528  59.805 -56.599  1.00  0.00    -0.085 C 
BRANCH   6   7
HETATM    7  C   UNL     1     -44.313  60.909 -55.939  1.00  0.00    -0.078 C 
BRANCH   7   8
HETATM    8  C   UNL     1     -44.063  62.196 -55.171  1.00  0.00     0.269 C 
BRANCH   8   9
HETATM    9  O   UNL     1     -42.948  62.035 -54.299  1.00  0.00    -0.339 OA
BRANCH   9  10
HETATM   10  C   UNL     1     -43.205  61.394 -53.113  1.00  0.00     0.072 A 
HETATM   11  C   UNL     1     -42.473  60.323 -52.584  1.00  0.00     0.066 A 
HETATM   12  C   UNL     1     -42.812  59.761 -51.349  1.00  0.00     0.037 A 
HETATM   13  C   UNL     1     -43.913  60.272 -50.652  1.00  0.00     0.029 A 
HETATM   14  C   UNL     1     -44.653  61.332 -51.176  1.00  0.00     0.005 A 
HETATM   15  C   UNL     1     -44.297  61.892 -52.402  1.00  0.00     0.037 A 
BRANCH  12  16
HETATM   16  N   UNL     1     -42.102  58.698 -50.749  1.00  0.00    -0.327 N 
HETATM   17  C   UNL     1     -42.130  57.359 -51.100  1.00  0.00     0.218 C 
HETATM   18  C   UNL     1     -41.220  56.518 -50.241  1.00  0.00     0.117 C 
HETATM   19  O   UNL     1     -42.769  56.851 -52.016  1.00  0.00    -0.274 OA
HETATM   20  H   UNL     1     -41.483  58.955 -49.990  1.00  0.00     0.169 HD
ENDBRANCH  12  16
ENDBRANCH   9  10
ENDBRANCH   8   9
ENDBRANCH   7   8
ENDBRANCH   6   7
ENDBRANCH   5   6
ENDBRANCH   1   5
BRANCH   2  21
HETATM   21  C   UNL     1     -42.829  55.820 -55.708  1.00  0.00     0.120 A 
HETATM   22  N   UNL     1     -43.822  55.188 -55.013  1.00  0.00    -0.272 N 
HETATM   23  H   UNL     1     -44.818  55.379 -55.067  1.00  0.00     0.189 HD
HETATM   24  N   UNL     1     -43.388  54.225 -54.186  1.00  0.00    -0.174 NA
HETATM   25  C   UNL     1     -42.054  54.216 -54.340  1.00  0.00     0.089 A 
HETATM   26  C   UNL     1     -41.666  55.211 -55.282  1.00  0.00     0.071 A 
BRANCH  25  27
HETATM   27  C   UNL     1     -41.200  53.281 -53.599  1.00  0.00    -0.005 A 
HETATM   28  C   UNL     1     -40.888  53.497 -52.245  1.00  0.00     0.017 A 
HETATM   29  C   UNL     1     -40.071  52.599 -51.551  1.00  0.00     0.043 A 
HETATM   30  C   UNL     1     -39.564  51.483 -52.205  1.00  0.00     0.116 A 
HETATM   31  F   UNL     1     -38.782  50.625 -51.536  1.00  0.00    -0.206 F 
HETATM   32  C   UNL     1     -39.855  51.248 -53.542  1.00  0.00     0.043 A 
HETATM   33  C   UNL     1     -40.669  52.145 -54.236  1.00  0.00     0.017 A 
ENDBRANCH  25  27
ENDBRANCH   2  21
TORSDOF 9
ENDMDL
MODEL 8
REMARK VINA RESULT:      -7.4      1.984      2.978
REMARK  9 active torsions:
REMARK  status: ('A' for Active; 'I' for Inactive)
REMARK       I    between atoms: C_2  and  N_3 
REMARK    1  A    between atoms: N_3  and  C_4 
REMARK    2  A    between atoms: C_6  and  O_7 
REMARK    3  A    between atoms: O_7  and  C_8 
REMARK    4  A    between atoms: C_8  and  C_9 
REMARK    5  A    between atoms: C_9  and  C_10 
REMARK    6  A    between atoms: C_10  and  C_11 
REMARK    7  A    between atoms: C_11  and  N_12 
REMARK       I    between atoms: N_12  and  C_13 
REMARK    8  A    between atoms: C_13  and  C_14 
REMARK    9  A    between atoms: C_18  and  C_19 
ROOT
HETATM    1  N   UNL     1     -42.030  58.599 -53.516  1.00  0.00    -0.345 N 
HETATM    2  C   UNL     1     -41.909  57.657 -52.526  1.00  0.00     0.270 C 
HETATM    3  O   UNL     1     -42.231  57.875 -51.363  1.00  0.00    -0.266 OA
HETATM    4  H   UNL     1     -41.860  58.347 -54.476  1.00  0.00     0.163 HD
ENDROOT
BRANCH   1   5
HETATM    5  C   UNL     1     -42.613  59.885 -53.244  1.00  0.00     0.217 C 
BRANCH   5   6
HETATM    6  C   UNL     1     -42.816  60.619 -54.560  1.00  0.00    -0.085 C 
BRANCH   6   7
HETATM    7  C   UNL     1     -42.992  61.249 -55.688  1.00  0.00    -0.078 C 
BRANCH   7   8
HETATM    8  C   UNL     1     -43.196  61.982 -57.004  1.00  0.00     0.269 C 
BRANCH   8   9
HETATM    9  O   UNL     1     -44.179  61.313 -57.788  1.00  0.00    -0.339 OA
BRANCH   9  10
HETATM   10  C   UNL     1     -43.696  60.469 -58.758  1.00  0.00     0.072 A 
HETATM   11  C   UNL     1     -44.292  59.272 -59.174  1.00  0.00     0.066 A 
HETATM   12  C   UNL     1     -43.722  58.501 -60.193  1.00  0.00     0.037 A 
HETATM   13  C   UNL     1     -42.528  58.934 -60.782  1.00  0.00     0.029 A 
HETATM   14  C   UNL     1     -41.923  60.121 -60.366  1.00  0.00     0.005 A 
HETATM   15  C   UNL     1     -42.508  60.886 -59.359  1.00  0.00     0.037 A 
BRANCH  12  16
HETATM   16  N   UNL     1     -44.283  57.299 -60.676  1.00  0.00    -0.327 N 
HETATM   17  C   UNL     1     -44.153  56.030 -60.136  1.00  0.00     0.218 C 
HETATM   18  C   UNL     1     -44.916  54.990 -60.918  1.00  0.00     0.117 C 
HETATM   19  O   UNL     1     -43.536  55.719 -59.123  1.00  0.00    -0.274 OA
HETATM   20  H   UNL     1     -44.869  57.385 -61.497  1.00  0.00     0.169 HD
ENDBRANCH  12  16
ENDBRANCH   9  10
ENDBRANCH   8   9
ENDBRANCH   7   8
ENDBRANCH   6   7
ENDBRANCH   5   6
ENDBRANCH   1   5
BRANCH   2  21
HETATM   21  C   UNL     1     -41.386  56.387 -52.951  1.00  0.00     0.120 A 
HETATM   22  N   UNL     1     -40.847  56.216 -54.195  1.00  0.00    -0.272 N 
HETATM   23  H   UNL     1     -40.759  56.920 -54.921  1.00  0.00     0.189 HD
HETATM   24  N   UNL     1     -40.402  54.974 -54.436  1.00  0.00    -0.174 NA
HETATM   25  C   UNL     1     -40.654  54.294 -53.306  1.00  0.00     0.089 A 
HETATM   26  C   UNL     1     -41.280  55.147 -52.353  1.00  0.00     0.071 A 
BRANCH  25  27
HETATM   27  C   UNL     1     -40.302  52.876 -53.166  1.00  0.00    -0.005 A 
HETATM   28  C   UNL     1     -40.403  51.990 -54.253  1.00  0.00     0.017 A 
HETATM   29  C   UNL     1     -40.067  50.641 -54.106  1.00  0.00     0.043 A 
HETATM   30  C   UNL     1     -39.628  50.172 -52.874  1.00  0.00     0.116 A 
HETATM   31  F   UNL     1     -39.307  48.878 -52.737  1.00  0.00    -0.206 F 
HETATM   32  C   UNL     1     -39.521  51.025 -51.784  1.00  0.00     0.043 A 
HETATM   33  C   UNL     1     -39.858  52.372 -51.930  1.00  0.00     0.017 A 
ENDBRANCH  25  27
ENDBRANCH   2  21
TORSDOF 9
ENDMDL
MODEL 9
REMARK VINA RESULT:      -7.4      2.425      3.398
REMARK  9 active torsions:
REMARK  status: ('A' for Active; 'I' for Inactive)
REMARK       I    between atoms: C_2  and  N_3 
REMARK    1  A    between atoms: N_3  and  C_4 
REMARK    2  A    between atoms: C_6  and  O_7 
REMARK    3  A    between atoms: O_7  and  C_8 
REMARK    4  A    between atoms: C_8  and  C_9 
REMARK    5  A    between atoms: C_9  and  C_10 
REMARK    6  A    between atoms: C_10  and  C_11 
REMARK    7  A    between atoms: C_11  and  N_12 
REMARK       I    between atoms: N_12  and  C_13 
REMARK    8  A    between atoms: C_13  and  C_14 
REMARK    9  A    between atoms: C_18  and  C_19 
ROOT
HETATM    1  N   UNL     1     -43.761  58.130 -52.859  1.00  0.00    -0.345 N 
HETATM    2  C   UNL     1     -43.647  57.021 -52.060  1.00  0.00     0.270 C 
HETATM    3  O   UNL     1     -44.313  56.869 -51.041  1.00  0.00    -0.266 OA
HETATM    4  H   UNL     1     -43.279  58.166 -53.743  1.00  0.00     0.163 HD
ENDROOT
BRANCH   1   5
HETATM    5  C   UNL     1     -44.732  59.151 -52.572  1.00  0.00     0.217 C 
BRANCH   5   6
HETATM    6  C   UNL     1     -45.176  59.787 -53.880  1.00  0.00    -0.085 C 
BRANCH   6   7
HETATM    7  C   UNL     1     -45.557  60.332 -55.002  1.00  0.00    -0.078 C 
BRANCH   7   8
HETATM    8  C   UNL     1     -45.999  60.967 -56.310  1.00  0.00     0.269 C 
BRANCH   8   9
HETATM    9  O   UNL     1     -45.134  60.563 -57.366  1.00  0.00    -0.339 OA
BRANCH   9  10
HETATM   10  C   UNL     1     -45.634  59.606 -58.215  1.00  0.00     0.072 A 
HETATM   11  C   UNL     1     -45.290  58.248 -58.215  1.00  0.00     0.066 A 
HETATM   12  C   UNL     1     -45.883  57.356 -59.114  1.00  0.00     0.037 A 
HETATM   13  C   UNL     1     -46.818  57.845 -60.034  1.00  0.00     0.029 A 
HETATM   14  C   UNL     1     -47.160  59.197 -60.048  1.00  0.00     0.005 A 
HETATM   15  C   UNL     1     -46.570  60.073 -59.138  1.00  0.00     0.037 A 
BRANCH  12  16
HETATM   16  N   UNL     1     -45.599  55.974 -59.151  1.00  0.00    -0.327 N 
HETATM   17  C   UNL     1     -44.713  55.316 -59.987  1.00  0.00     0.218 C 
HETATM   18  C   UNL     1     -44.661  53.832 -59.719  1.00  0.00     0.117 C 
HETATM   19  O   UNL     1     -43.995  55.820 -60.844  1.00  0.00    -0.274 OA
HETATM   20  H   UNL     1     -46.084  55.406 -58.466  1.00  0.00     0.169 HD
ENDBRANCH  12  16
ENDBRANCH   9  10
ENDBRANCH   8   9
ENDBRANCH   7   8
ENDBRANCH   6   7
ENDBRANCH   5   6
ENDBRANCH   1   5
BRANCH   2  21
HETATM   21  C   UNL     1     -42.695  56.040 -52.505  1.00  0.00     0.120 A 
HETATM   22  N   UNL     1     -41.676  56.368 -53.355  1.00  0.00    -0.272 N 
HETATM   23  H   UNL     1     -41.483  57.284 -53.749  1.00  0.00     0.189 HD
HETATM   24  N   UNL     1     -40.874  55.342 -53.674  1.00  0.00    -0.174 NA
HETATM   25  C   UNL     1     -41.379  54.291 -53.008  1.00  0.00     0.089 A 
HETATM   26  C   UNL     1     -42.530  54.691 -52.270  1.00  0.00     0.071 A 
BRANCH  25  27
HETATM   27  C   UNL     1     -40.768  52.960 -53.093  1.00  0.00    -0.005 A 
HETATM   28  C   UNL     1     -40.090  52.399 -51.997  1.00  0.00     0.017 A 
HETATM   29  C   UNL     1     -39.510  51.130 -52.092  1.00  0.00     0.043 A 
HETATM   30  C   UNL     1     -39.606  50.417 -53.279  1.00  0.00     0.116 A 
HETATM   31  F   UNL     1     -39.050  49.201 -53.366  1.00  0.00    -0.206 F 
HETATM   32  C   UNL     1     -40.269  50.948 -54.377  1.00  0.00     0.043 A 
HETATM   33  C   UNL     1     -40.847  52.216 -54.284  1.00  0.00     0.017 A 
ENDBRANCH  25  27
ENDBRANCH   2  21
TORSDOF 9
ENDMDL
MODEL 10
REMARK VINA RESULT:      -7.2      1.953      2.923
REMARK  9 active torsions:
REMARK  status: ('A' for Active; 'I' for Inactive)
REMARK       I    between atoms: C_2  and  N_3 
REMARK    1  A    between atoms: N_3  and  C_4 
REMARK    2  A    between atoms: C_6  and  O_7 
REMARK    3  A    between atoms: O_7  and  C_8 
REMARK    4  A    between atoms: C_8  and  C_9 
REMARK    5  A    between atoms: C_9  and  C_10 
REMARK    6  A    between atoms: C_10  and  C_11 
REMARK    7  A    between atoms: C_11  and  N_12 
REMARK       I    between atoms: N_12  and  C_13 
REMARK    8  A    between atoms: C_13  and  C_14 
REMARK    9  A    between atoms: C_18  and  C_19 
ROOT
HETATM    1  N   UNL     1     -42.241  59.249 -56.007  1.00  0.00    -0.345 N 
HETATM    2  C   UNL     1     -41.787  58.844 -54.778  1.00  0.00     0.270 C 
HETATM    3  O   UNL     1     -41.502  59.636 -53.885  1.00  0.00    -0.266 OA
HETATM    4  H   UNL     1     -42.569  58.568 -56.673  1.00  0.00     0.163 HD
ENDROOT
BRANCH   1   5
HETATM    5  C   UNL     1     -42.472  60.640 -56.289  1.00  0.00     0.217 C 
BRANCH   5   6
HETATM    6  C   UNL     1     -42.243  60.886 -57.772  1.00  0.00    -0.085 C 
BRANCH   6   7
HETATM    7  C   UNL     1     -42.047  61.097 -59.043  1.00  0.00    -0.078 C 
BRANCH   7   8
HETATM    8  C   UNL     1     -41.818  61.343 -60.526  1.00  0.00     0.269 C 
BRANCH   8   9
HETATM    9  O   UNL     1     -42.033  60.141 -61.259  1.00  0.00    -0.339 OA
BRANCH   9  10
HETATM   10  C   UNL     1     -43.159  59.430 -60.924  1.00  0.00     0.072 A 
HETATM   11  C   UNL     1     -43.190  58.097 -60.495  1.00  0.00     0.066 A 
HETATM   12  C   UNL     1     -44.398  57.479 -60.156  1.00  0.00     0.037 A 
HETATM   13  C   UNL     1     -45.587  58.208 -60.272  1.00  0.00     0.029 A 
HETATM   14  C   UNL     1     -45.566  59.533 -60.708  1.00  0.00     0.005 A 
HETATM   15  C   UNL     1     -44.354  60.141 -61.030  1.00  0.00     0.037 A 
BRANCH  12  16
HETATM   16  N   UNL     1     -44.496  56.148 -59.694  1.00  0.00    -0.327 N 
HETATM   17  C   UNL     1     -44.795  55.017 -60.434  1.00  0.00     0.218 C 
HETATM   18  C   UNL     1     -44.790  53.762 -59.598  1.00  0.00     0.117 C 
HETATM   19  O   UNL     1     -45.013  54.961 -61.640  1.00  0.00    -0.274 OA
HETATM   20  H   UNL     1     -44.299  56.007 -58.711  1.00  0.00     0.169 HD
ENDBRANCH  12  16
ENDBRANCH   9  10
ENDBRANCH   8   9
ENDBRANCH   7   8
ENDBRANCH   6   7
ENDBRANCH   5   6
ENDBRANCH   1   5
BRANCH   2  21
HETATM   21  C   UNL     1     -41.678  57.421 -54.603  1.00  0.00     0.120 A 
HETATM   22  N   UNL     1     -42.436  56.551 -55.336  1.00  0.00    -0.272 N 
HETATM   23  H   UNL     1     -43.124  56.791 -56.043  1.00  0.00     0.189 HD
HETATM   24  N   UNL     1     -42.215  55.259 -55.056  1.00  0.00    -0.174 NA
HETATM   25  C   UNL     1     -41.271  55.271 -54.101  1.00  0.00     0.089 A 
HETATM   26  C   UNL     1     -40.915  56.613 -53.785  1.00  0.00     0.071 A 
BRANCH  25  27
HETATM   27  C   UNL     1     -40.745  54.029 -53.523  1.00  0.00    -0.005 A 
HETATM   28  C   UNL     1     -40.708  53.832 -52.132  1.00  0.00     0.017 A 
HETATM   29  C   UNL     1     -40.201  52.644 -51.594  1.00  0.00     0.043 A 
HETATM   30  C   UNL     1     -39.732  51.650 -52.443  1.00  0.00     0.116 A 
HETATM   31  F   UNL     1     -39.247  50.514 -51.924  1.00  0.00    -0.206 F 
HETATM   32  C   UNL     1     -39.755  51.820 -53.821  1.00  0.00     0.043 A 
HETATM   33  C   UNL     1     -40.259  53.006 -54.358  1.00  0.00     0.017 A 
ENDBRANCH  25  27
ENDBRANCH   2  21
TORSDOF 9
ENDMDL
