MODEL 1
REMARK VINA RESULT:      -8.0      0.000      0.000
REMARK  8 active torsions:
REMARK  status: ('A' for Active; 'I' for Inactive)
REMARK    1  A    between atoms: C_7  and  C_8 
REMARK    2  A    between atoms: C_8  and  O_9 
REMARK    3  A    between atoms: O_9  and  C_10 
REMARK    4  A    between atoms: C_13  and  C_14 
REMARK       I    between atoms: C_14  and  N_15 
REMARK    5  A    between atoms: N_15  and  C_16 
REMARK    6  A    between atoms: C_16  and  C_17 
REMARK    7  A    between atoms: C_20  and  C_21 
REMARK    8  A    between atoms: C_21  and  N_22 
ROOT
HETATM    1  C   UNL     1     -43.205  57.925 -53.293  1.00  0.00     0.251 C 
HETATM    2  N   UNL     1     -44.507  57.891 -53.746  1.00  0.00    -0.353 N 
HETATM    3  O   UNL     1     -42.508  58.933 -53.317  1.00  0.00    -0.268 OA
HETATM    4  H   UNL     1     -45.086  57.083 -53.565  1.00  0.00     0.163 HD
ENDROOT
BRANCH   1   5
HETATM    5  C   UNL     1     -42.653  56.646 -52.771  1.00  0.00     0.032 A 
HETATM    6  C   UNL     1     -41.531  56.613 -51.936  1.00  0.00     0.020 A 
HETATM    7  C   UNL     1     -41.089  55.397 -51.410  1.00  0.00     0.038 A 
HETATM    8  C   UNL     1     -41.766  54.209 -51.695  1.00  0.00     0.069 A 
HETATM    9  C   UNL     1     -42.871  54.234 -52.544  1.00  0.00     0.038 A 
HETATM   10  C   UNL     1     -43.321  55.451 -53.071  1.00  0.00     0.020 A 
BRANCH   8  11
HETATM   11  O   UNL     1     -41.247  53.104 -51.083  1.00  0.00    -0.347 OA
BRANCH  11  12
HETATM   12  C   UNL     1     -39.888  52.774 -51.371  1.00  0.00     0.219 C 
BRANCH  12  13
HETATM   13  C   UNL     1     -39.837  51.701 -52.399  1.00  0.00     0.024 A 
HETATM   14  C   UNL     1     -39.633  50.311 -52.189  1.00  0.00     0.069 A 
HETATM   15  C   UNL     1     -39.418  49.600 -50.907  1.00  0.00     0.073 C 
HETATM   16  N   UNL     1     -39.645  49.633 -53.342  1.00  0.00    -0.133 NA
HETATM   17  O   UNL     1     -39.842  50.577 -54.330  1.00  0.00    -0.217 OA
HETATM   18  C   UNL     1     -39.952  51.809 -53.768  1.00  0.00     0.085 A 
HETATM   19  C   UNL     1     -40.148  52.935 -54.699  1.00  0.00     0.079 C 
ENDBRANCH  12  13
ENDBRANCH  11  12
ENDBRANCH   8  11
ENDBRANCH   1   5
BRANCH   2  20
HETATM   20  C   UNL     1     -45.107  59.026 -54.413  1.00  0.00     0.161 C 
BRANCH  20  21
HETATM   21  C   UNL     1     -45.144  58.876 -55.920  1.00  0.00    -0.041 A 
HETATM   22  C   UNL     1     -46.213  58.257 -56.582  1.00  0.00     0.009 A 
HETATM   23  C   UNL     1     -46.202  58.099 -57.969  1.00  0.00     0.009 A 
HETATM   24  C   UNL     1     -45.135  58.586 -58.734  1.00  0.00    -0.033 A 
HETATM   25  C   UNL     1     -44.084  59.246 -58.083  1.00  0.00     0.009 A 
HETATM   26  C   UNL     1     -44.090  59.387 -56.692  1.00  0.00     0.009 A 
BRANCH  24  27
HETATM   27  C   UNL     1     -45.119  58.394 -60.226  1.00  0.00     0.273 C 
BRANCH  27  28
HETATM   28  N   UNL     1     -44.308  57.202 -60.674  1.00  0.00    -0.067 N 
HETATM   29  H   UNL     1     -44.395  57.164 -61.698  1.00  0.00     0.280 HD
HETATM   30  C   UNL     1     -44.780  55.870 -60.128  1.00  0.00     0.235 C 
HETATM   31  C   UNL     1     -43.787  55.557 -59.029  1.00  0.00     0.029 C 
HETATM   32  C   UNL     1     -42.479  56.030 -59.624  1.00  0.00     0.029 C 
HETATM   33  C   UNL     1     -42.840  57.336 -60.310  1.00  0.00     0.235 C 
ENDBRANCH  27  28
ENDBRANCH  24  27
ENDBRANCH  20  21
ENDBRANCH   2  20
TORSDOF 8
ENDMDL
MODEL 2
REMARK VINA RESULT:      -7.9      0.421      1.473
REMARK  8 active torsions:
REMARK  status: ('A' for Active; 'I' for Inactive)
REMARK    1  A    between atoms: C_7  and  C_8 
REMARK    2  A    between atoms: C_8  and  O_9 
REMARK    3  A    between atoms: O_9  and  C_10 
REMARK    4  A    between atoms: C_13  and  C_14 
REMARK       I    between atoms: C_14  and  N_15 
REMARK    5  A    between atoms: N_15  and  C_16 
REMARK    6  A    between atoms: C_16  and  C_17 
REMARK    7  A    between atoms: C_20  and  C_21 
REMARK    8  A    between atoms: C_21  and  N_22 
ROOT
HETATM    1  C   UNL     1     -43.304  57.905 -53.028  1.00  0.00     0.251 C 
HETATM    2  N   UNL     1     -44.471  57.809 -53.755  1.00  0.00    -0.353 N 
HETATM    3  O   UNL     1     -42.754  58.970 -52.770  1.00  0.00    -0.268 OA
HETATM    4  H   UNL     1     -44.963  56.929 -53.809  1.00  0.00     0.163 HD
ENDROOT
BRANCH   1   5
HETATM    5  C   UNL     1     -42.705  56.623 -52.566  1.00  0.00     0.032 A 
HETATM    6  C   UNL     1     -41.572  56.592 -51.746  1.00  0.00     0.020 A 
HETATM    7  C   UNL     1     -41.085  55.370 -51.276  1.00  0.00     0.038 A 
HETATM    8  C   UNL     1     -41.728  54.174 -51.603  1.00  0.00     0.069 A 
HETATM    9  C   UNL     1     -42.844  54.199 -52.438  1.00  0.00     0.038 A 
HETATM   10  C   UNL     1     -43.338  55.422 -52.909  1.00  0.00     0.020 A 
BRANCH   8  11
HETATM   11  O   UNL     1     -41.166  53.062 -51.044  1.00  0.00    -0.347 OA
BRANCH  11  12
HETATM   12  C   UNL     1     -39.815  52.763 -51.396  1.00  0.00     0.219 C 
BRANCH  12  13
HETATM   13  C   UNL     1     -39.783  51.609 -52.333  1.00  0.00     0.024 A 
HETATM   14  C   UNL     1     -39.931  51.637 -53.746  1.00  0.00     0.069 A 
HETATM   15  C   UNL     1     -40.156  52.812 -54.620  1.00  0.00     0.073 C 
HETATM   16  N   UNL     1     -39.849  50.411 -54.273  1.00  0.00    -0.133 NA
HETATM   17  O   UNL     1     -39.662  49.555 -53.205  1.00  0.00    -0.217 OA
HETATM   18  C   UNL     1     -39.626  50.269 -52.050  1.00  0.00     0.085 A 
HETATM   19  C   UNL     1     -39.450  49.493 -50.809  1.00  0.00     0.079 C 
ENDBRANCH  12  13
ENDBRANCH  11  12
ENDBRANCH   8  11
ENDBRANCH   1   5
BRANCH   2  20
HETATM   20  C   UNL     1     -45.068  58.966 -54.385  1.00  0.00     0.161 C 
BRANCH  20  21
HETATM   21  C   UNL     1     -45.115  58.860 -55.895  1.00  0.00    -0.041 A 
HETATM   22  C   UNL     1     -46.114  58.138 -56.562  1.00  0.00     0.009 A 
HETATM   23  C   UNL     1     -46.110  58.026 -57.954  1.00  0.00     0.009 A 
HETATM   24  C   UNL     1     -45.122  58.660 -58.718  1.00  0.00    -0.033 A 
HETATM   25  C   UNL     1     -44.146  59.419 -58.060  1.00  0.00     0.009 A 
HETATM   26  C   UNL     1     -44.143  59.516 -56.665  1.00  0.00     0.009 A 
BRANCH  24  27
HETATM   27  C   UNL     1     -45.111  58.516 -60.215  1.00  0.00     0.273 C 
BRANCH  27  28
HETATM   28  N   UNL     1     -44.198  57.422 -60.712  1.00  0.00    -0.067 N 
HETATM   29  H   UNL     1     -44.017  57.626 -61.703  1.00  0.00     0.280 HD
HETATM   30  C   UNL     1     -44.779  56.025 -60.635  1.00  0.00     0.235 C 
HETATM   31  C   UNL     1     -44.101  55.417 -59.426  1.00  0.00     0.029 C 
HETATM   32  C   UNL     1     -42.688  55.948 -59.541  1.00  0.00     0.029 C 
HETATM   33  C   UNL     1     -42.875  57.394 -59.966  1.00  0.00     0.235 C 
ENDBRANCH  27  28
ENDBRANCH  24  27
ENDBRANCH  20  21
ENDBRANCH   2  20
TORSDOF 8
ENDMDL
MODEL 3
REMARK VINA RESULT:      -7.9      2.032      2.877
REMARK  8 active torsions:
REMARK  status: ('A' for Active; 'I' for Inactive)
REMARK    1  A    between atoms: C_7  and  C_8 
REMARK    2  A    between atoms: C_8  and  O_9 
REMARK    3  A    between atoms: O_9  and  C_10 
REMARK    4  A    between atoms: C_13  and  C_14 
REMARK       I    between atoms: C_14  and  N_15 
REMARK    5  A    between atoms: N_15  and  C_16 
REMARK    6  A    between atoms: C_16  and  C_17 
REMARK    7  A    between atoms: C_20  and  C_21 
REMARK    8  A    between atoms: C_21  and  N_22 
ROOT
HETATM    1  C   UNL     1     -43.462  57.062 -54.649  1.00  0.00     0.251 C 
HETATM    2  N   UNL     1     -42.933  57.209 -55.914  1.00  0.00    -0.353 N 
HETATM    3  O   UNL     1     -44.402  57.727 -54.228  1.00  0.00    -0.268 OA
HETATM    4  H   UNL     1     -42.265  56.538 -56.265  1.00  0.00     0.163 HD
ENDROOT
BRANCH   1   5
HETATM    5  C   UNL     1     -42.816  56.044 -53.777  1.00  0.00     0.032 A 
HETATM    6  C   UNL     1     -41.551  56.250 -53.216  1.00  0.00     0.020 A 
HETATM    7  C   UNL     1     -41.011  55.301 -52.345  1.00  0.00     0.038 A 
HETATM    8  C   UNL     1     -41.730  54.150 -52.012  1.00  0.00     0.069 A 
HETATM    9  C   UNL     1     -42.981  53.930 -52.587  1.00  0.00     0.038 A 
HETATM   10  C   UNL     1     -43.528  54.881 -53.457  1.00  0.00     0.020 A 
BRANCH   8  11
HETATM   11  O   UNL     1     -41.098  53.329 -51.122  1.00  0.00    -0.347 OA
BRANCH  11  12
HETATM   12  C   UNL     1     -39.763  52.929 -51.433  1.00  0.00     0.219 C 
BRANCH  12  13
HETATM   13  C   UNL     1     -39.789  51.773 -52.368  1.00  0.00     0.024 A 
HETATM   14  C   UNL     1     -39.667  50.395 -52.043  1.00  0.00     0.069 A 
HETATM   15  C   UNL     1     -39.482  49.782 -50.707  1.00  0.00     0.073 C 
HETATM   16  N   UNL     1     -39.733  49.625 -53.135  1.00  0.00    -0.133 NA
HETATM   17  O   UNL     1     -39.883  50.494 -54.197  1.00  0.00    -0.217 OA
HETATM   18  C   UNL     1     -39.912  51.773 -53.741  1.00  0.00     0.085 A 
HETATM   19  C   UNL     1     -40.049  52.827 -54.762  1.00  0.00     0.079 C 
ENDBRANCH  12  13
ENDBRANCH  11  12
ENDBRANCH   8  11
ENDBRANCH   1   5
BRANCH   2  20
HETATM   20  C   UNL     1     -43.374  58.264 -56.800  1.00  0.00     0.161 C 
BRANCH  20  21
HETATM   21  C   UNL     1     -44.439  57.810 -57.777  1.00  0.00    -0.041 A 
HETATM   22  C   UNL     1     -45.797  58.099 -57.589  1.00  0.00     0.009 A 
HETATM   23  C   UNL     1     -46.761  57.634 -58.486  1.00  0.00     0.009 A 
HETATM   24  C   UNL     1     -46.387  56.894 -59.615  1.00  0.00    -0.033 A 
HETATM   25  C   UNL     1     -45.026  56.640 -59.833  1.00  0.00     0.009 A 
HETATM   26  C   UNL     1     -44.066  57.092 -58.923  1.00  0.00     0.009 A 
BRANCH  24  27
HETATM   27  C   UNL     1     -47.432  56.379 -60.566  1.00  0.00     0.273 C 
BRANCH  27  28
HETATM   28  N   UNL     1     -47.536  57.177 -61.842  1.00  0.00    -0.067 N 
HETATM   29  H   UNL     1     -46.671  56.995 -62.367  1.00  0.00     0.280 HD
HETATM   30  C   UNL     1     -47.643  58.676 -61.648  1.00  0.00     0.235 C 
HETATM   31  C   UNL     1     -49.110  58.968 -61.882  1.00  0.00     0.029 C 
HETATM   32  C   UNL     1     -49.449  58.044 -63.031  1.00  0.00     0.029 C 
HETATM   33  C   UNL     1     -48.723  56.754 -62.690  1.00  0.00     0.235 C 
ENDBRANCH  27  28
ENDBRANCH  24  27
ENDBRANCH  20  21
ENDBRANCH   2  20
TORSDOF 8
ENDMDL
MODEL 4
REMARK VINA RESULT:      -7.7      4.276      7.380
REMARK  8 active torsions:
REMARK  status: ('A' for Active; 'I' for Inactive)
REMARK    1  A    between atoms: C_7  and  C_8 
REMARK    2  A    between atoms: C_8  and  O_9 
REMARK    3  A    between atoms: O_9  and  C_10 
REMARK    4  A    between atoms: C_13  and  C_14 
REMARK       I    between atoms: C_14  and  N_15 
REMARK    5  A    between atoms: N_15  and  C_16 
REMARK    6  A    between atoms: C_16  and  C_17 
REMARK    7  A    between atoms: C_20  and  C_21 
REMARK    8  A    between atoms: C_21  and  N_22 
ROOT
HETATM    1  C   UNL     1     -43.796  57.581 -52.303  1.00  0.00     0.251 C 
HETATM    2  N   UNL     1     -42.998  58.575 -52.828  1.00  0.00    -0.353 N 
HETATM    3  O   UNL     1     -45.013  57.675 -52.200  1.00  0.00    -0.268 OA
HETATM    4  H   UNL     1     -42.027  58.392 -53.032  1.00  0.00     0.163 HD
ENDROOT
BRANCH   1   5
HETATM    5  C   UNL     1     -43.097  56.353 -51.834  1.00  0.00     0.032 A 
HETATM    6  C   UNL     1     -43.351  55.099 -52.400  1.00  0.00     0.020 A 
HETATM    7  C   UNL     1     -42.621  53.985 -51.980  1.00  0.00     0.038 A 
HETATM    8  C   UNL     1     -41.626  54.109 -51.008  1.00  0.00     0.069 A 
HETATM    9  C   UNL     1     -41.386  55.353 -50.425  1.00  0.00     0.038 A 
HETATM   10  C   UNL     1     -42.112  56.475 -50.846  1.00  0.00     0.020 A 
BRANCH   8  11
HETATM   11  O   UNL     1     -40.969  52.947 -50.723  1.00  0.00    -0.347 OA
BRANCH  11  12
HETATM   12  C   UNL     1     -39.684  52.757 -51.318  1.00  0.00     0.219 C 
BRANCH  12  13
HETATM   13  C   UNL     1     -39.765  51.703 -52.364  1.00  0.00     0.024 A 
HETATM   14  C   UNL     1     -39.626  50.300 -52.190  1.00  0.00     0.069 A 
HETATM   15  C   UNL     1     -39.364  49.553 -50.938  1.00  0.00     0.073 C 
HETATM   16  N   UNL     1     -39.756  49.646 -53.349  1.00  0.00    -0.133 NA
HETATM   17  O   UNL     1     -39.967  50.619 -54.307  1.00  0.00    -0.217 OA
HETATM   18  C   UNL     1     -39.969  51.844 -53.720  1.00  0.00     0.085 A 
HETATM   19  C   UNL     1     -40.164  52.997 -54.617  1.00  0.00     0.079 C 
ENDBRANCH  12  13
ENDBRANCH  11  12
ENDBRANCH   8  11
ENDBRANCH   1   5
BRANCH   2  20
HETATM   20  C   UNL     1     -43.538  59.871 -53.179  1.00  0.00     0.161 C 
BRANCH  20  21
HETATM   21  C   UNL     1     -43.809  60.746 -51.972  1.00  0.00    -0.041 A 
HETATM   22  C   UNL     1     -42.795  61.134 -51.088  1.00  0.00     0.009 A 
HETATM   23  C   UNL     1     -43.081  61.909 -49.963  1.00  0.00     0.009 A 
HETATM   24  C   UNL     1     -44.388  62.344 -49.710  1.00  0.00    -0.033 A 
HETATM   25  C   UNL     1     -45.401  61.997 -50.615  1.00  0.00     0.009 A 
HETATM   26  C   UNL     1     -45.113  61.206 -51.731  1.00  0.00     0.009 A 
BRANCH  24  27
HETATM   27  C   UNL     1     -44.694  63.161 -48.485  1.00  0.00     0.273 C 
BRANCH  27  28
HETATM   28  N   UNL     1     -45.538  62.432 -47.466  1.00  0.00    -0.067 N 
HETATM   29  H   UNL     1     -46.396  62.146 -47.955  1.00  0.00     0.280 HD
HETATM   30  C   UNL     1     -45.951  63.265 -46.270  1.00  0.00     0.235 C 
HETATM   31  C   UNL     1     -45.027  62.800 -45.166  1.00  0.00     0.029 C 
HETATM   32  C   UNL     1     -44.946  61.308 -45.414  1.00  0.00     0.029 C 
HETATM   33  C   UNL     1     -44.844  61.194 -46.925  1.00  0.00     0.235 C 
ENDBRANCH  27  28
ENDBRANCH  24  27
ENDBRANCH  20  21
ENDBRANCH   2  20
TORSDOF 8
ENDMDL
MODEL 5
REMARK VINA RESULT:      -7.6      2.305      8.516
REMARK  8 active torsions:
REMARK  status: ('A' for Active; 'I' for Inactive)
REMARK    1  A    between atoms: C_7  and  C_8 
REMARK    2  A    between atoms: C_8  and  O_9 
REMARK    3  A    between atoms: O_9  and  C_10 
REMARK    4  A    between atoms: C_13  and  C_14 
REMARK       I    between atoms: C_14  and  N_15 
REMARK    5  A    between atoms: N_15  and  C_16 
REMARK    6  A    between atoms: C_16  and  C_17 
REMARK    7  A    between atoms: C_20  and  C_21 
REMARK    8  A    between atoms: C_21  and  N_22 
ROOT
HETATM    1  C   UNL     1     -42.481  58.245 -54.040  1.00  0.00     0.251 C 
HETATM    2  N   UNL     1     -43.160  57.694 -52.974  1.00  0.00    -0.353 N 
HETATM    3  O   UNL     1     -41.292  58.543 -54.002  1.00  0.00    -0.268 OA
HETATM    4  H   UNL     1     -44.092  57.326 -53.102  1.00  0.00     0.163 HD
ENDROOT
BRANCH   1   5
HETATM    5  C   UNL     1     -43.275  58.488 -55.275  1.00  0.00     0.032 A 
HETATM    6  C   UNL     1     -42.749  59.195 -56.361  1.00  0.00     0.020 A 
HETATM    7  C   UNL     1     -43.503  59.338 -57.529  1.00  0.00     0.038 A 
HETATM    8  C   UNL     1     -44.774  58.769 -57.632  1.00  0.00     0.069 A 
HETATM    9  C   UNL     1     -45.310  58.083 -56.543  1.00  0.00     0.038 A 
HETATM   10  C   UNL     1     -44.557  57.933 -55.371  1.00  0.00     0.020 A 
BRANCH   8  11
HETATM   11  O   UNL     1     -45.379  58.956 -58.841  1.00  0.00    -0.347 OA
BRANCH  11  12
HETATM   12  C   UNL     1     -44.706  58.451 -59.996  1.00  0.00     0.219 C 
BRANCH  12  13
HETATM   13  C   UNL     1     -44.823  56.970 -60.040  1.00  0.00     0.024 A 
HETATM   14  C   UNL     1     -43.798  56.013 -59.809  1.00  0.00     0.069 A 
HETATM   15  C   UNL     1     -42.376  56.258 -59.475  1.00  0.00     0.073 C 
HETATM   16  N   UNL     1     -44.256  54.763 -59.932  1.00  0.00    -0.133 NA
HETATM   17  O   UNL     1     -45.591  54.884 -60.263  1.00  0.00    -0.217 OA
HETATM   18  C   UNL     1     -45.928  56.198 -60.331  1.00  0.00     0.085 A 
HETATM   19  C   UNL     1     -47.325  56.496 -60.696  1.00  0.00     0.079 C 
ENDBRANCH  12  13
ENDBRANCH  11  12
ENDBRANCH   8  11
ENDBRANCH   1   5
BRANCH   2  20
HETATM   20  C   UNL     1     -42.539  57.548 -51.675  1.00  0.00     0.161 C 
BRANCH  20  21
HETATM   21  C   UNL     1     -42.004  56.153 -51.427  1.00  0.00    -0.041 A 
HETATM   22  C   UNL     1     -40.847  55.919 -50.672  1.00  0.00     0.009 A 
HETATM   23  C   UNL     1     -40.357  54.625 -50.493  1.00  0.00     0.009 A 
HETATM   24  C   UNL     1     -41.030  53.525 -51.039  1.00  0.00    -0.033 A 
HETATM   25  C   UNL     1     -42.212  53.747 -51.758  1.00  0.00     0.009 A 
HETATM   26  C   UNL     1     -42.691  55.046 -51.950  1.00  0.00     0.009 A 
BRANCH  24  27
HETATM   27  C   UNL     1     -40.484  52.135 -50.860  1.00  0.00     0.273 C 
BRANCH  27  28
HETATM   28  N   UNL     1     -39.530  51.713 -51.952  1.00  0.00    -0.067 N 
HETATM   29  H   UNL     1     -38.598  52.031 -51.658  1.00  0.00     0.280 HD
HETATM   30  C   UNL     1     -39.810  52.321 -53.311  1.00  0.00     0.235 C 
HETATM   31  C   UNL     1     -40.471  51.199 -54.081  1.00  0.00     0.029 C 
HETATM   32  C   UNL     1     -39.688  49.985 -53.629  1.00  0.00     0.029 C 
HETATM   33  C   UNL     1     -39.500  50.206 -52.138  1.00  0.00     0.235 C 
ENDBRANCH  27  28
ENDBRANCH  24  27
ENDBRANCH  20  21
ENDBRANCH   2  20
TORSDOF 8
ENDMDL
MODEL 6
REMARK VINA RESULT:      -7.6      2.308      8.520
REMARK  8 active torsions:
REMARK  status: ('A' for Active; 'I' for Inactive)
REMARK    1  A    between atoms: C_7  and  C_8 
REMARK    2  A    between atoms: C_8  and  O_9 
REMARK    3  A    between atoms: O_9  and  C_10 
REMARK    4  A    between atoms: C_13  and  C_14 
REMARK       I    between atoms: C_14  and  N_15 
REMARK    5  A    between atoms: N_15  and  C_16 
REMARK    6  A    between atoms: C_16  and  C_17 
REMARK    7  A    between atoms: C_20  and  C_21 
REMARK    8  A    between atoms: C_21  and  N_22 
ROOT
HETATM    1  C   UNL     1     -43.209  57.678 -52.424  1.00  0.00     0.251 C 
HETATM    2  N   UNL     1     -41.884  57.570 -52.061  1.00  0.00    -0.353 N 
HETATM    3  O   UNL     1     -44.140  57.470 -51.654  1.00  0.00    -0.268 OA
HETATM    4  H   UNL     1     -41.159  57.897 -52.683  1.00  0.00     0.163 HD
ENDROOT
BRANCH   1   5
HETATM    5  C   UNL     1     -43.477  58.051 -53.840  1.00  0.00     0.032 A 
HETATM    6  C   UNL     1     -44.731  57.855 -54.428  1.00  0.00     0.020 A 
HETATM    7  C   UNL     1     -44.962  58.286 -55.737  1.00  0.00     0.038 A 
HETATM    8  C   UNL     1     -43.956  58.927 -56.464  1.00  0.00     0.069 A 
HETATM    9  C   UNL     1     -42.698  59.103 -55.889  1.00  0.00     0.038 A 
HETATM   10  C   UNL     1     -42.463  58.677 -54.575  1.00  0.00     0.020 A 
BRANCH   8  11
HETATM   11  O   UNL     1     -44.331  59.327 -57.714  1.00  0.00    -0.347 OA
BRANCH  11  12
HETATM   12  C   UNL     1     -44.803  58.321 -58.610  1.00  0.00     0.219 C 
BRANCH  12  13
HETATM   13  C   UNL     1     -43.659  57.732 -59.354  1.00  0.00     0.024 A 
HETATM   14  C   UNL     1     -43.208  56.385 -59.324  1.00  0.00     0.069 A 
HETATM   15  C   UNL     1     -43.760  55.252 -58.547  1.00  0.00     0.073 C 
HETATM   16  N   UNL     1     -42.147  56.204 -60.118  1.00  0.00    -0.133 NA
HETATM   17  O   UNL     1     -41.876  57.441 -60.670  1.00  0.00    -0.217 OA
HETATM   18  C   UNL     1     -42.775  58.351 -60.212  1.00  0.00     0.085 A 
HETATM   19  C   UNL     1     -42.608  59.733 -60.697  1.00  0.00     0.079 C 
ENDBRANCH  12  13
ENDBRANCH  11  12
ENDBRANCH   8  11
ENDBRANCH   1   5
BRANCH   2  20
HETATM   20  C   UNL     1     -41.494  57.070 -50.760  1.00  0.00     0.161 C 
BRANCH  20  21
HETATM   21  C   UNL     1     -41.152  55.594 -50.771  1.00  0.00    -0.041 A 
HETATM   22  C   UNL     1     -40.160  55.051 -49.943  1.00  0.00     0.009 A 
HETATM   23  C   UNL     1     -39.840  53.694 -50.003  1.00  0.00     0.009 A 
HETATM   24  C   UNL     1     -40.527  52.836 -50.870  1.00  0.00    -0.033 A 
HETATM   25  C   UNL     1     -41.551  53.363 -51.669  1.00  0.00     0.009 A 
HETATM   26  C   UNL     1     -41.857  54.727 -51.619  1.00  0.00     0.009 A 
BRANCH  24  27
HETATM   27  C   UNL     1     -40.163  51.379 -50.945  1.00  0.00     0.273 C 
BRANCH  27  28
HETATM   28  N   UNL     1     -39.295  51.031 -52.130  1.00  0.00    -0.067 N 
HETATM   29  H   UNL     1     -38.322  51.085 -51.800  1.00  0.00     0.280 HD
HETATM   30  C   UNL     1     -39.426  51.969 -53.312  1.00  0.00     0.235 C 
HETATM   31  C   UNL     1     -40.284  51.199 -54.292  1.00  0.00     0.029 C 
HETATM   32  C   UNL     1     -39.765  49.786 -54.143  1.00  0.00     0.029 C 
HETATM   33  C   UNL     1     -39.561  49.627 -52.646  1.00  0.00     0.235 C 
ENDBRANCH  27  28
ENDBRANCH  24  27
ENDBRANCH  20  21
ENDBRANCH   2  20
TORSDOF 8
ENDMDL
MODEL 7
REMARK VINA RESULT:      -7.6      2.278      8.689
REMARK  8 active torsions:
REMARK  status: ('A' for Active; 'I' for Inactive)
REMARK    1  A    between atoms: C_7  and  C_8 
REMARK    2  A    between atoms: C_8  and  O_9 
REMARK    3  A    between atoms: O_9  and  C_10 
REMARK    4  A    between atoms: C_13  and  C_14 
REMARK       I    between atoms: C_14  and  N_15 
REMARK    5  A    between atoms: N_15  and  C_16 
REMARK    6  A    between atoms: C_16  and  C_17 
REMARK    7  A    between atoms: C_20  and  C_21 
REMARK    8  A    between atoms: C_21  and  N_22 
ROOT
HETATM    1  C   UNL     1     -42.635  58.344 -54.010  1.00  0.00     0.251 C 
HETATM    2  N   UNL     1     -43.229  57.537 -53.063  1.00  0.00    -0.353 N 
HETATM    3  O   UNL     1     -41.568  58.922 -53.832  1.00  0.00    -0.268 OA
HETATM    4  H   UNL     1     -44.023  56.965 -53.310  1.00  0.00     0.163 HD
ENDROOT
BRANCH   1   5
HETATM    5  C   UNL     1     -43.370  58.507 -55.293  1.00  0.00     0.032 A 
HETATM    6  C   UNL     1     -44.613  57.905 -55.512  1.00  0.00     0.020 A 
HETATM    7  C   UNL     1     -45.303  58.142 -56.704  1.00  0.00     0.038 A 
HETATM    8  C   UNL     1     -44.771  58.990 -57.678  1.00  0.00     0.069 A 
HETATM    9  C   UNL     1     -43.521  59.574 -57.473  1.00  0.00     0.038 A 
HETATM   10  C   UNL     1     -42.828  59.342 -56.279  1.00  0.00     0.020 A 
BRANCH   8  11
HETATM   11  O   UNL     1     -45.568  59.161 -58.773  1.00  0.00    -0.347 OA
BRANCH  11  12
HETATM   12  C   UNL     1     -44.979  58.935 -60.054  1.00  0.00     0.219 C 
BRANCH  12  13
HETATM   13  C   UNL     1     -44.641  57.495 -60.206  1.00  0.00     0.024 A 
HETATM   14  C   UNL     1     -45.542  56.403 -60.321  1.00  0.00     0.069 A 
HETATM   15  C   UNL     1     -47.023  56.432 -60.314  1.00  0.00     0.073 C 
HETATM   16  N   UNL     1     -44.892  55.240 -60.443  1.00  0.00    -0.133 NA
HETATM   17  O   UNL     1     -43.548  55.555 -60.392  1.00  0.00    -0.217 OA
HETATM   18  C   UNL     1     -43.400  56.898 -60.247  1.00  0.00     0.085 A 
HETATM   19  C   UNL     1     -42.015  57.395 -60.157  1.00  0.00     0.079 C 
ENDBRANCH  12  13
ENDBRANCH  11  12
ENDBRANCH   8  11
ENDBRANCH   1   5
BRANCH   2  20
HETATM   20  C   UNL     1     -42.691  57.418 -51.725  1.00  0.00     0.161 C 
BRANCH  20  21
HETATM   21  C   UNL     1     -42.110  56.049 -51.439  1.00  0.00    -0.041 A 
HETATM   22  C   UNL     1     -40.930  55.877 -50.704  1.00  0.00     0.009 A 
HETATM   23  C   UNL     1     -40.397  54.604 -50.489  1.00  0.00     0.009 A 
HETATM   24  C   UNL     1     -41.050  53.466 -50.978  1.00  0.00    -0.033 A 
HETATM   25  C   UNL     1     -42.255  53.627 -51.676  1.00  0.00     0.009 A 
HETATM   26  C   UNL     1     -42.776  54.905 -51.904  1.00  0.00     0.009 A 
BRANCH  24  27
HETATM   27  C   UNL     1     -40.460  52.099 -50.762  1.00  0.00     0.273 C 
BRANCH  27  28
HETATM   28  N   UNL     1     -39.504  51.673 -51.850  1.00  0.00    -0.067 N 
HETATM   29  H   UNL     1     -38.567  51.960 -51.538  1.00  0.00     0.280 HD
HETATM   30  C   UNL     1     -39.750  52.315 -53.200  1.00  0.00     0.235 C 
HETATM   31  C   UNL     1     -40.431  51.226 -54.000  1.00  0.00     0.029 C 
HETATM   32  C   UNL     1     -39.686  49.983 -53.563  1.00  0.00     0.029 C 
HETATM   33  C   UNL     1     -39.512  50.169 -52.065  1.00  0.00     0.235 C 
ENDBRANCH  27  28
ENDBRANCH  24  27
ENDBRANCH  20  21
ENDBRANCH   2  20
TORSDOF 8
ENDMDL
MODEL 8
REMARK VINA RESULT:      -7.5      4.411      7.392
REMARK  8 active torsions:
REMARK  status: ('A' for Active; 'I' for Inactive)
REMARK    1  A    between atoms: C_7  and  C_8 
REMARK    2  A    between atoms: C_8  and  O_9 
REMARK    3  A    between atoms: O_9  and  C_10 
REMARK    4  A    between atoms: C_13  and  C_14 
REMARK       I    between atoms: C_14  and  N_15 
REMARK    5  A    between atoms: N_15  and  C_16 
REMARK    6  A    between atoms: C_16  and  C_17 
REMARK    7  A    between atoms: C_20  and  C_21 
REMARK    8  A    between atoms: C_21  and  N_22 
ROOT
HETATM    1  C   UNL     1     -41.922  58.879 -52.569  1.00  0.00     0.251 C 
HETATM    2  N   UNL     1     -42.759  59.719 -53.271  1.00  0.00    -0.353 N 
HETATM    3  O   UNL     1     -41.216  59.251 -51.638  1.00  0.00    -0.268 OA
HETATM    4  H   UNL     1     -43.429  59.339 -53.923  1.00  0.00     0.163 HD
ENDROOT
BRANCH   1   5
HETATM    5  C   UNL     1     -41.892  57.457 -53.009  1.00  0.00     0.032 A 
HETATM    6  C   UNL     1     -40.849  56.951 -53.792  1.00  0.00     0.020 A 
HETATM    7  C   UNL     1     -40.823  55.594 -54.123  1.00  0.00     0.038 A 
HETATM    8  C   UNL     1     -41.820  54.729 -53.666  1.00  0.00     0.069 A 
HETATM    9  C   UNL     1     -42.872  55.235 -52.904  1.00  0.00     0.038 A 
HETATM   10  C   UNL     1     -42.902  56.594 -52.566  1.00  0.00     0.020 A 
BRANCH   8  11
HETATM   11  O   UNL     1     -41.647  53.425 -54.033  1.00  0.00    -0.347 OA
BRANCH  11  12
HETATM   12  C   UNL     1     -40.306  52.968 -54.214  1.00  0.00     0.219 C 
BRANCH  12  13
HETATM   13  C   UNL     1     -39.980  51.947 -53.183  1.00  0.00     0.024 A 
HETATM   14  C   UNL     1     -39.775  50.554 -53.379  1.00  0.00     0.069 A 
HETATM   15  C   UNL     1     -39.840  49.788 -54.646  1.00  0.00     0.073 C 
HETATM   16  N   UNL     1     -39.498  49.932 -52.229  1.00  0.00    -0.133 NA
HETATM   17  O   UNL     1     -39.535  50.910 -51.255  1.00  0.00    -0.217 OA
HETATM   18  C   UNL     1     -39.825  52.109 -51.823  1.00  0.00     0.085 A 
HETATM   19  C   UNL     1     -39.919  53.260 -50.907  1.00  0.00     0.079 C 
ENDBRANCH  12  13
ENDBRANCH  11  12
ENDBRANCH   8  11
ENDBRANCH   1   5
BRANCH   2  20
HETATM   20  C   UNL     1     -42.767  61.147 -53.039  1.00  0.00     0.161 C 
BRANCH  20  21
HETATM   21  C   UNL     1     -43.667  61.556 -51.891  1.00  0.00    -0.041 A 
HETATM   22  C   UNL     1     -44.955  61.030 -51.729  1.00  0.00     0.009 A 
HETATM   23  C   UNL     1     -45.777  61.454 -50.683  1.00  0.00     0.009 A 
HETATM   24  C   UNL     1     -45.318  62.394 -49.751  1.00  0.00    -0.033 A 
HETATM   25  C   UNL     1     -44.015  62.891 -49.882  1.00  0.00     0.009 A 
HETATM   26  C   UNL     1     -43.201  62.477 -50.941  1.00  0.00     0.009 A 
BRANCH  24  27
HETATM   27  C   UNL     1     -46.216  62.862 -48.639  1.00  0.00     0.273 C 
BRANCH  27  28
HETATM   28  N   UNL     1     -46.360  61.864 -47.516  1.00  0.00    -0.067 N 
HETATM   29  H   UNL     1     -47.122  61.231 -47.790  1.00  0.00     0.280 HD
HETATM   30  C   UNL     1     -46.729  62.465 -46.175  1.00  0.00     0.235 C 
HETATM   31  C   UNL     1     -45.426  62.458 -45.404  1.00  0.00     0.029 C 
HETATM   32  C   UNL     1     -44.809  61.139 -45.815  1.00  0.00     0.029 C 
HETATM   33  C   UNL     1     -45.096  61.050 -47.304  1.00  0.00     0.235 C 
ENDBRANCH  27  28
ENDBRANCH  24  27
ENDBRANCH  20  21
ENDBRANCH   2  20
TORSDOF 8
ENDMDL
MODEL 9
REMARK VINA RESULT:      -7.3      4.285      7.378
REMARK  8 active torsions:
REMARK  status: ('A' for Active; 'I' for Inactive)
REMARK    1  A    between atoms: C_7  and  C_8 
REMARK    2  A    between atoms: C_8  and  O_9 
REMARK    3  A    between atoms: O_9  and  C_10 
REMARK    4  A    between atoms: C_13  and  C_14 
REMARK       I    between atoms: C_14  and  N_15 
REMARK    5  A    between atoms: N_15  and  C_16 
REMARK    6  A    between atoms: C_16  and  C_17 
REMARK    7  A    between atoms: C_20  and  C_21 
REMARK    8  A    between atoms: C_21  and  N_22 
ROOT
HETATM    1  C   UNL     1     -44.636  57.687 -54.755  1.00  0.00     0.251 C 
HETATM    2  N   UNL     1     -44.191  58.789 -54.056  1.00  0.00    -0.353 N 
HETATM    3  O   UNL     1     -45.681  57.669 -55.395  1.00  0.00    -0.268 OA
HETATM    4  H   UNL     1     -43.257  58.804 -53.674  1.00  0.00     0.163 HD
ENDROOT
BRANCH   1   5
HETATM    5  C   UNL     1     -43.780  56.471 -54.686  1.00  0.00     0.032 A 
HETATM    6  C   UNL     1     -43.603  55.761 -53.494  1.00  0.00     0.020 A 
HETATM    7  C   UNL     1     -42.849  54.585 -53.489  1.00  0.00     0.038 A 
HETATM    8  C   UNL     1     -42.281  54.098 -54.668  1.00  0.00     0.069 A 
HETATM    9  C   UNL     1     -42.435  54.815 -55.854  1.00  0.00     0.038 A 
HETATM   10  C   UNL     1     -43.194  55.993 -55.865  1.00  0.00     0.020 A 
BRANCH   8  11
HETATM   11  O   UNL     1     -41.604  52.921 -54.523  1.00  0.00    -0.347 OA
BRANCH  11  12
HETATM   12  C   UNL     1     -40.236  52.997 -54.121  1.00  0.00     0.219 C 
BRANCH  12  13
HETATM   13  C   UNL     1     -39.956  51.963 -53.090  1.00  0.00     0.024 A 
HETATM   14  C   UNL     1     -39.734  50.575 -53.295  1.00  0.00     0.069 A 
HETATM   15  C   UNL     1     -39.731  49.826 -54.573  1.00  0.00     0.073 C 
HETATM   16  N   UNL     1     -39.512  49.937 -52.140  1.00  0.00    -0.133 NA
HETATM   17  O   UNL     1     -39.603  50.902 -51.156  1.00  0.00    -0.217 OA
HETATM   18  C   UNL     1     -39.871  52.107 -51.722  1.00  0.00     0.085 A 
HETATM   19  C   UNL     1     -40.018  53.245 -50.795  1.00  0.00     0.079 C 
ENDBRANCH  12  13
ENDBRANCH  11  12
ENDBRANCH   8  11
ENDBRANCH   1   5
BRANCH   2  20
HETATM   20  C   UNL     1     -45.004  59.978 -53.922  1.00  0.00     0.161 C 
BRANCH  20  21
HETATM   21  C   UNL     1     -44.813  60.679 -52.592  1.00  0.00    -0.041 A 
HETATM   22  C   UNL     1     -44.001  60.150 -51.580  1.00  0.00     0.009 A 
HETATM   23  C   UNL     1     -43.875  60.799 -50.350  1.00  0.00     0.009 A 
HETATM   24  C   UNL     1     -44.532  62.013 -50.113  1.00  0.00    -0.033 A 
HETATM   25  C   UNL     1     -45.310  62.569 -51.137  1.00  0.00     0.009 A 
HETATM   26  C   UNL     1     -45.449  61.908 -52.361  1.00  0.00     0.009 A 
BRANCH  24  27
HETATM   27  C   UNL     1     -44.409  62.696 -48.778  1.00  0.00     0.273 C 
BRANCH  27  28
HETATM   28  N   UNL     1     -45.384  62.186 -47.745  1.00  0.00    -0.067 N 
HETATM   29  H   UNL     1     -46.151  61.742 -48.266  1.00  0.00     0.280 HD
HETATM   30  C   UNL     1     -45.993  63.257 -46.863  1.00  0.00     0.235 C 
HETATM   31  C   UNL     1     -45.240  63.124 -45.557  1.00  0.00     0.029 C 
HETATM   32  C   UNL     1     -45.092  61.624 -45.416  1.00  0.00     0.029 C 
HETATM   33  C   UNL     1     -44.756  61.156 -46.821  1.00  0.00     0.235 C 
ENDBRANCH  27  28
ENDBRANCH  24  27
ENDBRANCH  20  21
ENDBRANCH   2  20
TORSDOF 8
ENDMDL
MODEL 10
REMARK VINA RESULT:      -7.2      2.628      3.628
REMARK  8 active torsions:
REMARK  status: ('A' for Active; 'I' for Inactive)
REMARK    1  A    between atoms: C_7  and  C_8 
REMARK    2  A    between atoms: C_8  and  O_9 
REMARK    3  A    between atoms: O_9  and  C_10 
REMARK    4  A    between atoms: C_13  and  C_14 
REMARK       I    between atoms: C_14  and  N_15 
REMARK    5  A    between atoms: N_15  and  C_16 
REMARK    6  A    between atoms: C_16  and  C_17 
REMARK    7  A    between atoms: C_20  and  C_21 
REMARK    8  A    between atoms: C_21  and  N_22 
ROOT
HETATM    1  C   UNL     1     -44.053  57.252 -51.340  1.00  0.00     0.251 C 
HETATM    2  N   UNL     1     -43.515  58.239 -52.140  1.00  0.00    -0.353 N 
HETATM    3  O   UNL     1     -45.172  57.320 -50.844  1.00  0.00    -0.268 OA
HETATM    4  H   UNL     1     -42.659  58.070 -52.646  1.00  0.00     0.163 HD
ENDROOT
BRANCH   1   5
HETATM    5  C   UNL     1     -43.189  56.069 -51.080  1.00  0.00     0.032 A 
HETATM    6  C   UNL     1     -43.470  54.815 -51.633  1.00  0.00     0.020 A 
HETATM    7  C   UNL     1     -42.593  53.749 -51.422  1.00  0.00     0.038 A 
HETATM    8  C   UNL     1     -41.426  53.922 -50.675  1.00  0.00     0.069 A 
HETATM    9  C   UNL     1     -41.154  55.164 -50.103  1.00  0.00     0.038 A 
HETATM   10  C   UNL     1     -42.028  56.239 -50.315  1.00  0.00     0.020 A 
BRANCH   8  11
HETATM   11  O   UNL     1     -40.645  52.806 -50.582  1.00  0.00    -0.347 OA
BRANCH  11  12
HETATM   12  C   UNL     1     -39.514  52.724 -51.451  1.00  0.00     0.219 C 
BRANCH  12  13
HETATM   13  C   UNL     1     -39.696  51.601 -52.408  1.00  0.00     0.024 A 
HETATM   14  C   UNL     1     -40.010  51.685 -53.791  1.00  0.00     0.069 A 
HETATM   15  C   UNL     1     -40.237  52.901 -54.606  1.00  0.00     0.073 C 
HETATM   16  N   UNL     1     -40.100  50.473 -54.350  1.00  0.00    -0.133 NA
HETATM   17  O   UNL     1     -39.860  49.573 -53.331  1.00  0.00    -0.217 OA
HETATM   18  C   UNL     1     -39.623  50.244 -52.174  1.00  0.00     0.085 A 
HETATM   19  C   UNL     1     -39.367  49.418 -50.981  1.00  0.00     0.079 C 
ENDBRANCH  12  13
ENDBRANCH  11  12
ENDBRANCH   8  11
ENDBRANCH   1   5
BRANCH   2  20
HETATM   20  C   UNL     1     -44.194  59.501 -52.344  1.00  0.00     0.161 C 
BRANCH  20  21
HETATM   21  C   UNL     1     -44.022  60.044 -53.748  1.00  0.00    -0.041 A 
HETATM   22  C   UNL     1     -43.611  61.361 -53.993  1.00  0.00     0.009 A 
HETATM   23  C   UNL     1     -43.498  61.846 -55.297  1.00  0.00     0.009 A 
HETATM   24  C   UNL     1     -43.763  61.015 -56.393  1.00  0.00    -0.033 A 
HETATM   25  C   UNL     1     -44.132  59.684 -56.156  1.00  0.00     0.009 A 
HETATM   26  C   UNL     1     -44.260  59.207 -54.847  1.00  0.00     0.009 A 
BRANCH  24  27
HETATM   27  C   UNL     1     -43.661  61.550 -57.795  1.00  0.00     0.273 C 
BRANCH  27  28
HETATM   28  N   UNL     1     -42.524  60.954 -58.589  1.00  0.00    -0.067 N 
HETATM   29  H   UNL     1     -42.689  59.939 -58.610  1.00  0.00     0.280 HD
HETATM   30  C   UNL     1     -41.148  61.179 -57.997  1.00  0.00     0.235 C 
HETATM   31  C   UNL     1     -40.563  62.284 -58.850  1.00  0.00     0.029 C 
HETATM   32  C   UNL     1     -41.049  61.920 -60.237  1.00  0.00     0.029 C 
HETATM   33  C   UNL     1     -42.484  61.475 -60.016  1.00  0.00     0.235 C 
ENDBRANCH  27  28
ENDBRANCH  24  27
ENDBRANCH  20  21
ENDBRANCH   2  20
TORSDOF 8
ENDMDL
