MODEL 1
REMARK VINA RESULT:      -8.1      0.000      0.000
REMARK  6 active torsions:
REMARK  status: ('A' for Active; 'I' for Inactive)
REMARK    1  A    between atoms: C_2  and  C_3 
REMARK       I    between atoms: C_3  and  N_4 
REMARK    2  A    between atoms: N_4  and  C_5 
REMARK    3  A    between atoms: C_8  and  N_9 
REMARK       I    between atoms: N_9  and  C_10 
REMARK    4  A    between atoms: C_10  and  C_11 
REMARK    5  A    between atoms: C_16  and  C_17 
REMARK    6  A    between atoms: C_23  and  C_24 
ROOT
HETATM    1  C   UNL     1     -43.062  56.015 -55.352  1.00  0.00     0.148 A 
HETATM    2  N   UNL     1     -42.983  56.985 -54.411  1.00  0.00    -0.165 NA
HETATM    3  N   UNL     1     -43.145  56.315 -53.252  1.00  0.00    -0.240 N 
HETATM    4  C   UNL     1     -43.342  54.971 -53.415  1.00  0.00     0.123 A 
HETATM    5  N   UNL     1     -43.565  54.154 -52.364  1.00  0.00    -0.364 N 
HETATM    6  C   UNL     1     -43.368  54.614 -50.988  1.00  0.00     0.143 C 
HETATM    7  C   UNL     1     -43.768  56.096 -50.878  1.00  0.00     0.068 C 
HETATM    8  C   UNL     1     -43.167  56.999 -51.974  1.00  0.00     0.221 C 
HETATM    9  C   UNL     1     -43.288  54.741 -54.763  1.00  0.00     0.089 A 
HETATM   10  H   UNL     1     -43.541  53.143 -52.485  1.00  0.00     0.162 HD
ENDROOT
BRANCH   1  11
HETATM   11  C   UNL     1     -42.932  56.311 -56.791  1.00  0.00     0.276 C 
HETATM   12  N   UNL     1     -42.440  57.584 -57.006  1.00  0.00    -0.322 N 
HETATM   13  H   UNL     1     -42.219  58.080 -56.146  1.00  0.00     0.169 HD
HETATM   14  O   UNL     1     -43.228  55.482 -57.643  1.00  0.00    -0.266 OA
BRANCH  12  15
HETATM   15  C   UNL     1     -42.229  58.244 -58.226  1.00  0.00     0.035 A 
HETATM   16  C   UNL     1     -42.087  57.593 -59.450  1.00  0.00     0.032 A 
HETATM   17  C   UNL     1     -41.915  58.325 -60.635  1.00  0.00     0.032 A 
HETATM   18  C   UNL     1     -41.880  59.719 -60.612  1.00  0.00     0.034 A 
HETATM   19  C   UNL     1     -42.006  60.371 -59.381  1.00  0.00     0.032 A 
HETATM   20  C   UNL     1     -42.180  59.640 -58.199  1.00  0.00     0.032 A 
BRANCH  18  21
HETATM   21  N   UNL     1     -41.744  60.528 -61.759  1.00  0.00    -0.327 N 
HETATM   22  C   UNL     1     -42.747  60.973 -62.601  1.00  0.00     0.221 C 
HETATM   23  O   UNL     1     -43.944  60.723 -62.504  1.00  0.00    -0.273 OA
HETATM   24  H   UNL     1     -40.801  60.815 -61.980  1.00  0.00     0.169 HD
BRANCH  22  25
HETATM   25  C   UNL     1     -42.250  61.907 -63.694  1.00  0.00     0.098 C 
HETATM   26  C   UNL     1     -41.108  62.809 -63.262  1.00  0.00     0.014 C 
ENDBRANCH  22  25
ENDBRANCH  18  21
ENDBRANCH  12  15
ENDBRANCH   1  11
BRANCH   8  27
HETATM   27  C   UNL     1     -41.793  57.535 -51.641  1.00  0.00     0.409 C 
HETATM   28  F   UNL     1     -40.814  56.838 -52.268  1.00  0.00    -0.169 F 
HETATM   29  F   UNL     1     -41.671  58.818 -52.071  1.00  0.00    -0.169 F 
HETATM   30  F   UNL     1     -41.509  57.527 -50.326  1.00  0.00    -0.169 F 
ENDBRANCH   8  27
BRANCH   6  31
HETATM   31  C   UNL     1     -42.021  54.324 -50.413  1.00  0.00     0.075 A 
HETATM   32  O   UNL     1     -41.870  54.555 -49.076  1.00  0.00    -0.325 OA
HETATM   33  C   UNL     1     -40.596  54.216 -48.753  1.00  0.00     0.142 A 
HETATM   34  C   UNL     1     -39.921  53.765 -49.862  1.00  0.00     0.027 A 
HETATM   35  C   UNL     1     -40.843  53.825 -50.935  1.00  0.00     0.037 A 
ENDBRANCH   6  31
TORSDOF 6
ENDMDL
MODEL 2
REMARK VINA RESULT:      -8.0      4.065     10.109
REMARK  6 active torsions:
REMARK  status: ('A' for Active; 'I' for Inactive)
REMARK    1  A    between atoms: C_2  and  C_3 
REMARK       I    between atoms: C_3  and  N_4 
REMARK    2  A    between atoms: N_4  and  C_5 
REMARK    3  A    between atoms: C_8  and  N_9 
REMARK       I    between atoms: N_9  and  C_10 
REMARK    4  A    between atoms: C_10  and  C_11 
REMARK    5  A    between atoms: C_16  and  C_17 
REMARK    6  A    between atoms: C_23  and  C_24 
ROOT
HETATM    1  C   UNL     1     -42.641  57.818 -56.926  1.00  0.00     0.148 A 
HETATM    2  N   UNL     1     -43.313  58.215 -58.032  1.00  0.00    -0.165 NA
HETATM    3  N   UNL     1     -43.172  59.555 -58.025  1.00  0.00    -0.240 N 
HETATM    4  C   UNL     1     -42.460  60.028 -56.957  1.00  0.00     0.123 A 
HETATM    5  N   UNL     1     -42.259  61.350 -56.768  1.00  0.00    -0.364 N 
HETATM    6  C   UNL     1     -42.579  62.325 -57.811  1.00  0.00     0.143 C 
HETATM    7  C   UNL     1     -43.829  61.864 -58.582  1.00  0.00     0.068 C 
HETATM    8  C   UNL     1     -43.787  60.391 -59.037  1.00  0.00     0.221 C 
HETATM    9  C   UNL     1     -42.095  58.930 -56.227  1.00  0.00     0.089 A 
HETATM   10  H   UNL     1     -41.591  61.674 -56.070  1.00  0.00     0.162 HD
ENDROOT
BRANCH   1  11
HETATM   11  C   UNL     1     -42.536  56.398 -56.543  1.00  0.00     0.276 C 
HETATM   12  N   UNL     1     -41.633  56.213 -55.513  1.00  0.00    -0.322 N 
HETATM   13  H   UNL     1     -41.229  57.083 -55.173  1.00  0.00     0.169 HD
HETATM   14  O   UNL     1     -43.204  55.535 -57.100  1.00  0.00    -0.266 OA
BRANCH  12  15
HETATM   15  C   UNL     1     -41.225  55.012 -54.915  1.00  0.00     0.035 A 
HETATM   16  C   UNL     1     -40.298  54.137 -55.478  1.00  0.00     0.032 A 
HETATM   17  C   UNL     1     -39.911  52.971 -54.799  1.00  0.00     0.032 A 
HETATM   18  C   UNL     1     -40.447  52.662 -53.550  1.00  0.00     0.034 A 
HETATM   19  C   UNL     1     -41.388  53.534 -52.992  1.00  0.00     0.032 A 
HETATM   20  C   UNL     1     -41.773  54.699 -53.668  1.00  0.00     0.032 A 
BRANCH  18  21
HETATM   21  N   UNL     1     -40.087  51.531 -52.788  1.00  0.00    -0.327 N 
HETATM   22  C   UNL     1     -39.971  50.224 -53.225  1.00  0.00     0.221 C 
HETATM   23  O   UNL     1     -40.179  49.813 -54.362  1.00  0.00    -0.273 OA
HETATM   24  H   UNL     1     -39.890  51.707 -51.813  1.00  0.00     0.169 HD
BRANCH  22  25
HETATM   25  C   UNL     1     -39.475  49.269 -52.149  1.00  0.00     0.098 C 
HETATM   26  C   UNL     1     -39.655  49.788 -50.733  1.00  0.00     0.014 C 
ENDBRANCH  22  25
ENDBRANCH  18  21
ENDBRANCH  12  15
ENDBRANCH   1  11
BRANCH   8  27
HETATM   27  C   UNL     1     -43.112  60.181 -60.374  1.00  0.00     0.409 C 
HETATM   28  F   UNL     1     -41.803  59.858 -60.232  1.00  0.00    -0.169 F 
HETATM   29  F   UNL     1     -43.684  59.140 -61.031  1.00  0.00    -0.169 F 
HETATM   30  F   UNL     1     -43.173  61.250 -61.188  1.00  0.00    -0.169 F 
ENDBRANCH   8  27
BRANCH   6  31
HETATM   31  C   UNL     1     -41.439  62.689 -58.705  1.00  0.00     0.075 A 
HETATM   32  O   UNL     1     -41.718  63.559 -59.720  1.00  0.00    -0.325 OA
HETATM   33  C   UNL     1     -40.559  63.771 -60.394  1.00  0.00     0.142 A 
HETATM   34  C   UNL     1     -39.533  63.054 -59.827  1.00  0.00     0.027 A 
HETATM   35  C   UNL     1     -40.097  62.361 -58.730  1.00  0.00     0.037 A 
ENDBRANCH   6  31
TORSDOF 6
ENDMDL
MODEL 3
REMARK VINA RESULT:      -7.9      6.080      9.114
REMARK  6 active torsions:
REMARK  status: ('A' for Active; 'I' for Inactive)
REMARK    1  A    between atoms: C_2  and  C_3 
REMARK       I    between atoms: C_3  and  N_4 
REMARK    2  A    between atoms: N_4  and  C_5 
REMARK    3  A    between atoms: C_8  and  N_9 
REMARK       I    between atoms: N_9  and  C_10 
REMARK    4  A    between atoms: C_10  and  C_11 
REMARK    5  A    between atoms: C_16  and  C_17 
REMARK    6  A    between atoms: C_23  and  C_24 
ROOT
HETATM    1  C   UNL     1     -43.406  59.460 -51.394  1.00  0.00     0.148 A 
HETATM    2  N   UNL     1     -42.984  60.746 -51.349  1.00  0.00    -0.165 NA
HETATM    3  N   UNL     1     -44.127  61.450 -51.232  1.00  0.00    -0.240 N 
HETATM    4  C   UNL     1     -45.253  60.674 -51.221  1.00  0.00     0.123 A 
HETATM    5  N   UNL     1     -46.488  61.217 -51.153  1.00  0.00    -0.364 N 
HETATM    6  C   UNL     1     -46.680  62.635 -50.847  1.00  0.00     0.143 C 
HETATM    7  C   UNL     1     -45.538  63.456 -51.472  1.00  0.00     0.068 C 
HETATM    8  C   UNL     1     -44.128  62.899 -51.191  1.00  0.00     0.221 C 
HETATM    9  C   UNL     1     -44.823  59.379 -51.317  1.00  0.00     0.089 A 
HETATM   10  H   UNL     1     -47.300  60.627 -50.976  1.00  0.00     0.162 HD
ENDROOT
BRANCH   1  11
HETATM   11  C   UNL     1     -42.463  58.333 -51.518  1.00  0.00     0.276 C 
HETATM   12  N   UNL     1     -42.879  57.424 -52.472  1.00  0.00    -0.322 N 
HETATM   13  H   UNL     1     -43.734  57.703 -52.946  1.00  0.00     0.169 HD
HETATM   14  O   UNL     1     -41.444  58.274 -50.839  1.00  0.00    -0.266 OA
BRANCH  12  15
HETATM   15  C   UNL     1     -42.283  56.208 -52.838  1.00  0.00     0.035 A 
HETATM   16  C   UNL     1     -41.195  56.102 -53.703  1.00  0.00     0.032 A 
HETATM   17  C   UNL     1     -40.630  54.850 -53.992  1.00  0.00     0.032 A 
HETATM   18  C   UNL     1     -41.144  53.687 -53.422  1.00  0.00     0.034 A 
HETATM   19  C   UNL     1     -42.245  53.793 -52.565  1.00  0.00     0.032 A 
HETATM   20  C   UNL     1     -42.808  55.042 -52.275  1.00  0.00     0.032 A 
BRANCH  18  21
HETATM   21  N   UNL     1     -40.615  52.397 -53.633  1.00  0.00    -0.327 N 
HETATM   22  C   UNL     1     -39.803  51.669 -52.782  1.00  0.00     0.221 C 
HETATM   23  O   UNL     1     -39.385  52.030 -51.686  1.00  0.00    -0.273 OA
HETATM   24  H   UNL     1     -40.867  51.962 -54.509  1.00  0.00     0.169 HD
BRANCH  22  25
HETATM   25  C   UNL     1     -39.491  50.270 -53.293  1.00  0.00     0.098 C 
HETATM   26  C   UNL     1     -40.031  49.988 -54.684  1.00  0.00     0.014 C 
ENDBRANCH  22  25
ENDBRANCH  18  21
ENDBRANCH  12  15
ENDBRANCH   1  11
BRANCH   8  27
HETATM   27  C   UNL     1     -43.523  63.389 -49.894  1.00  0.00     0.409 C 
HETATM   28  F   UNL     1     -42.175  63.502 -49.978  1.00  0.00    -0.169 F 
HETATM   29  F   UNL     1     -43.984  64.631 -49.599  1.00  0.00    -0.169 F 
HETATM   30  F   UNL     1     -43.791  62.602 -48.836  1.00  0.00    -0.169 F 
ENDBRANCH   8  27
BRANCH   6  31
HETATM   31  C   UNL     1     -46.904  62.944 -49.403  1.00  0.00     0.075 A 
HETATM   32  O   UNL     1     -46.847  61.886 -48.541  1.00  0.00    -0.325 OA
HETATM   33  C   UNL     1     -47.057  62.376 -47.293  1.00  0.00     0.142 A 
HETATM   34  C   UNL     1     -47.245  63.737 -47.335  1.00  0.00     0.027 A 
HETATM   35  C   UNL     1     -47.138  64.108 -48.697  1.00  0.00     0.037 A 
ENDBRANCH   6  31
TORSDOF 6
ENDMDL
MODEL 4
REMARK VINA RESULT:      -7.7     17.127     21.387
REMARK  6 active torsions:
REMARK  status: ('A' for Active; 'I' for Inactive)
REMARK    1  A    between atoms: C_2  and  C_3 
REMARK       I    between atoms: C_3  and  N_4 
REMARK    2  A    between atoms: N_4  and  C_5 
REMARK    3  A    between atoms: C_8  and  N_9 
REMARK       I    between atoms: N_9  and  C_10 
REMARK    4  A    between atoms: C_10  and  C_11 
REMARK    5  A    between atoms: C_16  and  C_17 
REMARK    6  A    between atoms: C_23  and  C_24 
ROOT
HETATM    1  C   UNL     1     -33.855  40.757 -54.447  1.00  0.00     0.148 A 
HETATM    2  N   UNL     1     -35.132  41.138 -54.212  1.00  0.00    -0.165 NA
HETATM    3  N   UNL     1     -35.609  41.422 -55.440  1.00  0.00    -0.240 N 
HETATM    4  C   UNL     1     -34.689  41.257 -56.440  1.00  0.00     0.123 A 
HETATM    5  N   UNL     1     -34.983  41.537 -57.728  1.00  0.00    -0.364 N 
HETATM    6  C   UNL     1     -36.358  41.798 -58.155  1.00  0.00     0.143 C 
HETATM    7  C   UNL     1     -37.112  42.544 -57.038  1.00  0.00     0.068 C 
HETATM    8  C   UNL     1     -36.957  41.916 -55.639  1.00  0.00     0.221 C 
HETATM    9  C   UNL     1     -33.543  40.821 -55.833  1.00  0.00     0.089 A 
HETATM   10  H   UNL     1     -34.350  41.252 -58.473  1.00  0.00     0.162 HD
ENDROOT
BRANCH   1  11
HETATM   11  C   UNL     1     -32.949  40.348 -53.357  1.00  0.00     0.276 C 
HETATM   12  N   UNL     1     -33.650  39.924 -52.244  1.00  0.00    -0.322 N 
HETATM   13  H   UNL     1     -34.659  39.931 -52.379  1.00  0.00     0.169 HD
HETATM   14  O   UNL     1     -31.732  40.388 -53.489  1.00  0.00    -0.266 OA
BRANCH  12  15
HETATM   15  C   UNL     1     -33.149  39.511 -51.001  1.00  0.00     0.035 A 
HETATM   16  C   UNL     1     -32.976  38.177 -50.635  1.00  0.00     0.032 A 
HETATM   17  C   UNL     1     -32.432  37.843 -49.385  1.00  0.00     0.032 A 
HETATM   18  C   UNL     1     -32.056  38.837 -48.483  1.00  0.00     0.034 A 
HETATM   19  C   UNL     1     -32.244  40.175 -48.846  1.00  0.00     0.032 A 
HETATM   20  C   UNL     1     -32.784  40.508 -50.094  1.00  0.00     0.032 A 
BRANCH  18  21
HETATM   21  N   UNL     1     -31.472  38.588 -47.223  1.00  0.00    -0.327 N 
HETATM   22  C   UNL     1     -30.216  38.966 -46.786  1.00  0.00     0.221 C 
HETATM   23  O   UNL     1     -29.373  39.580 -47.433  1.00  0.00    -0.273 OA
HETATM   24  H   UNL     1     -32.049  38.076 -46.571  1.00  0.00     0.169 HD
BRANCH  22  25
HETATM   25  C   UNL     1     -29.948  38.606 -45.333  1.00  0.00     0.098 C 
HETATM   26  C   UNL     1     -30.590  39.552 -44.334  1.00  0.00     0.014 C 
ENDBRANCH  22  25
ENDBRANCH  18  21
ENDBRANCH  12  15
ENDBRANCH   1  11
BRANCH   8  27
HETATM   27  C   UNL     1     -37.965  40.829 -55.339  1.00  0.00     0.409 C 
HETATM   28  F   UNL     1     -38.253  40.760 -54.017  1.00  0.00    -0.169 F 
HETATM   29  F   UNL     1     -39.141  41.093 -55.964  1.00  0.00    -0.169 F 
HETATM   30  F   UNL     1     -37.574  39.602 -55.727  1.00  0.00    -0.169 F 
ENDBRANCH   8  27
BRANCH   6  31
HETATM   31  C   UNL     1     -37.097  40.605 -58.667  1.00  0.00     0.075 A 
HETATM   32  O   UNL     1     -36.362  39.467 -58.842  1.00  0.00    -0.325 OA
HETATM   33  C   UNL     1     -37.213  38.508 -59.290  1.00  0.00     0.142 A 
HETATM   34  C   UNL     1     -38.488  39.009 -59.403  1.00  0.00     0.027 A 
HETATM   35  C   UNL     1     -38.417  40.361 -58.991  1.00  0.00     0.037 A 
ENDBRANCH   6  31
TORSDOF 6
ENDMDL
MODEL 5
REMARK VINA RESULT:      -7.6      1.899      2.377
REMARK  6 active torsions:
REMARK  status: ('A' for Active; 'I' for Inactive)
REMARK    1  A    between atoms: C_2  and  C_3 
REMARK       I    between atoms: C_3  and  N_4 
REMARK    2  A    between atoms: N_4  and  C_5 
REMARK    3  A    between atoms: C_8  and  N_9 
REMARK       I    between atoms: N_9  and  C_10 
REMARK    4  A    between atoms: C_10  and  C_11 
REMARK    5  A    between atoms: C_16  and  C_17 
REMARK    6  A    between atoms: C_23  and  C_24 
ROOT
HETATM    1  C   UNL     1     -43.544  57.804 -54.617  1.00  0.00     0.148 A 
HETATM    2  N   UNL     1     -43.236  58.132 -53.340  1.00  0.00    -0.165 NA
HETATM    3  N   UNL     1     -43.271  56.951 -52.693  1.00  0.00    -0.240 N 
HETATM    4  C   UNL     1     -43.605  55.893 -53.494  1.00  0.00     0.123 A 
HETATM    5  N   UNL     1     -43.729  54.642 -53.002  1.00  0.00    -0.364 N 
HETATM    6  C   UNL     1     -43.282  54.308 -51.649  1.00  0.00     0.143 C 
HETATM    7  C   UNL     1     -43.532  55.506 -50.714  1.00  0.00     0.068 C 
HETATM    8  C   UNL     1     -43.035  56.857 -51.266  1.00  0.00     0.221 C 
HETATM    9  C   UNL     1     -43.783  56.409 -54.749  1.00  0.00     0.089 A 
HETATM   10  H   UNL     1     -43.811  53.847 -53.634  1.00  0.00     0.162 HD
ENDROOT
BRANCH   1  11
HETATM   11  C   UNL     1     -43.616  58.816 -55.687  1.00  0.00     0.276 C 
HETATM   12  N   UNL     1     -42.496  58.783 -56.496  1.00  0.00    -0.322 N 
HETATM   13  H   UNL     1     -41.838  58.049 -56.241  1.00  0.00     0.169 HD
HETATM   14  O   UNL     1     -44.584  59.558 -55.801  1.00  0.00    -0.266 OA
BRANCH  12  15
HETATM   15  C   UNL     1     -42.175  59.616 -57.578  1.00  0.00     0.035 A 
HETATM   16  C   UNL     1     -41.753  60.938 -57.446  1.00  0.00     0.032 A 
HETATM   17  C   UNL     1     -41.414  61.697 -58.576  1.00  0.00     0.032 A 
HETATM   18  C   UNL     1     -41.492  61.147 -59.854  1.00  0.00     0.034 A 
HETATM   19  C   UNL     1     -41.930  59.825 -59.987  1.00  0.00     0.032 A 
HETATM   20  C   UNL     1     -42.267  59.066 -58.859  1.00  0.00     0.032 A 
BRANCH  18  21
HETATM   21  N   UNL     1     -41.138  61.830 -61.036  1.00  0.00    -0.327 N 
HETATM   22  C   UNL     1     -40.117  62.748 -61.206  1.00  0.00     0.221 C 
HETATM   23  O   UNL     1     -39.342  63.144 -60.342  1.00  0.00    -0.273 OA
HETATM   24  H   UNL     1     -41.698  61.613 -61.848  1.00  0.00     0.169 HD
BRANCH  22  25
HETATM   25  C   UNL     1     -39.963  63.221 -62.644  1.00  0.00     0.098 C 
HETATM   26  C   UNL     1     -38.533  63.550 -63.035  1.00  0.00     0.014 C 
ENDBRANCH  22  25
ENDBRANCH  18  21
ENDBRANCH  12  15
ENDBRANCH   1  11
BRANCH   8  27
HETATM   27  C   UNL     1     -41.585  57.151 -50.952  1.00  0.00     0.409 C 
HETATM   28  F   UNL     1     -41.386  58.463 -50.676  1.00  0.00    -0.169 F 
HETATM   29  F   UNL     1     -41.197  56.473 -49.841  1.00  0.00    -0.169 F 
HETATM   30  F   UNL     1     -40.735  56.817 -51.940  1.00  0.00    -0.169 F 
ENDBRANCH   8  27
BRANCH   6  31
HETATM   31  C   UNL     1     -41.891  53.773 -51.559  1.00  0.00     0.075 A 
HETATM   32  O   UNL     1     -41.456  53.423 -50.313  1.00  0.00    -0.325 OA
HETATM   33  C   UNL     1     -40.191  52.949 -50.450  1.00  0.00     0.142 A 
HETATM   34  C   UNL     1     -39.803  52.984 -51.768  1.00  0.00     0.027 A 
HETATM   35  C   UNL     1     -40.903  53.507 -52.488  1.00  0.00     0.037 A 
ENDBRANCH   6  31
TORSDOF 6
ENDMDL
MODEL 6
REMARK VINA RESULT:      -7.5      5.268      9.143
REMARK  6 active torsions:
REMARK  status: ('A' for Active; 'I' for Inactive)
REMARK    1  A    between atoms: C_2  and  C_3 
REMARK       I    between atoms: C_3  and  N_4 
REMARK    2  A    between atoms: N_4  and  C_5 
REMARK    3  A    between atoms: C_8  and  N_9 
REMARK       I    between atoms: N_9  and  C_10 
REMARK    4  A    between atoms: C_10  and  C_11 
REMARK    5  A    between atoms: C_16  and  C_17 
REMARK    6  A    between atoms: C_23  and  C_24 
ROOT
HETATM    1  C   UNL     1     -41.885  59.973 -52.926  1.00  0.00     0.148 A 
HETATM    2  N   UNL     1     -42.158  60.511 -51.714  1.00  0.00    -0.165 NA
HETATM    3  N   UNL     1     -42.932  61.574 -52.008  1.00  0.00    -0.240 N 
HETATM    4  C   UNL     1     -43.147  61.747 -53.348  1.00  0.00     0.123 A 
HETATM    5  N   UNL     1     -43.865  62.787 -53.823  1.00  0.00    -0.364 N 
HETATM    6  C   UNL     1     -44.648  63.642 -52.931  1.00  0.00     0.143 C 
HETATM    7  C   UNL     1     -43.912  63.796 -51.587  1.00  0.00     0.068 C 
HETATM    8  C   UNL     1     -43.421  62.468 -50.977  1.00  0.00     0.221 C 
HETATM    9  C   UNL     1     -42.488  60.723 -53.972  1.00  0.00     0.089 A 
HETATM   10  H   UNL     1     -44.155  62.807 -54.799  1.00  0.00     0.162 HD
ENDROOT
BRANCH   1  11
HETATM   11  C   UNL     1     -41.051  58.765 -53.073  1.00  0.00     0.276 C 
HETATM   12  N   UNL     1     -41.817  57.614 -53.072  1.00  0.00    -0.322 N 
HETATM   13  H   UNL     1     -42.816  57.797 -53.009  1.00  0.00     0.169 HD
HETATM   14  O   UNL     1     -39.834  58.839 -53.192  1.00  0.00    -0.266 OA
BRANCH  12  15
HETATM   15  C   UNL     1     -41.388  56.280 -53.139  1.00  0.00     0.035 A 
HETATM   16  C   UNL     1     -41.341  55.421 -52.043  1.00  0.00     0.032 A 
HETATM   17  C   UNL     1     -40.935  54.087 -52.196  1.00  0.00     0.032 A 
HETATM   18  C   UNL     1     -40.570  53.592 -53.447  1.00  0.00     0.034 A 
HETATM   19  C   UNL     1     -40.604  54.459 -54.544  1.00  0.00     0.032 A 
HETATM   20  C   UNL     1     -41.010  55.791 -54.391  1.00  0.00     0.032 A 
BRANCH  18  21
HETATM   21  N   UNL     1     -40.184  52.258 -53.692  1.00  0.00    -0.327 N 
HETATM   22  C   UNL     1     -39.593  51.375 -52.807  1.00  0.00     0.221 C 
HETATM   23  O   UNL     1     -39.283  51.608 -51.643  1.00  0.00    -0.273 OA
HETATM   24  H   UNL     1     -40.369  51.916 -54.625  1.00  0.00     0.169 HD
BRANCH  22  25
HETATM   25  C   UNL     1     -39.393  49.982 -53.385  1.00  0.00     0.098 C 
HETATM   26  C   UNL     1     -39.863  49.838 -54.822  1.00  0.00     0.014 C 
ENDBRANCH  22  25
ENDBRANCH  18  21
ENDBRANCH  12  15
ENDBRANCH   1  11
BRANCH   8  27
HETATM   27  C   UNL     1     -44.453  61.769 -50.120  1.00  0.00     0.409 C 
HETATM   28  F   UNL     1     -43.889  61.162 -49.047  1.00  0.00    -0.169 F 
HETATM   29  F   UNL     1     -45.336  62.670 -49.617  1.00  0.00    -0.169 F 
HETATM   30  F   UNL     1     -45.165  60.836 -50.778  1.00  0.00    -0.169 F 
ENDBRANCH   8  27
BRANCH   6  31
HETATM   31  C   UNL     1     -46.080  63.246 -52.774  1.00  0.00     0.075 A 
HETATM   32  O   UNL     1     -46.848  64.052 -51.984  1.00  0.00    -0.325 OA
HETATM   33  C   UNL     1     -48.103  63.535 -51.988  1.00  0.00     0.142 A 
HETATM   34  C   UNL     1     -48.158  62.408 -52.773  1.00  0.00     0.027 A 
HETATM   35  C   UNL     1     -46.854  62.224 -53.290  1.00  0.00     0.037 A 
ENDBRANCH   6  31
TORSDOF 6
ENDMDL
MODEL 7
REMARK VINA RESULT:      -7.4     17.297     21.986
REMARK  6 active torsions:
REMARK  status: ('A' for Active; 'I' for Inactive)
REMARK    1  A    between atoms: C_2  and  C_3 
REMARK       I    between atoms: C_3  and  N_4 
REMARK    2  A    between atoms: N_4  and  C_5 
REMARK    3  A    between atoms: C_8  and  N_9 
REMARK       I    between atoms: N_9  and  C_10 
REMARK    4  A    between atoms: C_10  and  C_11 
REMARK    5  A    between atoms: C_16  and  C_17 
REMARK    6  A    between atoms: C_23  and  C_24 
ROOT
HETATM    1  C   UNL     1     -34.791  40.640 -52.344  1.00  0.00     0.148 A 
HETATM    2  N   UNL     1     -35.892  41.206 -52.893  1.00  0.00    -0.165 NA
HETATM    3  N   UNL     1     -35.563  41.343 -54.192  1.00  0.00    -0.240 N 
HETATM    4  C   UNL     1     -34.300  40.910 -54.490  1.00  0.00     0.123 A 
HETATM    5  N   UNL     1     -33.790  41.012 -55.737  1.00  0.00    -0.364 N 
HETATM    6  C   UNL     1     -34.636  41.364 -56.878  1.00  0.00     0.143 C 
HETATM    7  C   UNL     1     -35.716  42.366 -56.429  1.00  0.00     0.068 C 
HETATM    8  C   UNL     1     -36.466  41.958 -55.146  1.00  0.00     0.221 C 
HETATM    9  C   UNL     1     -33.773  40.442 -53.317  1.00  0.00     0.089 A 
HETATM   10  H   UNL     1     -32.923  40.536 -55.977  1.00  0.00     0.162 HD
ENDROOT
BRANCH   1  11
HETATM   11  C   UNL     1     -34.717  40.306 -50.910  1.00  0.00     0.276 C 
HETATM   12  N   UNL     1     -33.478  39.798 -50.568  1.00  0.00    -0.322 N 
HETATM   13  H   UNL     1     -32.824  39.777 -51.348  1.00  0.00     0.169 HD
HETATM   14  O   UNL     1     -35.668  40.493 -50.160  1.00  0.00    -0.266 OA
BRANCH  12  15
HETATM   15  C   UNL     1     -33.042  39.323 -49.323  1.00  0.00     0.035 A 
HETATM   16  C   UNL     1     -33.675  38.304 -48.613  1.00  0.00     0.032 A 
HETATM   17  C   UNL     1     -33.157  37.857 -47.388  1.00  0.00     0.032 A 
HETATM   18  C   UNL     1     -31.999  38.422 -46.855  1.00  0.00     0.034 A 
HETATM   19  C   UNL     1     -31.373  39.454 -47.561  1.00  0.00     0.032 A 
HETATM   20  C   UNL     1     -31.889  39.900 -48.784  1.00  0.00     0.032 A 
BRANCH  18  21
HETATM   21  N   UNL     1     -31.395  38.008 -45.649  1.00  0.00    -0.327 N 
HETATM   22  C   UNL     1     -31.799  38.302 -44.360  1.00  0.00     0.221 C 
HETATM   23  O   UNL     1     -32.756  38.997 -44.036  1.00  0.00    -0.273 OA
HETATM   24  H   UNL     1     -30.576  37.426 -45.751  1.00  0.00     0.169 HD
BRANCH  22  25
HETATM   25  C   UNL     1     -30.962  37.612 -43.292  1.00  0.00     0.098 C 
HETATM   26  C   UNL     1     -31.687  37.417 -41.972  1.00  0.00     0.014 C 
ENDBRANCH  22  25
ENDBRANCH  18  21
ENDBRANCH  12  15
ENDBRANCH   1  11
BRANCH   8  27
HETATM   27  C   UNL     1     -37.660  41.062 -55.391  1.00  0.00     0.409 C 
HETATM   28  F   UNL     1     -37.327  39.750 -55.327  1.00  0.00    -0.169 F 
HETATM   29  F   UNL     1     -38.599  41.256 -54.430  1.00  0.00    -0.169 F 
HETATM   30  F   UNL     1     -38.257  41.265 -56.580  1.00  0.00    -0.169 F 
ENDBRANCH   8  27
BRANCH   6  31
HETATM   31  C   UNL     1     -35.190  40.202 -57.634  1.00  0.00     0.075 A 
HETATM   32  O   UNL     1     -36.080  40.494 -58.628  1.00  0.00    -0.325 OA
HETATM   33  C   UNL     1     -36.444  39.316 -59.197  1.00  0.00     0.142 A 
HETATM   34  C   UNL     1     -35.800  38.267 -58.587  1.00  0.00     0.027 A 
HETATM   35  C   UNL     1     -34.981  38.837 -57.583  1.00  0.00     0.037 A 
ENDBRANCH   6  31
TORSDOF 6
ENDMDL
MODEL 8
REMARK VINA RESULT:      -7.3      6.327      9.685
REMARK  6 active torsions:
REMARK  status: ('A' for Active; 'I' for Inactive)
REMARK    1  A    between atoms: C_2  and  C_3 
REMARK       I    between atoms: C_3  and  N_4 
REMARK    2  A    between atoms: N_4  and  C_5 
REMARK    3  A    between atoms: C_8  and  N_9 
REMARK       I    between atoms: N_9  and  C_10 
REMARK    4  A    between atoms: C_10  and  C_11 
REMARK    5  A    between atoms: C_16  and  C_17 
REMARK    6  A    between atoms: C_23  and  C_24 
ROOT
HETATM    1  C   UNL     1     -42.668  60.580 -51.101  1.00  0.00     0.148 A 
HETATM    2  N   UNL     1     -43.178  60.640 -49.848  1.00  0.00    -0.165 NA
HETATM    3  N   UNL     1     -43.813  61.828 -49.821  1.00  0.00    -0.240 N 
HETATM    4  C   UNL     1     -43.713  62.533 -50.989  1.00  0.00     0.123 A 
HETATM    5  N   UNL     1     -44.254  63.763 -51.124  1.00  0.00    -0.364 N 
HETATM    6  C   UNL     1     -45.173  64.304 -50.122  1.00  0.00     0.143 C 
HETATM    7  C   UNL     1     -44.749  63.825 -48.721  1.00  0.00     0.068 C 
HETATM    8  C   UNL     1     -44.474  62.311 -48.625  1.00  0.00     0.221 C 
HETATM    9  C   UNL     1     -42.984  61.751 -51.843  1.00  0.00     0.089 A 
HETATM   10  H   UNL     1     -44.318  64.199 -52.042  1.00  0.00     0.162 HD
ENDROOT
BRANCH   1  11
HETATM   11  C   UNL     1     -41.884  59.423 -51.571  1.00  0.00     0.276 C 
HETATM   12  N   UNL     1     -42.358  58.238 -51.041  1.00  0.00    -0.322 N 
HETATM   13  H   UNL     1     -43.180  58.361 -50.454  1.00  0.00     0.169 HD
HETATM   14  O   UNL     1     -40.947  59.559 -52.348  1.00  0.00    -0.266 OA
BRANCH  12  15
HETATM   15  C   UNL     1     -41.850  56.941 -51.208  1.00  0.00     0.035 A 
HETATM   16  C   UNL     1     -41.058  56.287 -50.267  1.00  0.00     0.032 A 
HETATM   17  C   UNL     1     -40.617  54.973 -50.491  1.00  0.00     0.032 A 
HETATM   18  C   UNL     1     -40.961  54.296 -51.660  1.00  0.00     0.034 A 
HETATM   19  C   UNL     1     -41.743  54.959 -52.611  1.00  0.00     0.032 A 
HETATM   20  C   UNL     1     -42.184  56.269 -52.387  1.00  0.00     0.032 A 
BRANCH  18  21
HETATM   21  N   UNL     1     -40.588  52.966 -51.946  1.00  0.00    -0.327 N 
HETATM   22  C   UNL     1     -40.167  52.452 -53.159  1.00  0.00     0.221 C 
HETATM   23  O   UNL     1     -40.058  53.067 -54.214  1.00  0.00    -0.273 OA
HETATM   24  H   UNL     1     -40.634  52.324 -51.168  1.00  0.00     0.169 HD
BRANCH  22  25
HETATM   25  C   UNL     1     -39.759  50.988 -53.085  1.00  0.00     0.098 C 
HETATM   26  C   UNL     1     -39.841  50.257 -54.414  1.00  0.00     0.014 C 
ENDBRANCH  22  25
ENDBRANCH  18  21
ENDBRANCH  12  15
ENDBRANCH   1  11
BRANCH   8  27
HETATM   27  C   UNL     1     -45.705  61.481 -48.333  1.00  0.00     0.409 C 
HETATM   28  F   UNL     1     -46.660  62.203 -47.697  1.00  0.00    -0.169 F 
HETATM   29  F   UNL     1     -46.270  61.055 -49.492  1.00  0.00    -0.169 F 
HETATM   30  F   UNL     1     -45.462  60.392 -47.583  1.00  0.00    -0.169 F 
ENDBRANCH   8  27
BRANCH   6  31
HETATM   31  C   UNL     1     -46.621  64.077 -50.406  1.00  0.00     0.075 A 
HETATM   32  O   UNL     1     -47.497  64.451 -49.428  1.00  0.00    -0.325 OA
HETATM   33  C   UNL     1     -48.747  64.181 -49.886  1.00  0.00     0.142 A 
HETATM   34  C   UNL     1     -48.691  63.641 -51.149  1.00  0.00     0.027 A 
HETATM   35  C   UNL     1     -47.319  63.582 -51.491  1.00  0.00     0.037 A 
ENDBRANCH   6  31
TORSDOF 6
ENDMDL
MODEL 9
REMARK VINA RESULT:      -6.9      3.305     10.249
REMARK  6 active torsions:
REMARK  status: ('A' for Active; 'I' for Inactive)
REMARK    1  A    between atoms: C_2  and  C_3 
REMARK       I    between atoms: C_3  and  N_4 
REMARK    2  A    between atoms: N_4  and  C_5 
REMARK    3  A    between atoms: C_8  and  N_9 
REMARK       I    between atoms: N_9  and  C_10 
REMARK    4  A    between atoms: C_10  and  C_11 
REMARK    5  A    between atoms: C_16  and  C_17 
REMARK    6  A    between atoms: C_23  and  C_24 
ROOT
HETATM    1  C   UNL     1     -44.179  58.616 -56.788  1.00  0.00     0.148 A 
HETATM    2  N   UNL     1     -43.771  57.996 -57.920  1.00  0.00    -0.165 NA
HETATM    3  N   UNL     1     -43.783  58.979 -58.842  1.00  0.00    -0.240 N 
HETATM    4  C   UNL     1     -44.199  60.187 -58.353  1.00  0.00     0.123 A 
HETATM    5  N   UNL     1     -44.313  61.273 -59.148  1.00  0.00    -0.364 N 
HETATM    6  C   UNL     1     -43.774  61.280 -60.508  1.00  0.00     0.143 C 
HETATM    7  C   UNL     1     -43.928  59.881 -61.131  1.00  0.00     0.068 C 
HETATM    8  C   UNL     1     -43.444  58.728 -60.228  1.00  0.00     0.221 C 
HETATM    9  C   UNL     1     -44.458  59.990 -57.024  1.00  0.00     0.089 A 
HETATM   10  H   UNL     1     -44.459  62.195 -58.740  1.00  0.00     0.162 HD
ENDROOT
BRANCH   1  11
HETATM   11  C   UNL     1     -44.309  57.897 -55.507  1.00  0.00     0.276 C 
HETATM   12  N   UNL     1     -43.132  57.260 -55.160  1.00  0.00    -0.322 N 
HETATM   13  H   UNL     1     -42.376  57.425 -55.820  1.00  0.00     0.169 HD
HETATM   14  O   UNL     1     -45.354  57.911 -54.869  1.00  0.00    -0.266 OA
BRANCH  12  15
HETATM   15  C   UNL     1     -42.878  56.440 -54.050  1.00  0.00     0.035 A 
HETATM   16  C   UNL     1     -43.296  55.115 -53.948  1.00  0.00     0.032 A 
HETATM   17  C   UNL     1     -42.970  54.346 -52.820  1.00  0.00     0.032 A 
HETATM   18  C   UNL     1     -42.223  54.892 -51.777  1.00  0.00     0.034 A 
HETATM   19  C   UNL     1     -41.816  56.227 -51.875  1.00  0.00     0.032 A 
HETATM   20  C   UNL     1     -42.140  56.994 -53.001  1.00  0.00     0.032 A 
BRANCH  18  21
HETATM   21  N   UNL     1     -41.825  54.180 -50.627  1.00  0.00    -0.327 N 
HETATM   22  C   UNL     1     -40.632  53.511 -50.421  1.00  0.00     0.221 C 
HETATM   23  O   UNL     1     -39.707  53.406 -51.219  1.00  0.00    -0.273 OA
HETATM   24  H   UNL     1     -42.494  54.167 -49.870  1.00  0.00     0.169 HD
BRANCH  22  25
HETATM   25  C   UNL     1     -40.502  52.925 -49.022  1.00  0.00     0.098 C 
HETATM   26  C   UNL     1     -40.301  53.966 -47.935  1.00  0.00     0.014 C 
ENDBRANCH  22  25
ENDBRANCH  18  21
ENDBRANCH  12  15
ENDBRANCH   1  11
BRANCH   8  27
HETATM   27  C   UNL     1     -41.968  58.423 -60.362  1.00  0.00     0.409 C 
HETATM   28  F   UNL     1     -41.450  58.935 -61.505  1.00  0.00    -0.169 F 
HETATM   29  F   UNL     1     -41.275  59.000 -59.347  1.00  0.00    -0.169 F 
HETATM   30  F   UNL     1     -41.680  57.109 -60.346  1.00  0.00    -0.169 F 
ENDBRANCH   8  27
BRANCH   6  31
HETATM   31  C   UNL     1     -42.392  61.832 -60.635  1.00  0.00     0.075 A 
HETATM   32  O   UNL     1     -41.757  62.151 -59.469  1.00  0.00    -0.325 OA
HETATM   33  C   UNL     1     -40.523  62.611 -59.800  1.00  0.00     0.142 A 
HETATM   34  C   UNL     1     -40.350  62.591 -61.163  1.00  0.00     0.027 A 
HETATM   35  C   UNL     1     -41.553  62.079 -61.705  1.00  0.00     0.037 A 
ENDBRANCH   6  31
TORSDOF 6
ENDMDL
MODEL 10
REMARK VINA RESULT:      -6.9      4.094     10.306
REMARK  6 active torsions:
REMARK  status: ('A' for Active; 'I' for Inactive)
REMARK    1  A    between atoms: C_2  and  C_3 
REMARK       I    between atoms: C_3  and  N_4 
REMARK    2  A    between atoms: N_4  and  C_5 
REMARK    3  A    between atoms: C_8  and  N_9 
REMARK       I    between atoms: N_9  and  C_10 
REMARK    4  A    between atoms: C_10  and  C_11 
REMARK    5  A    between atoms: C_16  and  C_17 
REMARK    6  A    between atoms: C_23  and  C_24 
ROOT
HETATM    1  C   UNL     1     -43.021  57.989 -56.796  1.00  0.00     0.148 A 
HETATM    2  N   UNL     1     -42.714  57.845 -58.107  1.00  0.00    -0.165 NA
HETATM    3  N   UNL     1     -43.607  58.638 -58.730  1.00  0.00    -0.240 N 
HETATM    4  C   UNL     1     -44.477  59.263 -57.880  1.00  0.00     0.123 A 
HETATM    5  N   UNL     1     -45.466  60.063 -58.336  1.00  0.00    -0.364 N 
HETATM    6  C   UNL     1     -45.510  60.493 -59.734  1.00  0.00     0.143 C 
HETATM    7  C   UNL     1     -44.987  59.363 -60.639  1.00  0.00     0.068 C 
HETATM    8  C   UNL     1     -43.653  58.745 -60.175  1.00  0.00     0.221 C 
HETATM    9  C   UNL     1     -44.122  58.870 -56.618  1.00  0.00     0.089 A 
HETATM   10  H   UNL     1     -45.992  60.648 -57.691  1.00  0.00     0.162 HD
ENDROOT
BRANCH   1  11
HETATM   11  C   UNL     1     -42.275  57.285 -55.737  1.00  0.00     0.276 C 
HETATM   12  N   UNL     1     -42.178  55.931 -55.996  1.00  0.00    -0.322 N 
HETATM   13  H   UNL     1     -42.601  55.661 -56.882  1.00  0.00     0.169 HD
HETATM   14  O   UNL     1     -41.809  57.885 -54.776  1.00  0.00    -0.266 OA
BRANCH  12  15
HETATM   15  C   UNL     1     -41.594  54.929 -55.206  1.00  0.00     0.035 A 
HETATM   16  C   UNL     1     -40.415  54.264 -55.536  1.00  0.00     0.032 A 
HETATM   17  C   UNL     1     -39.873  53.299 -54.675  1.00  0.00     0.032 A 
HETATM   18  C   UNL     1     -40.502  52.983 -53.472  1.00  0.00     0.034 A 
HETATM   19  C   UNL     1     -41.694  53.640 -53.148  1.00  0.00     0.032 A 
HETATM   20  C   UNL     1     -42.234  54.605 -54.008  1.00  0.00     0.032 A 
BRANCH  18  21
HETATM   21  N   UNL     1     -40.007  52.051 -52.536  1.00  0.00    -0.327 N 
HETATM   22  C   UNL     1     -39.765  50.704 -52.735  1.00  0.00     0.221 C 
HETATM   23  O   UNL     1     -39.956  50.074 -53.769  1.00  0.00    -0.273 OA
HETATM   24  H   UNL     1     -39.804  52.422 -51.618  1.00  0.00     0.169 HD
BRANCH  22  25
HETATM   25  C   UNL     1     -39.143  50.017 -51.528  1.00  0.00     0.098 C 
HETATM   26  C   UNL     1     -40.142  49.652 -50.444  1.00  0.00     0.014 C 
ENDBRANCH  22  25
ENDBRANCH  18  21
ENDBRANCH  12  15
ENDBRANCH   1  11
BRANCH   8  27
HETATM   27  C   UNL     1     -42.430  59.471 -60.688  1.00  0.00     0.409 C 
HETATM   28  F   UNL     1     -41.915  60.311 -59.757  1.00  0.00    -0.169 F 
HETATM   29  F   UNL     1     -41.442  58.585 -60.976  1.00  0.00    -0.169 F 
HETATM   30  F   UNL     1     -42.653  60.196 -61.799  1.00  0.00    -0.169 F 
ENDBRANCH   8  27
BRANCH   6  31
HETATM   31  C   UNL     1     -44.865  61.812 -60.009  1.00  0.00     0.075 A 
HETATM   32  O   UNL     1     -44.120  62.345 -58.996  1.00  0.00    -0.325 OA
HETATM   33  C   UNL     1     -43.613  63.520 -59.449  1.00  0.00     0.142 A 
HETATM   34  C   UNL     1     -44.017  63.752 -60.742  1.00  0.00     0.027 A 
HETATM   35  C   UNL     1     -44.818  62.646 -61.110  1.00  0.00     0.037 A 
ENDBRANCH   6  31
TORSDOF 6
ENDMDL
