MODEL 1
REMARK VINA RESULT:      -9.4      0.000      0.000
REMARK  5 active torsions:
REMARK  status: ('A' for Active; 'I' for Inactive)
REMARK    1  A    between atoms: C_6  and  S_7 
REMARK    2  A    between atoms: S_7  and  C_8 
REMARK    3  A    between atoms: C_8  and  C_9 
REMARK       I    between atoms: C_9  and  N_10 
REMARK    4  A    between atoms: N_10  and  C_11 
REMARK    5  A    between atoms: N_22  and  C_23 
ROOT
HETATM    1  C   UNL     1     -39.483  51.634 -52.281  1.00  0.00     0.001 A 
HETATM    2  C   UNL     1     -39.982  52.820 -51.743  1.00  0.00     0.019 A 
HETATM    3  C   UNL     1     -40.826  53.629 -52.511  1.00  0.00     0.061 A 
HETATM    4  C   UNL     1     -41.177  53.267 -53.809  1.00  0.00     0.075 A 
HETATM    5  N   UNL     1     -42.023  54.049 -54.601  1.00  0.00    -0.223 NA
HETATM    6  C   UNL     1     -42.486  55.152 -54.109  1.00  0.00     0.177 A 
HETATM    7  N   UNL     1     -42.214  55.611 -52.827  1.00  0.00    -0.255 N 
HETATM    8  C   UNL     1     -41.359  54.898 -51.981  1.00  0.00     0.267 A 
HETATM    9  O   UNL     1     -40.994  55.268 -50.867  1.00  0.00    -0.267 OA
HETATM   10  C   UNL     1     -40.668  52.079 -54.341  1.00  0.00     0.032 A 
HETATM   11  C   UNL     1     -39.825  51.265 -53.581  1.00  0.00     0.002 A 
ENDROOT
BRANCH   6  12
HETATM   12  S   UNL     1     -43.590  56.047 -55.144  1.00  0.00    -0.082 SA
BRANCH  12  13
HETATM   13  C   UNL     1     -42.427  56.685 -56.392  1.00  0.00     0.185 C 
BRANCH  13  14
HETATM   14  C   UNL     1     -43.105  57.136 -57.683  1.00  0.00     0.231 C 
HETATM   15  N   UNL     1     -44.484  57.167 -57.627  1.00  0.00    -0.326 N 
HETATM   16  H   UNL     1     -44.887  56.933 -56.722  1.00  0.00     0.169 HD
HETATM   17  O   UNL     1     -42.427  57.370 -58.683  1.00  0.00    -0.272 OA
BRANCH  15  18
HETATM   18  C   UNL     1     -45.398  57.474 -58.652  1.00  0.00     0.037 A 
HETATM   19  C   UNL     1     -45.832  56.548 -59.606  1.00  0.00     0.061 A 
HETATM   20  C   UNL     1     -46.754  56.989 -60.530  1.00  0.00     0.065 A 
HETATM   21  C   UNL     1     -47.235  58.295 -60.543  1.00  0.00     0.063 A 
HETATM   22  N   UNL     1     -47.372  56.296 -61.566  1.00  0.00    -0.306 N 
HETATM   23  N   UNL     1     -48.143  58.409 -61.588  1.00  0.00    -0.307 N 
HETATM   24  C   UNL     1     -46.824  59.233 -59.630  1.00  0.00     0.034 A 
HETATM   25  C   UNL     1     -48.244  57.168 -62.234  1.00  0.00     0.325 A 
HETATM   26  H   UNL     1     -48.665  59.225 -61.862  1.00  0.00     0.170 HD
HETATM   27  O   UNL     1     -48.952  56.902 -63.188  1.00  0.00    -0.247 OA
HETATM   28  C   UNL     1     -45.897  58.805 -58.671  1.00  0.00     0.032 A 
HETATM   29  H   UNL     1     -47.239  55.330 -61.815  1.00  0.00     0.170 HD
ENDBRANCH  15  18
ENDBRANCH  13  14
ENDBRANCH  12  13
ENDBRANCH   6  12
BRANCH   7  30
HETATM   30  C   UNL     1     -42.765  56.819 -52.305  1.00  0.00     0.066 A 
HETATM   31  C   UNL     1     -42.135  58.059 -52.514  1.00  0.00     0.061 A 
HETATM   32 CL   UNL     1     -40.592  58.183 -53.287  1.00  0.00    -0.082 Cl
HETATM   33  C   UNL     1     -42.719  59.233 -52.031  1.00  0.00     0.026 A 
HETATM   34  C   UNL     1     -43.931  59.179 -51.341  1.00  0.00     0.002 A 
HETATM   35  C   UNL     1     -44.561  57.954 -51.130  1.00  0.00     0.002 A 
HETATM   36  C   UNL     1     -43.984  56.776 -51.611  1.00  0.00     0.032 A 
ENDBRANCH   7  30
TORSDOF 5
ENDMDL
MODEL 2
REMARK VINA RESULT:      -9.1      3.498      9.740
REMARK  5 active torsions:
REMARK  status: ('A' for Active; 'I' for Inactive)
REMARK    1  A    between atoms: C_6  and  S_7 
REMARK    2  A    between atoms: S_7  and  C_8 
REMARK    3  A    between atoms: C_8  and  C_9 
REMARK       I    between atoms: C_9  and  N_10 
REMARK    4  A    between atoms: N_10  and  C_11 
REMARK    5  A    between atoms: N_22  and  C_23 
ROOT
HETATM    1  C   UNL     1     -40.601  62.521 -60.469  1.00  0.00     0.001 A 
HETATM    2  C   UNL     1     -41.543  61.583 -60.889  1.00  0.00     0.019 A 
HETATM    3  C   UNL     1     -42.097  60.694 -59.961  1.00  0.00     0.061 A 
HETATM    4  C   UNL     1     -41.720  60.732 -58.621  1.00  0.00     0.075 A 
HETATM    5  N   UNL     1     -42.259  59.863 -57.667  1.00  0.00    -0.223 NA
HETATM    6  C   UNL     1     -43.130  58.987 -58.051  1.00  0.00     0.177 A 
HETATM    7  N   UNL     1     -43.589  58.861 -59.355  1.00  0.00    -0.255 N 
HETATM    8  C   UNL     1     -43.083  59.677 -60.371  1.00  0.00     0.267 A 
HETATM    9  O   UNL     1     -43.365  59.580 -61.564  1.00  0.00    -0.267 OA
HETATM   10  C   UNL     1     -40.772  61.673 -58.212  1.00  0.00     0.032 A 
HETATM   11  C   UNL     1     -40.214  62.566 -59.131  1.00  0.00     0.002 A 
ENDROOT
BRANCH   6  12
HETATM   12  S   UNL     1     -43.804  57.973 -56.782  1.00  0.00    -0.082 SA
BRANCH  12  13
HETATM   13  C   UNL     1     -42.298  57.590 -55.833  1.00  0.00     0.185 C 
BRANCH  13  14
HETATM   14  C   UNL     1     -42.335  56.222 -55.156  1.00  0.00     0.231 C 
HETATM   15  N   UNL     1     -41.119  55.795 -54.659  1.00  0.00    -0.326 N 
HETATM   16  H   UNL     1     -40.352  56.457 -54.759  1.00  0.00     0.169 HD
HETATM   17  O   UNL     1     -43.376  55.569 -55.148  1.00  0.00    -0.272 OA
BRANCH  15  18
HETATM   18  C   UNL     1     -40.804  54.570 -54.042  1.00  0.00     0.037 A 
HETATM   19  C   UNL     1     -40.515  53.398 -54.748  1.00  0.00     0.061 A 
HETATM   20  C   UNL     1     -40.195  52.284 -54.005  1.00  0.00     0.065 A 
HETATM   21  C   UNL     1     -40.167  52.295 -52.613  1.00  0.00     0.063 A 
HETATM   22  N   UNL     1     -39.846  51.005 -54.428  1.00  0.00    -0.306 N 
HETATM   23  N   UNL     1     -39.808  51.025 -52.179  1.00  0.00    -0.307 N 
HETATM   24  C   UNL     1     -40.456  53.422 -51.887  1.00  0.00     0.034 A 
HETATM   25  C   UNL     1     -39.600  50.208 -53.301  1.00  0.00     0.325 A 
HETATM   26  H   UNL     1     -39.700  50.707 -51.230  1.00  0.00     0.170 HD
HETATM   27  O   UNL     1     -39.266  49.038 -53.294  1.00  0.00    -0.247 OA
HETATM   28  C   UNL     1     -40.771  54.573 -52.621  1.00  0.00     0.032 A 
HETATM   29  H   UNL     1     -39.770  50.680 -55.377  1.00  0.00     0.170 HD
ENDBRANCH  15  18
ENDBRANCH  13  14
ENDBRANCH  12  13
ENDBRANCH   6  12
BRANCH   7  30
HETATM   30  C   UNL     1     -44.573  57.901 -59.738  1.00  0.00     0.066 A 
HETATM   31  C   UNL     1     -44.238  56.550 -59.938  1.00  0.00     0.061 A 
HETATM   32 CL   UNL     1     -42.601  55.994 -59.870  1.00  0.00    -0.082 Cl
HETATM   33  C   UNL     1     -45.230  55.623 -60.268  1.00  0.00     0.026 A 
HETATM   34  C   UNL     1     -46.556  56.034 -60.401  1.00  0.00     0.002 A 
HETATM   35  C   UNL     1     -46.896  57.372 -60.205  1.00  0.00     0.002 A 
HETATM   36  C   UNL     1     -45.911  58.305 -59.872  1.00  0.00     0.032 A 
ENDBRANCH   7  30
TORSDOF 5
ENDMDL
MODEL 3
REMARK VINA RESULT:      -8.9      3.729      9.996
REMARK  5 active torsions:
REMARK  status: ('A' for Active; 'I' for Inactive)
REMARK    1  A    between atoms: C_6  and  S_7 
REMARK    2  A    between atoms: S_7  and  C_8 
REMARK    3  A    between atoms: C_8  and  C_9 
REMARK       I    between atoms: C_9  and  N_10 
REMARK    4  A    between atoms: N_10  and  C_11 
REMARK    5  A    between atoms: N_22  and  C_23 
ROOT
HETATM    1  C   UNL     1     -40.208  62.974 -60.860  1.00  0.00     0.001 A 
HETATM    2  C   UNL     1     -41.208  62.029 -61.087  1.00  0.00     0.019 A 
HETATM    3  C   UNL     1     -41.646  61.218 -60.035  1.00  0.00     0.061 A 
HETATM    4  C   UNL     1     -41.099  61.340 -58.761  1.00  0.00     0.075 A 
HETATM    5  N   UNL     1     -41.519  60.550 -57.687  1.00  0.00    -0.223 NA
HETATM    6  C   UNL     1     -42.443  59.668 -57.892  1.00  0.00     0.177 A 
HETATM    7  N   UNL     1     -43.070  59.462 -59.114  1.00  0.00    -0.255 N 
HETATM    8  C   UNL     1     -42.690  60.197 -60.242  1.00  0.00     0.267 A 
HETATM    9  O   UNL     1     -43.126  60.024 -61.379  1.00  0.00    -0.267 OA
HETATM   10  C   UNL     1     -40.094  62.287 -58.545  1.00  0.00     0.032 A 
HETATM   11  C   UNL     1     -39.650  63.102 -59.589  1.00  0.00     0.002 A 
ENDROOT
BRANCH   6  12
HETATM   12  S   UNL     1     -42.959  58.757 -56.479  1.00  0.00    -0.082 SA
BRANCH  12  13
HETATM   13  C   UNL     1     -42.178  59.735 -55.156  1.00  0.00     0.185 C 
BRANCH  13  14
HETATM   14  C   UNL     1     -41.459  58.883 -54.112  1.00  0.00     0.231 C 
HETATM   15  N   UNL     1     -42.077  57.682 -53.826  1.00  0.00    -0.326 N 
HETATM   16  H   UNL     1     -42.912  57.482 -54.374  1.00  0.00     0.169 HD
HETATM   17  O   UNL     1     -40.453  59.317 -53.553  1.00  0.00    -0.272 OA
BRANCH  15  18
HETATM   18  C   UNL     1     -41.711  56.709 -52.879  1.00  0.00     0.037 A 
HETATM   19  C   UNL     1     -41.800  56.901 -51.496  1.00  0.00     0.061 A 
HETATM   20  C   UNL     1     -41.431  55.844 -50.694  1.00  0.00     0.065 A 
HETATM   21  C   UNL     1     -40.975  54.634 -51.211  1.00  0.00     0.063 A 
HETATM   22  N   UNL     1     -41.438  55.738 -49.306  1.00  0.00    -0.306 N 
HETATM   23  N   UNL     1     -40.695  53.788 -50.146  1.00  0.00    -0.307 N 
HETATM   24  C   UNL     1     -40.865  54.414 -52.560  1.00  0.00     0.034 A 
HETATM   25  C   UNL     1     -40.983  54.461 -48.949  1.00  0.00     0.325 A 
HETATM   26  H   UNL     1     -40.349  52.844 -50.186  1.00  0.00     0.170 HD
HETATM   27  O   UNL     1     -40.863  54.019 -47.821  1.00  0.00    -0.247 OA
HETATM   28  C   UNL     1     -41.246  55.470 -53.398  1.00  0.00     0.032 A 
HETATM   29  H   UNL     1     -41.720  56.443 -48.645  1.00  0.00     0.170 HD
ENDBRANCH  15  18
ENDBRANCH  13  14
ENDBRANCH  12  13
ENDBRANCH   6  12
BRANCH   7  30
HETATM   30  C   UNL     1     -44.106  58.500 -59.299  1.00  0.00     0.066 A 
HETATM   31  C   UNL     1     -43.814  57.167 -59.640  1.00  0.00     0.061 A 
HETATM   32 CL   UNL     1     -42.203  56.645 -59.993  1.00  0.00    -0.082 Cl
HETATM   33  C   UNL     1     -44.846  56.234 -59.771  1.00  0.00     0.026 A 
HETATM   34  C   UNL     1     -46.170  56.621 -59.562  1.00  0.00     0.002 A 
HETATM   35  C   UNL     1     -46.467  57.940 -59.224  1.00  0.00     0.002 A 
HETATM   36  C   UNL     1     -45.442  58.879 -59.089  1.00  0.00     0.032 A 
ENDBRANCH   7  30
TORSDOF 5
ENDMDL
MODEL 4
REMARK VINA RESULT:      -8.8      1.302      1.669
REMARK  5 active torsions:
REMARK  status: ('A' for Active; 'I' for Inactive)
REMARK    1  A    between atoms: C_6  and  S_7 
REMARK    2  A    between atoms: S_7  and  C_8 
REMARK    3  A    between atoms: C_8  and  C_9 
REMARK       I    between atoms: C_9  and  N_10 
REMARK    4  A    between atoms: N_10  and  C_11 
REMARK    5  A    between atoms: N_22  and  C_23 
ROOT
HETATM    1  C   UNL     1     -39.484  51.603 -52.150  1.00  0.00     0.001 A 
HETATM    2  C   UNL     1     -40.039  52.775 -51.638  1.00  0.00     0.019 A 
HETATM    3  C   UNL     1     -40.755  53.630 -52.484  1.00  0.00     0.061 A 
HETATM    4  C   UNL     1     -40.923  53.326 -53.832  1.00  0.00     0.075 A 
HETATM    5  N   UNL     1     -41.638  54.154 -54.702  1.00  0.00    -0.223 NA
HETATM    6  C   UNL     1     -42.151  55.246 -54.235  1.00  0.00     0.177 A 
HETATM    7  N   UNL     1     -42.058  55.648 -52.910  1.00  0.00    -0.255 N 
HETATM    8  C   UNL     1     -41.342  54.886 -51.982  1.00  0.00     0.267 A 
HETATM    9  O   UNL     1     -41.133  55.206 -50.813  1.00  0.00    -0.267 OA
HETATM   10  C   UNL     1     -40.359  52.151 -54.336  1.00  0.00     0.032 A 
HETATM   11  C   UNL     1     -39.643  51.291 -53.499  1.00  0.00     0.002 A 
ENDROOT
BRANCH   6  12
HETATM   12  S   UNL     1     -43.086  56.202 -55.378  1.00  0.00    -0.082 SA
BRANCH  12  13
HETATM   13  C   UNL     1     -42.834  55.233 -56.899  1.00  0.00     0.185 C 
BRANCH  13  14
HETATM   14  C   UNL     1     -43.322  55.941 -58.161  1.00  0.00     0.231 C 
HETATM   15  N   UNL     1     -44.512  56.625 -58.011  1.00  0.00    -0.326 N 
HETATM   16  H   UNL     1     -44.902  56.617 -57.071  1.00  0.00     0.169 HD
HETATM   17  O   UNL     1     -42.699  55.817 -59.214  1.00  0.00    -0.272 OA
BRANCH  15  18
HETATM   18  C   UNL     1     -45.253  57.321 -58.984  1.00  0.00     0.037 A 
HETATM   19  C   UNL     1     -45.007  58.650 -59.342  1.00  0.00     0.061 A 
HETATM   20  C   UNL     1     -45.799  59.187 -60.334  1.00  0.00     0.065 A 
HETATM   21  C   UNL     1     -46.813  58.464 -60.956  1.00  0.00     0.063 A 
HETATM   22  N   UNL     1     -45.769  60.455 -60.903  1.00  0.00    -0.306 N 
HETATM   23  N   UNL     1     -47.411  59.286 -61.901  1.00  0.00    -0.307 N 
HETATM   24  C   UNL     1     -47.090  57.162 -60.623  1.00  0.00     0.034 A 
HETATM   25  C   UNL     1     -46.768  60.533 -61.885  1.00  0.00     0.325 A 
HETATM   26  H   UNL     1     -48.174  59.061 -62.518  1.00  0.00     0.170 HD
HETATM   27  O   UNL     1     -47.026  61.492 -62.588  1.00  0.00    -0.247 OA
HETATM   28  C   UNL     1     -46.289  56.589 -59.626  1.00  0.00     0.032 A 
HETATM   29  H   UNL     1     -45.144  61.210 -60.673  1.00  0.00     0.170 HD
ENDBRANCH  15  18
ENDBRANCH  13  14
ENDBRANCH  12  13
ENDBRANCH   6  12
BRANCH   7  30
HETATM   30  C   UNL     1     -42.661  56.846 -52.421  1.00  0.00     0.066 A 
HETATM   31  C   UNL     1     -42.026  58.093 -52.558  1.00  0.00     0.061 A 
HETATM   32 CL   UNL     1     -40.424  58.238 -53.194  1.00  0.00    -0.082 Cl
HETATM   33  C   UNL     1     -42.659  59.255 -52.111  1.00  0.00     0.026 A 
HETATM   34  C   UNL     1     -43.925  59.183 -51.529  1.00  0.00     0.002 A 
HETATM   35  C   UNL     1     -44.561  57.951 -51.390  1.00  0.00     0.002 A 
HETATM   36  C   UNL     1     -43.936  56.784 -51.835  1.00  0.00     0.032 A 
ENDBRANCH   7  30
TORSDOF 5
ENDMDL
MODEL 5
REMARK VINA RESULT:      -8.7      1.836      2.590
REMARK  5 active torsions:
REMARK  status: ('A' for Active; 'I' for Inactive)
REMARK    1  A    between atoms: C_6  and  S_7 
REMARK    2  A    between atoms: S_7  and  C_8 
REMARK    3  A    between atoms: C_8  and  C_9 
REMARK       I    between atoms: C_9  and  N_10 
REMARK    4  A    between atoms: N_10  and  C_11 
REMARK    5  A    between atoms: N_22  and  C_23 
ROOT
HETATM    1  C   UNL     1     -40.882  53.386 -52.838  1.00  0.00     0.001 A 
HETATM    2  C   UNL     1     -41.594  54.273 -52.031  1.00  0.00     0.019 A 
HETATM    3  C   UNL     1     -41.917  55.545 -52.518  1.00  0.00     0.061 A 
HETATM    4  C   UNL     1     -41.538  55.939 -53.798  1.00  0.00     0.075 A 
HETATM    5  N   UNL     1     -41.851  57.199 -54.317  1.00  0.00    -0.223 NA
HETATM    6  C   UNL     1     -42.508  58.028 -53.572  1.00  0.00     0.177 A 
HETATM    7  N   UNL     1     -42.947  57.745 -52.286  1.00  0.00    -0.255 N 
HETATM    8  C   UNL     1     -42.655  56.516 -51.688  1.00  0.00     0.267 A 
HETATM    9  O   UNL     1     -42.927  56.210 -50.528  1.00  0.00    -0.267 OA
HETATM   10  C   UNL     1     -40.821  55.044 -54.596  1.00  0.00     0.032 A 
HETATM   11  C   UNL     1     -40.494  53.772 -54.120  1.00  0.00     0.002 A 
ENDROOT
BRANCH   6  12
HETATM   12  S   UNL     1     -42.914  59.568 -54.318  1.00  0.00    -0.082 SA
BRANCH  12  13
HETATM   13  C   UNL     1     -41.857  59.505 -55.799  1.00  0.00     0.185 C 
BRANCH  13  14
HETATM   14  C   UNL     1     -42.628  59.230 -57.087  1.00  0.00     0.231 C 
HETATM   15  N   UNL     1     -43.196  57.973 -57.159  1.00  0.00    -0.326 N 
HETATM   16  H   UNL     1     -43.076  57.395 -56.330  1.00  0.00     0.169 HD
HETATM   17  O   UNL     1     -42.646  60.071 -57.984  1.00  0.00    -0.272 OA
BRANCH  15  18
HETATM   18  C   UNL     1     -43.909  57.391 -58.223  1.00  0.00     0.037 A 
HETATM   19  C   UNL     1     -45.223  57.736 -58.557  1.00  0.00     0.061 A 
HETATM   20  C   UNL     1     -45.778  57.099 -59.644  1.00  0.00     0.065 A 
HETATM   21  C   UNL     1     -45.089  56.142 -60.385  1.00  0.00     0.063 A 
HETATM   22  N   UNL     1     -47.038  57.253 -60.215  1.00  0.00    -0.306 N 
HETATM   23  N   UNL     1     -45.923  55.704 -61.405  1.00  0.00    -0.307 N 
HETATM   24  C   UNL     1     -43.804  55.772 -60.081  1.00  0.00     0.034 A 
HETATM   25  C   UNL     1     -47.143  56.391 -61.316  1.00  0.00     0.325 A 
HETATM   26  H   UNL     1     -45.721  55.016 -62.112  1.00  0.00     0.170 HD
HETATM   27  O   UNL     1     -48.103  56.264 -62.053  1.00  0.00    -0.247 OA
HETATM   28  C   UNL     1     -43.212  56.415 -58.986  1.00  0.00     0.032 A 
HETATM   29  H   UNL     1     -47.769  57.875 -59.912  1.00  0.00     0.170 HD
ENDBRANCH  15  18
ENDBRANCH  13  14
ENDBRANCH  12  13
ENDBRANCH   6  12
BRANCH   7  30
HETATM   30  C   UNL     1     -43.695  58.674 -51.502  1.00  0.00     0.066 A 
HETATM   31  C   UNL     1     -43.068  59.749 -50.847  1.00  0.00     0.061 A 
HETATM   32 CL   UNL     1     -41.348  59.932 -50.831  1.00  0.00    -0.082 Cl
HETATM   33  C   UNL     1     -43.830  60.669 -50.123  1.00  0.00     0.026 A 
HETATM   34  C   UNL     1     -45.216  60.527 -50.049  1.00  0.00     0.002 A 
HETATM   35  C   UNL     1     -45.844  59.464 -50.696  1.00  0.00     0.002 A 
HETATM   36  C   UNL     1     -45.090  58.540 -51.423  1.00  0.00     0.032 A 
ENDBRANCH   7  30
TORSDOF 5
ENDMDL
MODEL 6
REMARK VINA RESULT:      -8.5      3.078      8.772
REMARK  5 active torsions:
REMARK  status: ('A' for Active; 'I' for Inactive)
REMARK    1  A    between atoms: C_6  and  S_7 
REMARK    2  A    between atoms: S_7  and  C_8 
REMARK    3  A    between atoms: C_8  and  C_9 
REMARK       I    between atoms: C_9  and  N_10 
REMARK    4  A    between atoms: N_10  and  C_11 
REMARK    5  A    between atoms: N_22  and  C_23 
ROOT
HETATM    1  C   UNL     1     -45.090  54.900 -60.966  1.00  0.00     0.001 A 
HETATM    2  C   UNL     1     -44.843  56.265 -60.830  1.00  0.00     0.019 A 
HETATM    3  C   UNL     1     -44.211  56.744 -59.676  1.00  0.00     0.061 A 
HETATM    4  C   UNL     1     -43.825  55.875 -58.660  1.00  0.00     0.075 A 
HETATM    5  N   UNL     1     -43.186  56.318 -57.498  1.00  0.00    -0.223 NA
HETATM    6  C   UNL     1     -42.957  57.584 -57.364  1.00  0.00     0.177 A 
HETATM    7  N   UNL     1     -43.287  58.544 -58.312  1.00  0.00    -0.255 N 
HETATM    8  C   UNL     1     -43.947  58.183 -59.490  1.00  0.00     0.267 A 
HETATM    9  O   UNL     1     -44.354  58.969 -60.344  1.00  0.00    -0.267 OA
HETATM   10  C   UNL     1     -44.082  54.508 -58.804  1.00  0.00     0.032 A 
HETATM   11  C   UNL     1     -44.711  54.021 -59.952  1.00  0.00     0.002 A 
ENDROOT
BRANCH   6  12
HETATM   12  S   UNL     1     -42.097  58.055 -55.904  1.00  0.00    -0.082 SA
BRANCH  12  13
HETATM   13  C   UNL     1     -43.283  57.511 -54.634  1.00  0.00     0.185 C 
BRANCH  13  14
HETATM   14  C   UNL     1     -43.068  56.071 -54.175  1.00  0.00     0.231 C 
HETATM   15  N   UNL     1     -41.759  55.756 -53.866  1.00  0.00    -0.326 N 
HETATM   16  H   UNL     1     -41.099  56.528 -53.934  1.00  0.00     0.169 HD
HETATM   17  O   UNL     1     -44.010  55.281 -54.171  1.00  0.00    -0.272 OA
BRANCH  15  18
HETATM   18  C   UNL     1     -41.223  54.515 -53.478  1.00  0.00     0.037 A 
HETATM   19  C   UNL     1     -41.091  53.423 -54.342  1.00  0.00     0.061 A 
HETATM   20  C   UNL     1     -40.519  52.282 -53.824  1.00  0.00     0.065 A 
HETATM   21  C   UNL     1     -40.095  52.191 -52.500  1.00  0.00     0.063 A 
HETATM   22  N   UNL     1     -40.243  51.068 -54.444  1.00  0.00    -0.306 N 
HETATM   23  N   UNL     1     -39.567  50.922 -52.304  1.00  0.00    -0.307 N 
HETATM   24  C   UNL     1     -40.219  53.237 -51.622  1.00  0.00     0.034 A 
HETATM   25  C   UNL     1     -39.647  50.209 -53.509  1.00  0.00     0.325 A 
HETATM   26  H   UNL     1     -39.177  50.543 -51.456  1.00  0.00     0.170 HD
HETATM   27  O   UNL     1     -39.270  49.068 -53.704  1.00  0.00    -0.247 OA
HETATM   28  C   UNL     1     -40.786  54.414 -52.129  1.00  0.00     0.032 A 
HETATM   29  H   UNL     1     -40.426  50.820 -55.402  1.00  0.00     0.170 HD
ENDBRANCH  15  18
ENDBRANCH  13  14
ENDBRANCH  12  13
ENDBRANCH   6  12
BRANCH   7  30
HETATM   30  C   UNL     1     -42.994  59.930 -58.144  1.00  0.00     0.066 A 
HETATM   31  C   UNL     1     -43.872  60.784 -57.454  1.00  0.00     0.061 A 
HETATM   32 CL   UNL     1     -45.417  60.246 -56.890  1.00  0.00    -0.082 Cl
HETATM   33  C   UNL     1     -43.539  62.128 -57.264  1.00  0.00     0.026 A 
HETATM   34  C   UNL     1     -42.333  62.626 -57.758  1.00  0.00     0.002 A 
HETATM   35  C   UNL     1     -41.458  61.786 -58.444  1.00  0.00     0.002 A 
HETATM   36  C   UNL     1     -41.782  60.441 -58.636  1.00  0.00     0.032 A 
ENDBRANCH   7  30
TORSDOF 5
ENDMDL
MODEL 7
REMARK VINA RESULT:      -8.4      3.629      8.159
REMARK  5 active torsions:
REMARK  status: ('A' for Active; 'I' for Inactive)
REMARK    1  A    between atoms: C_6  and  S_7 
REMARK    2  A    between atoms: S_7  and  C_8 
REMARK    3  A    between atoms: C_8  and  C_9 
REMARK       I    between atoms: C_9  and  N_10 
REMARK    4  A    between atoms: N_10  and  C_11 
REMARK    5  A    between atoms: N_22  and  C_23 
ROOT
HETATM    1  C   UNL     1     -44.305  57.116 -58.384  1.00  0.00     0.001 A 
HETATM    2  C   UNL     1     -44.617  58.186 -57.546  1.00  0.00     0.019 A 
HETATM    3  C   UNL     1     -43.894  58.373 -56.363  1.00  0.00     0.061 A 
HETATM    4  C   UNL     1     -42.866  57.505 -56.008  1.00  0.00     0.075 A 
HETATM    5  N   UNL     1     -42.120  57.667 -54.837  1.00  0.00    -0.223 NA
HETATM    6  C   UNL     1     -42.407  58.655 -54.053  1.00  0.00     0.177 A 
HETATM    7  N   UNL     1     -43.402  59.589 -54.305  1.00  0.00    -0.255 N 
HETATM    8  C   UNL     1     -44.207  59.483 -55.444  1.00  0.00     0.267 A 
HETATM    9  O   UNL     1     -45.164  60.210 -55.705  1.00  0.00    -0.267 OA
HETATM   10  C   UNL     1     -42.564  56.433 -56.853  1.00  0.00     0.032 A 
HETATM   11  C   UNL     1     -43.279  56.238 -58.037  1.00  0.00     0.002 A 
ENDROOT
BRANCH   6  12
HETATM   12  S   UNL     1     -41.385  58.826 -52.632  1.00  0.00    -0.082 SA
BRANCH  12  13
HETATM   13  C   UNL     1     -42.304  57.801 -51.441  1.00  0.00     0.185 C 
BRANCH  13  14
HETATM   14  C   UNL     1     -42.236  56.306 -51.742  1.00  0.00     0.231 C 
HETATM   15  N   UNL     1     -41.093  55.905 -52.405  1.00  0.00    -0.326 N 
HETATM   16  H   UNL     1     -40.410  56.640 -52.575  1.00  0.00     0.169 HD
HETATM   17  O   UNL     1     -43.186  55.578 -51.457  1.00  0.00    -0.272 OA
BRANCH  15  18
HETATM   18  C   UNL     1     -40.755  54.624 -52.878  1.00  0.00     0.037 A 
HETATM   19  C   UNL     1     -40.435  53.549 -52.043  1.00  0.00     0.061 A 
HETATM   20  C   UNL     1     -40.154  52.346 -52.653  1.00  0.00     0.065 A 
HETATM   21  C   UNL     1     -40.169  52.187 -54.037  1.00  0.00     0.063 A 
HETATM   22  N   UNL     1     -39.831  51.118 -52.086  1.00  0.00    -0.306 N 
HETATM   23  N   UNL     1     -39.849  50.866 -54.321  1.00  0.00    -0.307 N 
HETATM   24  C   UNL     1     -40.468  53.221 -54.886  1.00  0.00     0.034 A 
HETATM   25  C   UNL     1     -39.639  50.183 -53.114  1.00  0.00     0.325 A 
HETATM   26  H   UNL     1     -39.776  50.432 -55.227  1.00  0.00     0.170 HD
HETATM   27  O   UNL     1     -39.350  49.007 -52.985  1.00  0.00    -0.247 OA
HETATM   28  C   UNL     1     -40.771  54.451 -54.289  1.00  0.00     0.032 A 
HETATM   29  H   UNL     1     -39.745  50.905 -51.106  1.00  0.00     0.170 HD
ENDBRANCH  15  18
ENDBRANCH  13  14
ENDBRANCH  12  13
ENDBRANCH   6  12
BRANCH   7  30
HETATM   30  C   UNL     1     -43.674  60.684 -53.432  1.00  0.00     0.066 A 
HETATM   31  C   UNL     1     -44.564  60.554 -52.351  1.00  0.00     0.061 A 
HETATM   32 CL   UNL     1     -45.486  59.113 -52.094  1.00  0.00    -0.082 Cl
HETATM   33  C   UNL     1     -44.777  61.629 -51.485  1.00  0.00     0.026 A 
HETATM   34  C   UNL     1     -44.107  62.836 -51.688  1.00  0.00     0.002 A 
HETATM   35  C   UNL     1     -43.224  62.973 -52.758  1.00  0.00     0.002 A 
HETATM   36  C   UNL     1     -43.004  61.902 -53.628  1.00  0.00     0.032 A 
ENDBRANCH   7  30
TORSDOF 5
ENDMDL
MODEL 8
REMARK VINA RESULT:      -8.4      2.993      8.690
REMARK  5 active torsions:
REMARK  status: ('A' for Active; 'I' for Inactive)
REMARK    1  A    between atoms: C_6  and  S_7 
REMARK    2  A    between atoms: S_7  and  C_8 
REMARK    3  A    between atoms: C_8  and  C_9 
REMARK       I    between atoms: C_9  and  N_10 
REMARK    4  A    between atoms: N_10  and  C_11 
REMARK    5  A    between atoms: N_22  and  C_23 
ROOT
HETATM    1  C   UNL     1     -44.952  55.572 -60.422  1.00  0.00     0.001 A 
HETATM    2  C   UNL     1     -45.009  56.918 -60.064  1.00  0.00     0.019 A 
HETATM    3  C   UNL     1     -44.340  57.359 -58.917  1.00  0.00     0.061 A 
HETATM    4  C   UNL     1     -43.615  56.471 -58.126  1.00  0.00     0.075 A 
HETATM    5  N   UNL     1     -42.930  56.880 -56.978  1.00  0.00    -0.223 NA
HETATM    6  C   UNL     1     -42.982  58.127 -56.637  1.00  0.00     0.177 A 
HETATM    7  N   UNL     1     -43.662  59.104 -57.351  1.00  0.00    -0.255 N 
HETATM    8  C   UNL     1     -44.390  58.772 -58.498  1.00  0.00     0.267 A 
HETATM    9  O   UNL     1     -45.091  59.551 -59.142  1.00  0.00    -0.267 OA
HETATM   10  C   UNL     1     -43.568  55.123 -58.491  1.00  0.00     0.032 A 
HETATM   11  C   UNL     1     -44.233  54.674 -59.635  1.00  0.00     0.002 A 
ENDROOT
BRANCH   6  12
HETATM   12  S   UNL     1     -42.045  58.571 -55.217  1.00  0.00    -0.082 SA
BRANCH  12  13
HETATM   13  C   UNL     1     -43.164  58.008 -53.896  1.00  0.00     0.185 C 
BRANCH  13  14
HETATM   14  C   UNL     1     -42.839  56.610 -53.376  1.00  0.00     0.231 C 
HETATM   15  N   UNL     1     -41.664  56.074 -53.865  1.00  0.00    -0.326 N 
HETATM   16  H   UNL     1     -41.129  56.688 -54.477  1.00  0.00     0.169 HD
HETATM   17  O   UNL     1     -43.633  56.029 -52.638  1.00  0.00    -0.272 OA
BRANCH  15  18
HETATM   18  C   UNL     1     -41.117  54.798 -53.635  1.00  0.00     0.037 A 
HETATM   19  C   UNL     1     -40.873  54.278 -52.360  1.00  0.00     0.061 A 
HETATM   20  C   UNL     1     -40.361  53.001 -52.295  1.00  0.00     0.065 A 
HETATM   21  C   UNL     1     -40.080  52.247 -53.431  1.00  0.00     0.063 A 
HETATM   22  N   UNL     1     -40.045  52.228 -51.182  1.00  0.00    -0.306 N 
HETATM   23  N   UNL     1     -39.585  51.017 -53.020  1.00  0.00    -0.307 N 
HETATM   24  C   UNL     1     -40.296  52.729 -54.697  1.00  0.00     0.034 A 
HETATM   25  C   UNL     1     -39.561  50.986 -51.618  1.00  0.00     0.325 A 
HETATM   26  H   UNL     1     -39.289  50.248 -53.600  1.00  0.00     0.170 HD
HETATM   27  O   UNL     1     -39.194  50.060 -50.918  1.00  0.00    -0.247 OA
HETATM   28  C   UNL     1     -40.829  54.021 -54.790  1.00  0.00     0.032 A 
HETATM   29  H   UNL     1     -40.142  52.489 -50.214  1.00  0.00     0.170 HD
ENDBRANCH  15  18
ENDBRANCH  13  14
ENDBRANCH  12  13
ENDBRANCH   6  12
BRANCH   7  30
HETATM   30  C   UNL     1     -43.676  60.477 -56.963  1.00  0.00     0.066 A 
HETATM   31  C   UNL     1     -42.742  61.392 -57.480  1.00  0.00     0.061 A 
HETATM   32 CL   UNL     1     -41.440  60.891 -58.502  1.00  0.00    -0.082 Cl
HETATM   33  C   UNL     1     -42.806  62.740 -57.117  1.00  0.00     0.026 A 
HETATM   34  C   UNL     1     -43.798  63.183 -56.242  1.00  0.00     0.002 A 
HETATM   35  C   UNL     1     -44.727  62.281 -55.725  1.00  0.00     0.002 A 
HETATM   36  C   UNL     1     -44.671  60.933 -56.084  1.00  0.00     0.032 A 
ENDBRANCH   7  30
TORSDOF 5
ENDMDL
MODEL 9
REMARK VINA RESULT:      -8.3      2.237      2.520
REMARK  5 active torsions:
REMARK  status: ('A' for Active; 'I' for Inactive)
REMARK    1  A    between atoms: C_6  and  S_7 
REMARK    2  A    between atoms: S_7  and  C_8 
REMARK    3  A    between atoms: C_8  and  C_9 
REMARK       I    between atoms: C_9  and  N_10 
REMARK    4  A    between atoms: N_10  and  C_11 
REMARK    5  A    between atoms: N_22  and  C_23 
ROOT
HETATM    1  C   UNL     1     -39.284  51.504 -51.872  1.00  0.00     0.001 A 
HETATM    2  C   UNL     1     -39.838  52.688 -51.386  1.00  0.00     0.019 A 
HETATM    3  C   UNL     1     -40.681  53.446 -52.206  1.00  0.00     0.061 A 
HETATM    4  C   UNL     1     -40.976  53.035 -53.503  1.00  0.00     0.075 A 
HETATM    5  N   UNL     1     -41.819  53.765 -54.346  1.00  0.00    -0.223 NA
HETATM    6  C   UNL     1     -42.333  54.866 -53.903  1.00  0.00     0.177 A 
HETATM    7  N   UNL     1     -42.120  55.371 -52.628  1.00  0.00    -0.255 N 
HETATM    8  C   UNL     1     -41.272  54.711 -51.733  1.00  0.00     0.267 A 
HETATM    9  O   UNL     1     -40.957  55.126 -50.619  1.00  0.00    -0.267 OA
HETATM   10  C   UNL     1     -40.412  51.849 -53.982  1.00  0.00     0.032 A 
HETATM   11  C   UNL     1     -39.570  51.085 -53.170  1.00  0.00     0.002 A 
ENDROOT
BRANCH   6  12
HETATM   12  S   UNL     1     -43.430  55.694 -55.001  1.00  0.00    -0.082 SA
BRANCH  12  13
HETATM   13  C   UNL     1     -42.239  56.406 -56.180  1.00  0.00     0.185 C 
BRANCH  13  14
HETATM   14  C   UNL     1     -42.778  57.619 -56.934  1.00  0.00     0.231 C 
HETATM   15  N   UNL     1     -42.571  57.586 -58.298  1.00  0.00    -0.326 N 
HETATM   16  H   UNL     1     -42.127  56.740 -58.650  1.00  0.00     0.169 HD
HETATM   17  O   UNL     1     -43.282  58.554 -56.313  1.00  0.00    -0.272 OA
BRANCH  15  18
HETATM   18  C   UNL     1     -42.887  58.564 -59.259  1.00  0.00     0.037 A 
HETATM   19  C   UNL     1     -44.063  58.555 -60.017  1.00  0.00     0.061 A 
HETATM   20  C   UNL     1     -44.245  59.598 -60.898  1.00  0.00     0.065 A 
HETATM   21  C   UNL     1     -43.311  60.619 -61.055  1.00  0.00     0.063 A 
HETATM   22  N   UNL     1     -45.311  59.861 -61.752  1.00  0.00    -0.306 N 
HETATM   23  N   UNL     1     -43.797  61.504 -62.008  1.00  0.00    -0.307 N 
HETATM   24  C   UNL     1     -42.143  60.654 -60.337  1.00  0.00     0.034 A 
HETATM   25  C   UNL     1     -45.047  61.049 -62.451  1.00  0.00     0.325 A 
HETATM   26  H   UNL     1     -43.358  62.345 -62.346  1.00  0.00     0.170 HD
HETATM   27  O   UNL     1     -45.763  61.583 -63.278  1.00  0.00    -0.247 OA
HETATM   28  C   UNL     1     -41.940  59.611 -59.424  1.00  0.00     0.032 A 
HETATM   29  H   UNL     1     -46.147  59.312 -61.868  1.00  0.00     0.170 HD
ENDBRANCH  15  18
ENDBRANCH  13  14
ENDBRANCH  12  13
ENDBRANCH   6  12
BRANCH   7  30
HETATM   30  C   UNL     1     -42.726  56.576 -52.161  1.00  0.00     0.066 A 
HETATM   31  C   UNL     1     -42.169  57.834 -52.451  1.00  0.00     0.061 A 
HETATM   32 CL   UNL     1     -40.650  57.996 -53.264  1.00  0.00    -0.082 Cl
HETATM   33  C   UNL     1     -42.807  59.000 -52.021  1.00  0.00     0.026 A 
HETATM   34  C   UNL     1     -44.001  58.920 -51.303  1.00  0.00     0.002 A 
HETATM   35  C   UNL     1     -44.559  57.676 -51.012  1.00  0.00     0.002 A 
HETATM   36  C   UNL     1     -43.928  56.506 -51.440  1.00  0.00     0.032 A 
ENDBRANCH   7  30
TORSDOF 5
ENDMDL
MODEL 10
REMARK VINA RESULT:      -8.2      3.331      4.012
REMARK  5 active torsions:
REMARK  status: ('A' for Active; 'I' for Inactive)
REMARK    1  A    between atoms: C_6  and  S_7 
REMARK    2  A    between atoms: S_7  and  C_8 
REMARK    3  A    between atoms: C_8  and  C_9 
REMARK       I    between atoms: C_9  and  N_10 
REMARK    4  A    between atoms: N_10  and  C_11 
REMARK    5  A    between atoms: N_22  and  C_23 
ROOT
HETATM    1  C   UNL     1     -39.840  51.763 -51.477  1.00  0.00     0.001 A 
HETATM    2  C   UNL     1     -40.142  53.013 -50.938  1.00  0.00     0.019 A 
HETATM    3  C   UNL     1     -40.530  54.058 -51.784  1.00  0.00     0.061 A 
HETATM    4  C   UNL     1     -40.620  53.868 -53.160  1.00  0.00     0.075 A 
HETATM    5  N   UNL     1     -41.012  54.888 -54.033  1.00  0.00    -0.223 NA
HETATM    6  C   UNL     1     -41.289  56.051 -53.539  1.00  0.00     0.177 A 
HETATM    7  N   UNL     1     -41.245  56.357 -52.186  1.00  0.00    -0.255 N 
HETATM    8  C   UNL     1     -40.842  55.397 -51.251  1.00  0.00     0.267 A 
HETATM    9  O   UNL     1     -40.690  55.601 -50.048  1.00  0.00    -0.267 OA
HETATM   10  C   UNL     1     -40.311  52.612 -53.691  1.00  0.00     0.032 A 
HETATM   11  C   UNL     1     -39.923  51.563 -52.854  1.00  0.00     0.002 A 
ENDROOT
BRANCH   6  12
HETATM   12  S   UNL     1     -41.831  57.262 -54.694  1.00  0.00    -0.082 SA
BRANCH  12  13
HETATM   13  C   UNL     1     -42.751  56.212 -55.863  1.00  0.00     0.185 C 
BRANCH  13  14
HETATM   14  C   UNL     1     -42.897  56.829 -57.251  1.00  0.00     0.231 C 
HETATM   15  N   UNL     1     -42.064  57.903 -57.493  1.00  0.00    -0.326 N 
HETATM   16  H   UNL     1     -41.418  58.130 -56.739  1.00  0.00     0.169 HD
HETATM   17  O   UNL     1     -43.756  56.407 -58.024  1.00  0.00    -0.272 OA
BRANCH  15  18
HETATM   18  C   UNL     1     -41.994  58.722 -58.635  1.00  0.00     0.037 A 
HETATM   19  C   UNL     1     -41.957  60.119 -58.586  1.00  0.00     0.061 A 
HETATM   20  C   UNL     1     -41.860  60.784 -59.788  1.00  0.00     0.065 A 
HETATM   21  C   UNL     1     -41.813  60.119 -61.010  1.00  0.00     0.063 A 
HETATM   22  N   UNL     1     -41.782  62.150 -60.042  1.00  0.00    -0.306 N 
HETATM   23  N   UNL     1     -41.712  61.072 -62.015  1.00  0.00    -0.307 N 
HETATM   24  C   UNL     1     -41.858  58.751 -61.098  1.00  0.00     0.034 A 
HETATM   25  C   UNL     1     -41.687  62.346 -61.428  1.00  0.00     0.325 A 
HETATM   26  H   UNL     1     -41.658  60.915 -63.008  1.00  0.00     0.170 HD
HETATM   27  O   UNL     1     -41.598  63.412 -62.009  1.00  0.00    -0.247 OA
HETATM   28  C   UNL     1     -41.943  58.051 -59.887  1.00  0.00     0.032 A 
HETATM   29  H   UNL     1     -41.786  62.895 -59.366  1.00  0.00     0.170 HD
ENDBRANCH  15  18
ENDBRANCH  13  14
ENDBRANCH  12  13
ENDBRANCH   6  12
BRANCH   7  30
HETATM   30  C   UNL     1     -41.585  57.643 -51.672  1.00  0.00     0.066 A 
HETATM   31  C   UNL     1     -42.922  57.999 -51.417  1.00  0.00     0.061 A 
HETATM   32 CL   UNL     1     -44.240  56.961 -51.839  1.00  0.00    -0.082 Cl
HETATM   33  C   UNL     1     -43.223  59.249 -50.871  1.00  0.00     0.026 A 
HETATM   34  C   UNL     1     -42.199  60.149 -50.576  1.00  0.00     0.002 A 
HETATM   35  C   UNL     1     -40.872  59.804 -50.826  1.00  0.00     0.002 A 
HETATM   36  C   UNL     1     -40.562  58.555 -51.369  1.00  0.00     0.032 A 
ENDBRANCH   7  30
TORSDOF 5
ENDMDL
