MODEL 1
REMARK VINA RESULT:      -8.3      0.000      0.000
REMARK  9 active torsions:
REMARK  status: ('A' for Active; 'I' for Inactive)
REMARK    1  A    between atoms: C_2  and  O_3 
REMARK    2  A    between atoms: O_3  and  C_4 
REMARK    3  A    between atoms: C_4  and  C_5 
REMARK    4  A    between atoms: C_8  and  N_9 
REMARK       I    between atoms: N_9  and  C_10 
REMARK    5  A    between atoms: C_10  and  C_11 
REMARK    6  A    between atoms: C_13  and  N_14 
REMARK    7  A    between atoms: N_17  and  C_19 
REMARK    8  A    between atoms: C_19  and  C_20 
REMARK    9  A    between atoms: C_19  and  C_26 
ROOT
HETATM    1  C   UNL     1     -43.350  56.997 -58.323  1.00  0.00     0.164 C 
HETATM    2  N   UNL     1     -44.152  57.924 -57.506  1.00  0.00    -0.249 NA
HETATM    3  C   UNL     1     -43.867  59.250 -57.479  1.00  0.00     0.181 C 
HETATM    4  N   UNL     1     -43.101  59.852 -58.327  1.00  0.00    -0.185 NA
HETATM    5  C   UNL     1     -42.526  59.054 -59.287  1.00  0.00     0.247 C 
HETATM    6  O   UNL     1     -42.302  59.442 -60.428  1.00  0.00    -0.271 OA
HETATM    7  C   UNL     1     -42.106  57.683 -58.836  1.00  0.00     0.134 C 
HETATM    8  H   UNL     1     -44.262  57.525 -56.567  1.00  0.00     0.131 HD
ENDROOT
BRANCH   3   9
HETATM    9  N   UNL     1     -44.455  59.908 -56.421  1.00  0.00    -0.353 N 
HETATM   10  C   UNL     1     -43.872  61.140 -55.852  1.00  0.00     0.153 C 
HETATM   11  C   UNL     1     -43.039  60.806 -54.599  1.00  0.00     0.256 C 
HETATM   12  N   UNL     1     -43.937  60.102 -53.581  1.00  0.00    -0.056 N 
HETATM   13  H   UNL     1     -44.776  60.671 -53.455  1.00  0.00     0.281 HD
HETATM   14  C   UNL     1     -44.445  58.790 -54.196  1.00  0.00     0.256 C 
HETATM   15  C   UNL     1     -45.264  59.126 -55.460  1.00  0.00     0.153 C 
BRANCH  12  16
HETATM   16  C   UNL     1     -43.359  59.961 -52.177  1.00  0.00     0.254 C 
BRANCH  16  17
HETATM   17  C   UNL     1     -44.178  60.705 -51.127  1.00  0.00    -0.023 A 
HETATM   18  C   UNL     1     -43.637  61.066 -49.880  1.00  0.00     0.009 A 
HETATM   19  C   UNL     1     -44.410  61.744 -48.936  1.00  0.00     0.001 A 
HETATM   20  C   UNL     1     -45.732  62.073 -49.222  1.00  0.00     0.000 A 
HETATM   21  C   UNL     1     -46.284  61.729 -50.453  1.00  0.00     0.001 A 
HETATM   22  C   UNL     1     -45.515  61.051 -51.400  1.00  0.00     0.009 A 
ENDBRANCH  16  17
BRANCH  16  23
HETATM   23  C   UNL     1     -42.964  58.523 -51.785  1.00  0.00    -0.023 A 
HETATM   24  C   UNL     1     -41.646  58.029 -51.852  1.00  0.00     0.009 A 
HETATM   25  C   UNL     1     -41.340  56.723 -51.453  1.00  0.00     0.001 A 
HETATM   26  C   UNL     1     -42.337  55.888 -50.961  1.00  0.00     0.000 A 
HETATM   27  C   UNL     1     -43.640  56.360 -50.854  1.00  0.00     0.001 A 
HETATM   28  C   UNL     1     -43.947  57.665 -51.251  1.00  0.00     0.009 A 
ENDBRANCH  16  23
ENDBRANCH  12  16
ENDBRANCH   3   9
BRANCH   1  29
HETATM   29  C   UNL     1     -43.006  55.791 -57.419  1.00  0.00     0.240 C 
HETATM   30  N   UNL     1     -42.218  56.078 -56.322  1.00  0.00    -0.326 N 
HETATM   31  H   UNL     1     -41.961  57.044 -56.156  1.00  0.00     0.169 HD
HETATM   32  O   UNL     1     -43.421  54.675 -57.745  1.00  0.00    -0.271 OA
BRANCH  30  33
HETATM   33  C   UNL     1     -41.698  55.146 -55.392  1.00  0.00     0.034 A 
HETATM   34  C   UNL     1     -40.365  54.728 -55.369  1.00  0.00     0.030 A 
HETATM   35  C   UNL     1     -39.916  53.821 -54.403  1.00  0.00     0.020 A 
HETATM   36  C   UNL     1     -40.793  53.311 -53.442  1.00  0.00     0.039 A 
HETATM   37  C   UNL     1     -42.131  53.718 -53.463  1.00  0.00     0.020 A 
HETATM   38  C   UNL     1     -42.577  54.630 -54.431  1.00  0.00     0.030 A 
BRANCH  36  39
HETATM   39  C   UNL     1     -40.245  52.363 -52.434  1.00  0.00     0.293 C 
HETATM   40  O   UNL     1     -40.601  52.351 -51.267  1.00  0.00    -0.259 OA
BRANCH  39  41
HETATM   41  O   UNL     1     -39.323  51.545 -52.998  1.00  0.00    -0.318 OA
BRANCH  41  42
HETATM   42  C   UNL     1     -39.738  50.181 -53.177  1.00  0.00     0.174 C 
HETATM   43  C   UNL     1     -39.877  49.862 -54.653  1.00  0.00     0.034 C 
ENDBRANCH  41  42
ENDBRANCH  39  41
ENDBRANCH  36  39
ENDBRANCH  30  33
ENDBRANCH   1  29
TORSDOF 9
ENDMDL
MODEL 2
REMARK VINA RESULT:      -8.3      3.113      6.807
REMARK  9 active torsions:
REMARK  status: ('A' for Active; 'I' for Inactive)
REMARK    1  A    between atoms: C_2  and  O_3 
REMARK    2  A    between atoms: O_3  and  C_4 
REMARK    3  A    between atoms: C_4  and  C_5 
REMARK    4  A    between atoms: C_8  and  N_9 
REMARK       I    between atoms: N_9  and  C_10 
REMARK    5  A    between atoms: C_10  and  C_11 
REMARK    6  A    between atoms: C_13  and  N_14 
REMARK    7  A    between atoms: N_17  and  C_19 
REMARK    8  A    between atoms: C_19  and  C_20 
REMARK    9  A    between atoms: C_19  and  C_26 
ROOT
HETATM    1  C   UNL     1     -44.783  61.929 -53.940  1.00  0.00     0.164 C 
HETATM    2  N   UNL     1     -44.636  61.017 -52.793  1.00  0.00    -0.249 NA
HETATM    3  C   UNL     1     -43.670  61.221 -51.862  1.00  0.00     0.181 C 
HETATM    4  N   UNL     1     -43.005  62.320 -51.726  1.00  0.00    -0.185 NA
HETATM    5  C   UNL     1     -43.299  63.314 -52.627  1.00  0.00     0.247 C 
HETATM    6  O   UNL     1     -43.262  64.505 -52.341  1.00  0.00    -0.271 OA
HETATM    7  C   UNL     1     -43.598  62.863 -54.030  1.00  0.00     0.134 C 
HETATM    8  H   UNL     1     -44.653  60.050 -53.136  1.00  0.00     0.131 HD
ENDROOT
BRANCH   3   9
HETATM    9  N   UNL     1     -43.433  60.114 -51.077  1.00  0.00    -0.353 N 
HETATM   10  C   UNL     1     -42.108  59.857 -50.477  1.00  0.00     0.153 C 
HETATM   11  C   UNL     1     -41.316  58.856 -51.342  1.00  0.00     0.256 C 
HETATM   12  N   UNL     1     -42.124  57.563 -51.467  1.00  0.00    -0.056 N 
HETATM   13  H   UNL     1     -42.393  57.269 -50.526  1.00  0.00     0.281 HD
HETATM   14  C   UNL     1     -43.452  57.878 -52.171  1.00  0.00     0.256 C 
HETATM   15  C   UNL     1     -44.234  58.893 -51.312  1.00  0.00     0.153 C 
BRANCH  12  16
HETATM   16  C   UNL     1     -41.371  56.367 -52.039  1.00  0.00     0.254 C 
BRANCH  16  17
HETATM   17  C   UNL     1     -41.045  55.317 -50.982  1.00  0.00    -0.023 A 
HETATM   18  C   UNL     1     -41.268  55.545 -49.612  1.00  0.00     0.009 A 
HETATM   19  C   UNL     1     -40.956  54.568 -48.666  1.00  0.00     0.001 A 
HETATM   20  C   UNL     1     -40.420  53.349 -49.071  1.00  0.00     0.000 A 
HETATM   21  C   UNL     1     -40.196  53.102 -50.423  1.00  0.00     0.001 A 
HETATM   22  C   UNL     1     -40.506  54.076 -51.373  1.00  0.00     0.009 A 
ENDBRANCH  16  17
BRANCH  16  23
HETATM   23  C   UNL     1     -41.959  55.803 -53.347  1.00  0.00    -0.023 A 
HETATM   24  C   UNL     1     -43.059  54.923 -53.395  1.00  0.00     0.009 A 
HETATM   25  C   UNL     1     -43.570  54.466 -54.614  1.00  0.00     0.001 A 
HETATM   26  C   UNL     1     -43.009  54.890 -55.814  1.00  0.00     0.000 A 
HETATM   27  C   UNL     1     -41.943  55.782 -55.798  1.00  0.00     0.001 A 
HETATM   28  C   UNL     1     -41.432  56.241 -54.580  1.00  0.00     0.009 A 
ENDBRANCH  16  23
ENDBRANCH  12  16
ENDBRANCH   3   9
BRANCH   1  29
HETATM   29  C   UNL     1     -44.910  61.043 -55.200  1.00  0.00     0.240 C 
HETATM   30  N   UNL     1     -43.910  60.105 -55.368  1.00  0.00    -0.326 N 
HETATM   31  H   UNL     1     -43.201  60.027 -54.649  1.00  0.00     0.169 HD
HETATM   32  O   UNL     1     -45.853  61.247 -55.969  1.00  0.00    -0.271 OA
BRANCH  30  33
HETATM   33  C   UNL     1     -43.750  59.235 -56.473  1.00  0.00     0.034 A 
HETATM   34  C   UNL     1     -44.711  58.305 -56.878  1.00  0.00     0.030 A 
HETATM   35  C   UNL     1     -44.494  57.493 -57.997  1.00  0.00     0.020 A 
HETATM   36  C   UNL     1     -43.309  57.593 -58.731  1.00  0.00     0.039 A 
HETATM   37  C   UNL     1     -42.338  58.516 -58.326  1.00  0.00     0.020 A 
HETATM   38  C   UNL     1     -42.560  59.330 -57.207  1.00  0.00     0.030 A 
BRANCH  36  39
HETATM   39  C   UNL     1     -43.150  56.711 -59.920  1.00  0.00     0.293 C 
HETATM   40  O   UNL     1     -42.070  56.291 -60.299  1.00  0.00    -0.259 OA
BRANCH  39  41
HETATM   41  O   UNL     1     -44.353  56.458 -60.492  1.00  0.00    -0.318 OA
BRANCH  41  42
HETATM   42  C   UNL     1     -44.588  55.087 -60.850  1.00  0.00     0.174 C 
HETATM   43  C   UNL     1     -44.682  54.225 -59.606  1.00  0.00     0.034 C 
ENDBRANCH  41  42
ENDBRANCH  39  41
ENDBRANCH  36  39
ENDBRANCH  30  33
ENDBRANCH   1  29
TORSDOF 9
ENDMDL
MODEL 3
REMARK VINA RESULT:      -8.2      0.879      3.090
REMARK  9 active torsions:
REMARK  status: ('A' for Active; 'I' for Inactive)
REMARK    1  A    between atoms: C_2  and  O_3 
REMARK    2  A    between atoms: O_3  and  C_4 
REMARK    3  A    between atoms: C_4  and  C_5 
REMARK    4  A    between atoms: C_8  and  N_9 
REMARK       I    between atoms: N_9  and  C_10 
REMARK    5  A    between atoms: C_10  and  C_11 
REMARK    6  A    between atoms: C_13  and  N_14 
REMARK    7  A    between atoms: N_17  and  C_19 
REMARK    8  A    between atoms: C_19  and  C_20 
REMARK    9  A    between atoms: C_19  and  C_26 
ROOT
HETATM    1  C   UNL     1     -43.601  56.869 -57.827  1.00  0.00     0.164 C 
HETATM    2  N   UNL     1     -43.641  58.008 -56.894  1.00  0.00    -0.249 NA
HETATM    3  C   UNL     1     -43.072  59.196 -57.223  1.00  0.00     0.181 C 
HETATM    4  N   UNL     1     -42.713  59.529 -58.417  1.00  0.00    -0.185 NA
HETATM    5  C   UNL     1     -42.902  58.576 -59.388  1.00  0.00     0.247 C 
HETATM    6  O   UNL     1     -43.191  58.854 -60.547  1.00  0.00    -0.271 OA
HETATM    7  C   UNL     1     -42.656  57.153 -58.970  1.00  0.00     0.134 C 
HETATM    8  H   UNL     1     -43.360  57.682 -55.962  1.00  0.00     0.131 HD
ENDROOT
BRANCH   3   9
HETATM    9  N   UNL     1     -42.877  60.021 -56.137  1.00  0.00    -0.353 N 
HETATM   10  C   UNL     1     -41.817  59.758 -55.142  1.00  0.00     0.153 C 
HETATM   11  C   UNL     1     -42.405  59.032 -53.916  1.00  0.00     0.256 C 
HETATM   12  N   UNL     1     -43.520  59.892 -53.319  1.00  0.00    -0.056 N 
HETATM   13  H   UNL     1     -43.149  60.834 -53.180  1.00  0.00     0.281 HD
HETATM   14  C   UNL     1     -44.628  60.060 -54.367  1.00  0.00     0.256 C 
HETATM   15  C   UNL     1     -44.033  60.773 -55.600  1.00  0.00     0.153 C 
BRANCH  12  16
HETATM   16  C   UNL     1     -44.012  59.469 -51.939  1.00  0.00     0.254 C 
BRANCH  16  17
HETATM   17  C   UNL     1     -43.261  58.259 -51.391  1.00  0.00    -0.023 A 
HETATM   18  C   UNL     1     -41.906  58.329 -51.022  1.00  0.00     0.009 A 
HETATM   19  C   UNL     1     -41.242  57.206 -50.527  1.00  0.00     0.001 A 
HETATM   20  C   UNL     1     -41.920  55.998 -50.392  1.00  0.00     0.000 A 
HETATM   21  C   UNL     1     -43.264  55.909 -50.747  1.00  0.00     0.001 A 
HETATM   22  C   UNL     1     -43.931  57.030 -51.242  1.00  0.00     0.009 A 
ENDBRANCH  16  17
BRANCH  16  23
HETATM   23  C   UNL     1     -44.188  60.626 -50.936  1.00  0.00    -0.023 A 
HETATM   24  C   UNL     1     -45.137  60.621 -49.895  1.00  0.00     0.009 A 
HETATM   25  C   UNL     1     -45.232  61.688 -48.994  1.00  0.00     0.001 A 
HETATM   26  C   UNL     1     -44.369  62.773 -49.098  1.00  0.00     0.000 A 
HETATM   27  C   UNL     1     -43.402  62.790 -50.096  1.00  0.00     0.001 A 
HETATM   28  C   UNL     1     -43.305  61.725 -50.997  1.00  0.00     0.009 A 
ENDBRANCH  16  23
ENDBRANCH  12  16
ENDBRANCH   3   9
BRANCH   1  29
HETATM   29  C   UNL     1     -43.153  55.638 -57.006  1.00  0.00     0.240 C 
HETATM   30  N   UNL     1     -42.328  55.910 -55.932  1.00  0.00    -0.326 N 
HETATM   31  H   UNL     1     -42.114  56.879 -55.726  1.00  0.00     0.169 HD
HETATM   32  O   UNL     1     -43.525  54.520 -57.373  1.00  0.00    -0.271 OA
BRANCH  30  33
HETATM   33  C   UNL     1     -41.717  54.960 -55.079  1.00  0.00     0.034 A 
HETATM   34  C   UNL     1     -40.432  54.448 -55.277  1.00  0.00     0.030 A 
HETATM   35  C   UNL     1     -39.882  53.528 -54.376  1.00  0.00     0.020 A 
HETATM   36  C   UNL     1     -40.608  53.101 -53.261  1.00  0.00     0.039 A 
HETATM   37  C   UNL     1     -41.899  53.603 -53.061  1.00  0.00     0.020 A 
HETATM   38  C   UNL     1     -42.445  54.526 -53.964  1.00  0.00     0.030 A 
BRANCH  36  39
HETATM   39  C   UNL     1     -39.957  52.134 -52.336  1.00  0.00     0.293 C 
HETATM   40  O   UNL     1     -40.167  52.117 -51.134  1.00  0.00    -0.259 OA
BRANCH  39  41
HETATM   41  O   UNL     1     -39.125  51.307 -53.015  1.00  0.00    -0.318 OA
BRANCH  41  42
HETATM   42  C   UNL     1     -39.627  49.980 -53.242  1.00  0.00     0.174 C 
HETATM   43  C   UNL     1     -39.977  49.791 -54.706  1.00  0.00     0.034 C 
ENDBRANCH  41  42
ENDBRANCH  39  41
ENDBRANCH  36  39
ENDBRANCH  30  33
ENDBRANCH   1  29
TORSDOF 9
ENDMDL
MODEL 4
REMARK VINA RESULT:      -8.2      2.668      6.488
REMARK  9 active torsions:
REMARK  status: ('A' for Active; 'I' for Inactive)
REMARK    1  A    between atoms: C_2  and  O_3 
REMARK    2  A    between atoms: O_3  and  C_4 
REMARK    3  A    between atoms: C_4  and  C_5 
REMARK    4  A    between atoms: C_8  and  N_9 
REMARK       I    between atoms: N_9  and  C_10 
REMARK    5  A    between atoms: C_10  and  C_11 
REMARK    6  A    between atoms: C_13  and  N_14 
REMARK    7  A    between atoms: N_17  and  C_19 
REMARK    8  A    between atoms: C_19  and  C_20 
REMARK    9  A    between atoms: C_19  and  C_26 
ROOT
HETATM    1  C   UNL     1     -43.866  57.895 -51.235  1.00  0.00     0.164 C 
HETATM    2  N   UNL     1     -42.975  58.731 -52.058  1.00  0.00    -0.249 NA
HETATM    3  C   UNL     1     -43.483  59.642 -52.926  1.00  0.00     0.181 C 
HETATM    4  N   UNL     1     -44.707  60.054 -52.921  1.00  0.00    -0.185 NA
HETATM    5  C   UNL     1     -45.528  59.483 -51.980  1.00  0.00     0.247 C 
HETATM    6  O   UNL     1     -46.443  60.092 -51.437  1.00  0.00    -0.271 OA
HETATM    7  C   UNL     1     -45.296  58.023 -51.704  1.00  0.00     0.134 C 
HETATM    8  H   UNL     1     -42.263  58.131 -52.488  1.00  0.00     0.131 HD
ENDROOT
BRANCH   3   9
HETATM    9  N   UNL     1     -42.564  60.072 -53.857  1.00  0.00    -0.353 N 
HETATM   10  C   UNL     1     -42.702  61.375 -54.540  1.00  0.00     0.153 C 
HETATM   11  C   UNL     1     -43.346  61.184 -55.927  1.00  0.00     0.256 C 
HETATM   12  N   UNL     1     -42.483  60.222 -56.746  1.00  0.00    -0.056 N 
HETATM   13  H   UNL     1     -41.519  60.560 -56.712  1.00  0.00     0.281 HD
HETATM   14  C   UNL     1     -42.444  58.864 -56.031  1.00  0.00     0.256 C 
HETATM   15  C   UNL     1     -41.814  59.061 -54.636  1.00  0.00     0.153 C 
BRANCH  12  16
HETATM   16  C   UNL     1     -42.808  60.146 -58.233  1.00  0.00     0.254 C 
BRANCH  16  17
HETATM   17  C   UNL     1     -41.914  61.050 -59.078  1.00  0.00    -0.023 A 
HETATM   18  C   UNL     1     -42.164  61.277 -60.443  1.00  0.00     0.009 A 
HETATM   19  C   UNL     1     -41.328  62.106 -61.192  1.00  0.00     0.001 A 
HETATM   20  C   UNL     1     -40.233  62.721 -60.592  1.00  0.00     0.000 A 
HETATM   21  C   UNL     1     -39.971  62.512 -59.240  1.00  0.00     0.001 A 
HETATM   22  C   UNL     1     -40.805  61.684 -58.487  1.00  0.00     0.009 A 
ENDBRANCH  16  17
BRANCH  16  23
HETATM   23  C   UNL     1     -42.979  58.716 -58.782  1.00  0.00    -0.023 A 
HETATM   24  C   UNL     1     -41.933  57.970 -59.360  1.00  0.00     0.009 A 
HETATM   25  C   UNL     1     -42.140  56.663 -59.815  1.00  0.00     0.001 A 
HETATM   26  C   UNL     1     -43.388  56.064 -59.686  1.00  0.00     0.000 A 
HETATM   27  C   UNL     1     -44.430  56.765 -59.091  1.00  0.00     0.001 A 
HETATM   28  C   UNL     1     -44.225  58.071 -58.635  1.00  0.00     0.009 A 
ENDBRANCH  16  23
ENDBRANCH  12  16
ENDBRANCH   3   9
BRANCH   1  29
HETATM   29  C   UNL     1     -43.351  56.443 -51.357  1.00  0.00     0.240 C 
HETATM   30  N   UNL     1     -42.242  56.273 -52.163  1.00  0.00    -0.326 N 
HETATM   31  H   UNL     1     -41.818  57.097 -52.574  1.00  0.00     0.169 HD
HETATM   32  O   UNL     1     -43.967  55.550 -50.769  1.00  0.00    -0.271 OA
BRANCH  30  33
HETATM   33  C   UNL     1     -41.630  55.043 -52.505  1.00  0.00     0.034 A 
HETATM   34  C   UNL     1     -40.753  54.350 -51.667  1.00  0.00     0.030 A 
HETATM   35  C   UNL     1     -40.205  53.125 -52.063  1.00  0.00     0.020 A 
HETATM   36  C   UNL     1     -40.521  52.570 -53.306  1.00  0.00     0.039 A 
HETATM   37  C   UNL     1     -41.392  53.263 -54.154  1.00  0.00     0.020 A 
HETATM   38  C   UNL     1     -41.942  54.489 -53.753  1.00  0.00     0.030 A 
BRANCH  36  39
HETATM   39  C   UNL     1     -39.916  51.256 -53.657  1.00  0.00     0.293 C 
HETATM   40  O   UNL     1     -40.125  50.686 -54.715  1.00  0.00    -0.259 OA
BRANCH  39  41
HETATM   41  O   UNL     1     -39.124  50.811 -52.650  1.00  0.00    -0.318 OA
BRANCH  41  42
HETATM   42  C   UNL     1     -39.522  49.562 -52.061  1.00  0.00     0.174 C 
HETATM   43  C   UNL     1     -39.881  49.759 -50.601  1.00  0.00     0.034 C 
ENDBRANCH  41  42
ENDBRANCH  39  41
ENDBRANCH  36  39
ENDBRANCH  30  33
ENDBRANCH   1  29
TORSDOF 9
ENDMDL
MODEL 5
REMARK VINA RESULT:      -8.1      2.565      6.381
REMARK  9 active torsions:
REMARK  status: ('A' for Active; 'I' for Inactive)
REMARK    1  A    between atoms: C_2  and  O_3 
REMARK    2  A    between atoms: O_3  and  C_4 
REMARK    3  A    between atoms: C_4  and  C_5 
REMARK    4  A    between atoms: C_8  and  N_9 
REMARK       I    between atoms: N_9  and  C_10 
REMARK    5  A    between atoms: C_10  and  C_11 
REMARK    6  A    between atoms: C_13  and  N_14 
REMARK    7  A    between atoms: N_17  and  C_19 
REMARK    8  A    between atoms: C_19  and  C_20 
REMARK    9  A    between atoms: C_19  and  C_26 
ROOT
HETATM    1  C   UNL     1     -44.723  59.506 -51.214  1.00  0.00     0.164 C 
HETATM    2  N   UNL     1     -44.011  59.886 -52.446  1.00  0.00    -0.249 NA
HETATM    3  C   UNL     1     -44.661  60.516 -53.458  1.00  0.00     0.181 C 
HETATM    4  N   UNL     1     -45.820  61.074 -53.348  1.00  0.00    -0.185 NA
HETATM    5  C   UNL     1     -46.421  60.970 -52.117  1.00  0.00     0.247 C 
HETATM    6  O   UNL     1     -47.139  61.847 -51.650  1.00  0.00    -0.271 OA
HETATM    7  C   UNL     1     -46.214  59.669 -51.392  1.00  0.00     0.134 C 
HETATM    8  H   UNL     1     -43.462  59.083 -52.771  1.00  0.00     0.131 HD
ENDROOT
BRANCH   3   9
HETATM    9  N   UNL     1     -43.971  60.478 -54.649  1.00  0.00    -0.353 N 
HETATM   10  C   UNL     1     -44.621  60.064 -55.910  1.00  0.00     0.153 C 
HETATM   11  C   UNL     1     -44.316  58.581 -56.204  1.00  0.00     0.256 C 
HETATM   12  N   UNL     1     -42.801  58.393 -56.278  1.00  0.00    -0.056 N 
HETATM   13  H   UNL     1     -42.428  59.091 -56.925  1.00  0.00     0.281 HD
HETATM   14  C   UNL     1     -42.191  58.758 -54.918  1.00  0.00     0.256 C 
HETATM   15  C   UNL     1     -42.512  60.238 -54.618  1.00  0.00     0.153 C 
BRANCH  12  16
HETATM   16  C   UNL     1     -42.328  57.059 -56.846  1.00  0.00     0.254 C 
BRANCH  16  17
HETATM   17  C   UNL     1     -42.271  55.958 -55.792  1.00  0.00    -0.023 A 
HETATM   18  C   UNL     1     -43.429  55.468 -55.163  1.00  0.00     0.009 A 
HETATM   19  C   UNL     1     -43.347  54.463 -54.199  1.00  0.00     0.001 A 
HETATM   20  C   UNL     1     -42.109  53.930 -53.849  1.00  0.00     0.000 A 
HETATM   21  C   UNL     1     -40.951  54.398 -54.464  1.00  0.00     0.001 A 
HETATM   22  C   UNL     1     -41.028  55.403 -55.429  1.00  0.00     0.009 A 
ENDBRANCH  16  17
BRANCH  16  23
HETATM   23  C   UNL     1     -43.002  56.648 -58.170  1.00  0.00    -0.023 A 
HETATM   24  C   UNL     1     -43.468  55.345 -58.439  1.00  0.00     0.009 A 
HETATM   25  C   UNL     1     -44.100  55.036 -59.648  1.00  0.00     0.001 A 
HETATM   26  C   UNL     1     -44.300  56.022 -60.608  1.00  0.00     0.000 A 
HETATM   27  C   UNL     1     -43.879  57.323 -60.357  1.00  0.00     0.001 A 
HETATM   28  C   UNL     1     -43.248  57.634 -59.148  1.00  0.00     0.009 A 
ENDBRANCH  16  23
ENDBRANCH  12  16
ENDBRANCH   3   9
BRANCH   1  29
HETATM   29  C   UNL     1     -44.340  58.039 -50.913  1.00  0.00     0.240 C 
HETATM   30  N   UNL     1     -42.984  57.776 -50.879  1.00  0.00    -0.326 N 
HETATM   31  H   UNL     1     -42.343  58.551 -51.002  1.00  0.00     0.169 HD
HETATM   32  O   UNL     1     -45.245  57.215 -50.760  1.00  0.00    -0.271 OA
BRANCH  30  33
HETATM   33  C   UNL     1     -42.377  56.509 -50.709  1.00  0.00     0.034 A 
HETATM   34  C   UNL     1     -43.088  55.308 -50.630  1.00  0.00     0.030 A 
HETATM   35  C   UNL     1     -42.418  54.089 -50.486  1.00  0.00     0.020 A 
HETATM   36  C   UNL     1     -41.022  54.046 -50.415  1.00  0.00     0.039 A 
HETATM   37  C   UNL     1     -40.304  55.244 -50.485  1.00  0.00     0.020 A 
HETATM   38  C   UNL     1     -40.979  56.465 -50.633  1.00  0.00     0.030 A 
BRANCH  36  39
HETATM   39  C   UNL     1     -40.373  52.713 -50.279  1.00  0.00     0.293 C 
HETATM   40  O   UNL     1     -40.549  51.980 -49.320  1.00  0.00    -0.259 OA
BRANCH  39  41
HETATM   41  O   UNL     1     -39.584  52.454 -51.350  1.00  0.00    -0.318 OA
BRANCH  41  42
HETATM   42  C   UNL     1     -39.606  51.096 -51.817  1.00  0.00     0.174 C 
HETATM   43  C   UNL     1     -39.670  51.059 -53.332  1.00  0.00     0.034 C 
ENDBRANCH  41  42
ENDBRANCH  39  41
ENDBRANCH  36  39
ENDBRANCH  30  33
ENDBRANCH   1  29
TORSDOF 9
ENDMDL
MODEL 6
REMARK VINA RESULT:      -8.0      2.677      7.135
REMARK  9 active torsions:
REMARK  status: ('A' for Active; 'I' for Inactive)
REMARK    1  A    between atoms: C_2  and  O_3 
REMARK    2  A    between atoms: O_3  and  C_4 
REMARK    3  A    between atoms: C_4  and  C_5 
REMARK    4  A    between atoms: C_8  and  N_9 
REMARK       I    between atoms: N_9  and  C_10 
REMARK    5  A    between atoms: C_10  and  C_11 
REMARK    6  A    between atoms: C_13  and  N_14 
REMARK    7  A    between atoms: N_17  and  C_19 
REMARK    8  A    between atoms: C_19  and  C_20 
REMARK    9  A    between atoms: C_19  and  C_26 
ROOT
HETATM    1  C   UNL     1     -41.764  60.005 -53.105  1.00  0.00     0.164 C 
HETATM    2  N   UNL     1     -42.660  60.041 -54.273  1.00  0.00    -0.249 NA
HETATM    3  C   UNL     1     -43.962  60.399 -54.139  1.00  0.00     0.181 C 
HETATM    4  N   UNL     1     -44.457  60.986 -53.101  1.00  0.00    -0.185 NA
HETATM    5  C   UNL     1     -43.582  61.215 -52.068  1.00  0.00     0.247 C 
HETATM    6  O   UNL     1     -43.657  62.195 -51.336  1.00  0.00    -0.271 OA
HETATM    7  C   UNL     1     -42.556  60.143 -51.825  1.00  0.00     0.134 C 
HETATM    8  H   UNL     1     -42.544  59.171 -54.805  1.00  0.00     0.131 HD
ENDROOT
BRANCH   3   9
HETATM    9  N   UNL     1     -44.735  60.041 -55.222  1.00  0.00    -0.353 N 
HETATM   10  C   UNL     1     -45.062  58.630 -55.511  1.00  0.00     0.153 C 
HETATM   11  C   UNL     1     -44.103  58.069 -56.580  1.00  0.00     0.256 C 
HETATM   12  N   UNL     1     -44.210  58.928 -57.841  1.00  0.00    -0.056 N 
HETATM   13  H   UNL     1     -45.199  59.006 -58.085  1.00  0.00     0.281 HD
HETATM   14  C   UNL     1     -43.780  60.361 -57.499  1.00  0.00     0.256 C 
HETATM   15  C   UNL     1     -44.731  60.914 -56.417  1.00  0.00     0.153 C 
BRANCH  12  16
HETATM   16  C   UNL     1     -43.554  58.351 -59.091  1.00  0.00     0.254 C 
BRANCH  16  17
HETATM   17  C   UNL     1     -44.179  57.028 -59.525  1.00  0.00    -0.023 A 
HETATM   18  C   UNL     1     -43.426  55.844 -59.616  1.00  0.00     0.009 A 
HETATM   19  C   UNL     1     -44.022  54.649 -60.020  1.00  0.00     0.001 A 
HETATM   20  C   UNL     1     -45.377  54.616 -60.338  1.00  0.00     0.000 A 
HETATM   21  C   UNL     1     -46.141  55.777 -60.250  1.00  0.00     0.001 A 
HETATM   22  C   UNL     1     -45.549  56.975 -59.846  1.00  0.00     0.009 A 
ENDBRANCH  16  17
BRANCH  16  23
HETATM   23  C   UNL     1     -43.337  59.365 -60.231  1.00  0.00    -0.023 A 
HETATM   24  C   UNL     1     -44.383  59.914 -60.999  1.00  0.00     0.009 A 
HETATM   25  C   UNL     1     -44.130  60.856 -62.002  1.00  0.00     0.001 A 
HETATM   26  C   UNL     1     -42.831  61.285 -62.249  1.00  0.00     0.000 A 
HETATM   27  C   UNL     1     -41.783  60.784 -61.486  1.00  0.00     0.001 A 
HETATM   28  C   UNL     1     -42.035  59.844 -60.482  1.00  0.00     0.009 A 
ENDBRANCH  16  23
ENDBRANCH  12  16
ENDBRANCH   3   9
BRANCH   1  29
HETATM   29  C   UNL     1     -41.006  58.660 -53.167  1.00  0.00     0.240 C 
HETATM   30  N   UNL     1     -41.796  57.543 -53.357  1.00  0.00    -0.326 N 
HETATM   31  H   UNL     1     -42.791  57.677 -53.488  1.00  0.00     0.169 HD
HETATM   32  O   UNL     1     -39.781  58.668 -53.014  1.00  0.00    -0.271 OA
BRANCH  30  33
HETATM   33  C   UNL     1     -41.360  56.196 -53.366  1.00  0.00     0.034 A 
HETATM   34  C   UNL     1     -41.393  55.358 -52.248  1.00  0.00     0.030 A 
HETATM   35  C   UNL     1     -40.968  54.028 -52.338  1.00  0.00     0.020 A 
HETATM   36  C   UNL     1     -40.499  53.510 -53.549  1.00  0.00     0.039 A 
HETATM   37  C   UNL     1     -40.455  54.345 -54.670  1.00  0.00     0.020 A 
HETATM   38  C   UNL     1     -40.885  55.677 -54.577  1.00  0.00     0.030 A 
BRANCH  36  39
HETATM   39  C   UNL     1     -40.078  52.083 -53.579  1.00  0.00     0.293 C 
HETATM   40  O   UNL     1     -40.284  51.346 -54.529  1.00  0.00    -0.259 OA
BRANCH  39  41
HETATM   41  O   UNL     1     -39.453  51.744 -52.425  1.00  0.00    -0.318 OA
BRANCH  41  42
HETATM   42  C   UNL     1     -39.458  50.343 -52.109  1.00  0.00     0.174 C 
HETATM   43  C   UNL     1     -39.859  50.129 -50.663  1.00  0.00     0.034 C 
ENDBRANCH  41  42
ENDBRANCH  39  41
ENDBRANCH  36  39
ENDBRANCH  30  33
ENDBRANCH   1  29
TORSDOF 9
ENDMDL
MODEL 7
REMARK VINA RESULT:      -7.9      2.703      6.813
REMARK  9 active torsions:
REMARK  status: ('A' for Active; 'I' for Inactive)
REMARK    1  A    between atoms: C_2  and  O_3 
REMARK    2  A    between atoms: O_3  and  C_4 
REMARK    3  A    between atoms: C_4  and  C_5 
REMARK    4  A    between atoms: C_8  and  N_9 
REMARK       I    between atoms: N_9  and  C_10 
REMARK    5  A    between atoms: C_10  and  C_11 
REMARK    6  A    between atoms: C_13  and  N_14 
REMARK    7  A    between atoms: N_17  and  C_19 
REMARK    8  A    between atoms: C_19  and  C_20 
REMARK    9  A    between atoms: C_19  and  C_26 
ROOT
HETATM    1  C   UNL     1     -43.682  58.399 -51.545  1.00  0.00     0.164 C 
HETATM    2  N   UNL     1     -42.946  58.757 -52.770  1.00  0.00    -0.249 NA
HETATM    3  C   UNL     1     -43.579  59.358 -53.809  1.00  0.00     0.181 C 
HETATM    4  N   UNL     1     -44.746  59.907 -53.738  1.00  0.00    -0.185 NA
HETATM    5  C   UNL     1     -45.373  59.825 -52.518  1.00  0.00     0.247 C 
HETATM    6  O   UNL     1     -46.109  60.706 -52.088  1.00  0.00    -0.271 OA
HETATM    7  C   UNL     1     -45.170  58.544 -51.759  1.00  0.00     0.134 C 
HETATM    8  H   UNL     1     -42.383  57.952 -53.064  1.00  0.00     0.131 HD
ENDROOT
BRANCH   3   9
HETATM    9  N   UNL     1     -42.863  59.299 -54.985  1.00  0.00    -0.353 N 
HETATM   10  C   UNL     1     -42.765  60.460 -55.893  1.00  0.00     0.153 C 
HETATM   11  C   UNL     1     -43.791  60.329 -57.037  1.00  0.00     0.256 C 
HETATM   12  N   UNL     1     -43.533  59.021 -57.786  1.00  0.00    -0.056 N 
HETATM   13  H   UNL     1     -42.542  58.990 -58.031  1.00  0.00     0.281 HD
HETATM   14  C   UNL     1     -43.730  57.849 -56.813  1.00  0.00     0.256 C 
HETATM   15  C   UNL     1     -42.714  57.992 -55.661  1.00  0.00     0.153 C 
BRANCH  12  16
HETATM   16  C   UNL     1     -44.260  58.868 -59.117  1.00  0.00     0.254 C 
BRANCH  16  17
HETATM   17  C   UNL     1     -43.691  59.774 -60.205  1.00  0.00    -0.023 A 
HETATM   18  C   UNL     1     -42.313  59.836 -60.477  1.00  0.00     0.009 A 
HETATM   19  C   UNL     1     -41.819  60.676 -61.475  1.00  0.00     0.001 A 
HETATM   20  C   UNL     1     -42.693  61.465 -62.219  1.00  0.00     0.000 A 
HETATM   21  C   UNL     1     -44.062  61.415 -61.968  1.00  0.00     0.001 A 
HETATM   22  C   UNL     1     -44.559  60.576 -60.971  1.00  0.00     0.009 A 
ENDBRANCH  16  17
BRANCH  16  23
HETATM   23  C   UNL     1     -44.502  57.411 -59.555  1.00  0.00    -0.023 A 
HETATM   24  C   UNL     1     -43.492  56.429 -59.600  1.00  0.00     0.009 A 
HETATM   25  C   UNL     1     -43.776  55.112 -59.976  1.00  0.00     0.001 A 
HETATM   26  C   UNL     1     -45.077  54.739 -60.297  1.00  0.00     0.000 A 
HETATM   27  C   UNL     1     -46.098  55.678 -60.231  1.00  0.00     0.001 A 
HETATM   28  C   UNL     1     -45.817  56.995 -59.854  1.00  0.00     0.009 A 
ENDBRANCH  16  23
ENDBRANCH  12  16
ENDBRANCH   3   9
BRANCH   1  29
HETATM   29  C   UNL     1     -43.291  56.943 -51.202  1.00  0.00     0.240 C 
HETATM   30  N   UNL     1     -42.023  56.562 -51.593  1.00  0.00    -0.326 N 
HETATM   31  H   UNL     1     -41.426  57.257 -52.026  1.00  0.00     0.169 HD
HETATM   32  O   UNL     1     -44.128  56.226 -50.646  1.00  0.00    -0.271 OA
BRANCH  30  33
HETATM   33  C   UNL     1     -41.458  55.270 -51.474  1.00  0.00     0.034 A 
HETATM   34  C   UNL     1     -40.834  54.796 -50.317  1.00  0.00     0.030 A 
HETATM   35  C   UNL     1     -40.319  53.496 -50.262  1.00  0.00     0.020 A 
HETATM   36  C   UNL     1     -40.416  52.644 -51.367  1.00  0.00     0.039 A 
HETATM   37  C   UNL     1     -41.032  53.114 -52.531  1.00  0.00     0.020 A 
HETATM   38  C   UNL     1     -41.550  54.417 -52.581  1.00  0.00     0.030 A 
BRANCH  36  39
HETATM   39  C   UNL     1     -39.863  51.269 -51.236  1.00  0.00     0.293 C 
HETATM   40  O   UNL     1     -40.022  50.577 -50.243  1.00  0.00    -0.259 OA
BRANCH  39  41
HETATM   41  O   UNL     1     -39.180  50.919 -52.353  1.00  0.00    -0.318 OA
BRANCH  41  42
HETATM   42  C   UNL     1     -39.614  49.705 -52.986  1.00  0.00     0.174 C 
HETATM   43  C   UNL     1     -40.032  49.977 -54.418  1.00  0.00     0.034 C 
ENDBRANCH  41  42
ENDBRANCH  39  41
ENDBRANCH  36  39
ENDBRANCH  30  33
ENDBRANCH   1  29
TORSDOF 9
ENDMDL
MODEL 8
REMARK VINA RESULT:      -7.9      2.469      6.813
REMARK  9 active torsions:
REMARK  status: ('A' for Active; 'I' for Inactive)
REMARK    1  A    between atoms: C_2  and  O_3 
REMARK    2  A    between atoms: O_3  and  C_4 
REMARK    3  A    between atoms: C_4  and  C_5 
REMARK    4  A    between atoms: C_8  and  N_9 
REMARK       I    between atoms: N_9  and  C_10 
REMARK    5  A    between atoms: C_10  and  C_11 
REMARK    6  A    between atoms: C_13  and  N_14 
REMARK    7  A    between atoms: N_17  and  C_19 
REMARK    8  A    between atoms: C_19  and  C_20 
REMARK    9  A    between atoms: C_19  and  C_26 
ROOT
HETATM    1  C   UNL     1     -43.181  58.286 -51.539  1.00  0.00     0.164 C 
HETATM    2  N   UNL     1     -43.228  59.331 -52.576  1.00  0.00    -0.249 NA
HETATM    3  C   UNL     1     -44.414  59.829 -53.008  1.00  0.00     0.181 C 
HETATM    4  N   UNL     1     -45.541  59.667 -52.399  1.00  0.00    -0.185 NA
HETATM    5  C   UNL     1     -45.502  58.902 -51.258  1.00  0.00     0.247 C 
HETATM    6  O   UNL     1     -46.227  59.109 -50.292  1.00  0.00    -0.271 OA
HETATM    7  C   UNL     1     -44.562  57.728 -51.286  1.00  0.00     0.134 C 
HETATM    8  H   UNL     1     -42.612  59.055 -53.349  1.00  0.00     0.131 HD
ENDROOT
BRANCH   3   9
HETATM    9  N   UNL     1     -44.312  60.511 -54.200  1.00  0.00    -0.353 N 
HETATM   10  C   UNL     1     -45.146  60.162 -55.369  1.00  0.00     0.153 C 
HETATM   11  C   UNL     1     -44.355  59.258 -56.336  1.00  0.00     0.256 C 
HETATM   12  N   UNL     1     -43.082  59.988 -56.766  1.00  0.00    -0.056 N 
HETATM   13  H   UNL     1     -43.349  60.918 -57.096  1.00  0.00     0.281 HD
HETATM   14  C   UNL     1     -42.220  60.250 -55.524  1.00  0.00     0.256 C 
HETATM   15  C   UNL     1     -43.019  61.140 -54.550  1.00  0.00     0.153 C 
BRANCH  12  16
HETATM   16  C   UNL     1     -42.331  59.369 -57.940  1.00  0.00     0.254 C 
BRANCH  16  17
HETATM   17  C   UNL     1     -43.074  58.188 -58.557  1.00  0.00    -0.023 A 
HETATM   18  C   UNL     1     -44.256  58.358 -59.300  1.00  0.00     0.009 A 
HETATM   19  C   UNL     1     -44.917  57.259 -59.850  1.00  0.00     0.001 A 
HETATM   20  C   UNL     1     -44.409  55.975 -59.669  1.00  0.00     0.000 A 
HETATM   21  C   UNL     1     -43.238  55.787 -58.940  1.00  0.00     0.001 A 
HETATM   22  C   UNL     1     -42.573  56.883 -58.388  1.00  0.00     0.009 A 
ENDBRANCH  16  17
BRANCH  16  23
HETATM   23  C   UNL     1     -41.779  60.385 -58.959  1.00  0.00    -0.023 A 
HETATM   24  C   UNL     1     -42.082  60.356 -60.335  1.00  0.00     0.009 A 
HETATM   25  C   UNL     1     -41.576  61.324 -61.209  1.00  0.00     0.001 A 
HETATM   26  C   UNL     1     -40.773  62.353 -60.729  1.00  0.00     0.000 A 
HETATM   27  C   UNL     1     -40.484  62.424 -59.372  1.00  0.00     0.001 A 
HETATM   28  C   UNL     1     -40.990  61.459 -58.496  1.00  0.00     0.009 A 
ENDBRANCH  16  23
ENDBRANCH  12  16
ENDBRANCH   3   9
BRANCH   1  29
HETATM   29  C   UNL     1     -42.208  57.198 -52.046  1.00  0.00     0.240 C 
HETATM   30  N   UNL     1     -42.763  55.947 -52.231  1.00  0.00    -0.326 N 
HETATM   31  H   UNL     1     -43.757  55.835 -52.072  1.00  0.00     0.169 HD
HETATM   32  O   UNL     1     -41.025  57.502 -52.218  1.00  0.00    -0.271 OA
BRANCH  30  33
HETATM   33  C   UNL     1     -42.074  54.768 -52.606  1.00  0.00     0.034 A 
HETATM   34  C   UNL     1     -42.115  54.216 -53.889  1.00  0.00     0.030 A 
HETATM   35  C   UNL     1     -41.387  53.061 -54.194  1.00  0.00     0.020 A 
HETATM   36  C   UNL     1     -40.607  52.431 -53.219  1.00  0.00     0.039 A 
HETATM   37  C   UNL     1     -40.568  52.973 -51.930  1.00  0.00     0.020 A 
HETATM   38  C   UNL     1     -41.296  54.133 -51.629  1.00  0.00     0.030 A 
BRANCH  36  39
HETATM   39  C   UNL     1     -39.845  51.216 -53.616  1.00  0.00     0.293 C 
HETATM   40  O   UNL     1     -39.918  50.715 -54.725  1.00  0.00    -0.259 OA
BRANCH  39  41
HETATM   41  O   UNL     1     -39.085  50.771 -52.585  1.00  0.00    -0.318 OA
BRANCH  41  42
HETATM   42  C   UNL     1     -39.485  49.510 -52.024  1.00  0.00     0.174 C 
HETATM   43  C   UNL     1     -39.860  49.678 -50.565  1.00  0.00     0.034 C 
ENDBRANCH  41  42
ENDBRANCH  39  41
ENDBRANCH  36  39
ENDBRANCH  30  33
ENDBRANCH   1  29
TORSDOF 9
ENDMDL
MODEL 9
REMARK VINA RESULT:      -7.8      2.338      6.906
REMARK  9 active torsions:
REMARK  status: ('A' for Active; 'I' for Inactive)
REMARK    1  A    between atoms: C_2  and  O_3 
REMARK    2  A    between atoms: O_3  and  C_4 
REMARK    3  A    between atoms: C_4  and  C_5 
REMARK    4  A    between atoms: C_8  and  N_9 
REMARK       I    between atoms: N_9  and  C_10 
REMARK    5  A    between atoms: C_10  and  C_11 
REMARK    6  A    between atoms: C_13  and  N_14 
REMARK    7  A    between atoms: N_17  and  C_19 
REMARK    8  A    between atoms: C_19  and  C_20 
REMARK    9  A    between atoms: C_19  and  C_26 
ROOT
HETATM    1  C   UNL     1     -41.193  54.523 -54.332  1.00  0.00     0.164 C 
HETATM    2  N   UNL     1     -41.385  55.474 -53.224  1.00  0.00    -0.249 NA
HETATM    3  C   UNL     1     -41.408  55.045 -51.936  1.00  0.00     0.181 C 
HETATM    4  N   UNL     1     -41.003  53.883 -51.544  1.00  0.00    -0.185 NA
HETATM    5  C   UNL     1     -40.560  53.038 -52.533  1.00  0.00     0.247 C 
HETATM    6  O   UNL     1     -39.654  52.230 -52.361  1.00  0.00    -0.271 OA
HETATM    7  C   UNL     1     -41.307  53.100 -53.835  1.00  0.00     0.134 C 
HETATM    8  H   UNL     1     -42.177  56.087 -53.448  1.00  0.00     0.131 HD
ENDROOT
BRANCH   3   9
HETATM    9  N   UNL     1     -41.944  55.970 -51.068  1.00  0.00    -0.353 N 
HETATM   10  C   UNL     1     -43.309  56.505 -51.249  1.00  0.00     0.153 C 
HETATM   11  C   UNL     1     -43.256  57.872 -51.961  1.00  0.00     0.256 C 
HETATM   12  N   UNL     1     -42.396  58.827 -51.134  1.00  0.00    -0.056 N 
HETATM   13  H   UNL     1     -42.739  58.807 -50.171  1.00  0.00     0.281 HD
HETATM   14  C   UNL     1     -40.971  58.262 -51.050  1.00  0.00     0.256 C 
HETATM   15  C   UNL     1     -41.029  56.886 -50.352  1.00  0.00     0.153 C 
BRANCH  12  16
HETATM   16  C   UNL     1     -42.471  60.297 -51.533  1.00  0.00     0.254 C 
BRANCH  16  17
HETATM   17  C   UNL     1     -42.915  60.492 -52.979  1.00  0.00    -0.023 A 
HETATM   18  C   UNL     1     -42.036  60.300 -54.060  1.00  0.00     0.009 A 
HETATM   19  C   UNL     1     -42.468  60.490 -55.373  1.00  0.00     0.001 A 
HETATM   20  C   UNL     1     -43.783  60.871 -55.628  1.00  0.00     0.000 A 
HETATM   21  C   UNL     1     -44.670  61.061 -54.572  1.00  0.00     0.001 A 
HETATM   22  C   UNL     1     -44.242  60.873 -53.257  1.00  0.00     0.009 A 
ENDBRANCH  16  17
BRANCH  16  23
HETATM   23  C   UNL     1     -43.184  61.205 -50.512  1.00  0.00    -0.023 A 
HETATM   24  C   UNL     1     -42.940  62.588 -50.391  1.00  0.00     0.009 A 
HETATM   25  C   UNL     1     -43.640  63.370 -49.466  1.00  0.00     0.001 A 
HETATM   26  C   UNL     1     -44.613  62.796 -48.656  1.00  0.00     0.000 A 
HETATM   27  C   UNL     1     -44.897  61.441 -48.776  1.00  0.00     0.001 A 
HETATM   28  C   UNL     1     -44.200  60.658 -49.701  1.00  0.00     0.009 A 
ENDBRANCH  16  23
ENDBRANCH  12  16
ENDBRANCH   3   9
BRANCH   1  29
HETATM   29  C   UNL     1     -42.272  54.849 -55.390  1.00  0.00     0.240 C 
HETATM   30  N   UNL     1     -42.056  56.001 -56.120  1.00  0.00    -0.326 N 
HETATM   31  H   UNL     1     -41.202  56.520 -55.955  1.00  0.00     0.169 HD
HETATM   32  O   UNL     1     -43.245  54.096 -55.487  1.00  0.00    -0.271 OA
BRANCH  30  33
HETATM   33  C   UNL     1     -42.928  56.562 -57.084  1.00  0.00     0.034 A 
HETATM   34  C   UNL     1     -42.809  56.350 -58.460  1.00  0.00     0.030 A 
HETATM   35  C   UNL     1     -43.725  56.918 -59.353  1.00  0.00     0.020 A 
HETATM   36  C   UNL     1     -44.776  57.712 -58.886  1.00  0.00     0.039 A 
HETATM   37  C   UNL     1     -44.897  57.935 -57.511  1.00  0.00     0.020 A 
HETATM   38  C   UNL     1     -43.979  57.362 -56.619  1.00  0.00     0.030 A 
BRANCH  36  39
HETATM   39  C   UNL     1     -45.724  58.271 -59.889  1.00  0.00     0.293 C 
HETATM   40  O   UNL     1     -45.396  59.088 -60.734  1.00  0.00    -0.259 OA
BRANCH  39  41
HETATM   41  O   UNL     1     -46.963  57.748 -59.720  1.00  0.00    -0.318 OA
BRANCH  41  42
HETATM   42  C   UNL     1     -47.167  56.450 -60.300  1.00  0.00     0.174 C 
HETATM   43  C   UNL     1     -47.814  56.578 -61.666  1.00  0.00     0.034 C 
ENDBRANCH  41  42
ENDBRANCH  39  41
ENDBRANCH  36  39
ENDBRANCH  30  33
ENDBRANCH   1  29
TORSDOF 9
ENDMDL
MODEL 10
REMARK VINA RESULT:      -7.7      2.763      6.533
REMARK  9 active torsions:
REMARK  status: ('A' for Active; 'I' for Inactive)
REMARK    1  A    between atoms: C_2  and  O_3 
REMARK    2  A    between atoms: O_3  and  C_4 
REMARK    3  A    between atoms: C_4  and  C_5 
REMARK    4  A    between atoms: C_8  and  N_9 
REMARK       I    between atoms: N_9  and  C_10 
REMARK    5  A    between atoms: C_10  and  C_11 
REMARK    6  A    between atoms: C_13  and  N_14 
REMARK    7  A    between atoms: N_17  and  C_19 
REMARK    8  A    between atoms: C_19  and  C_20 
REMARK    9  A    between atoms: C_19  and  C_26 
ROOT
HETATM    1  C   UNL     1     -44.574  59.550 -50.911  1.00  0.00     0.164 C 
HETATM    2  N   UNL     1     -43.604  60.283 -51.743  1.00  0.00    -0.249 NA
HETATM    3  C   UNL     1     -44.023  61.193 -52.659  1.00  0.00     0.181 C 
HETATM    4  N   UNL     1     -45.211  61.696 -52.701  1.00  0.00    -0.185 NA
HETATM    5  C   UNL     1     -46.095  61.227 -51.759  1.00  0.00     0.247 C 
HETATM    6  O   UNL     1     -46.972  61.924 -51.263  1.00  0.00    -0.271 OA
HETATM    7  C   UNL     1     -45.979  59.766 -51.420  1.00  0.00     0.134 C 
HETATM    8  H   UNL     1     -42.931  59.614 -52.132  1.00  0.00     0.131 HD
ENDROOT
BRANCH   3   9
HETATM    9  N   UNL     1     -43.053  61.516 -53.582  1.00  0.00    -0.353 N 
HETATM   10  C   UNL     1     -43.187  62.687 -54.473  1.00  0.00     0.153 C 
HETATM   11  C   UNL     1     -43.719  62.249 -55.852  1.00  0.00     0.256 C 
HETATM   12  N   UNL     1     -42.763  61.213 -56.445  1.00  0.00    -0.056 N 
HETATM   13  H   UNL     1     -41.817  61.598 -56.401  1.00  0.00     0.281 HD
HETATM   14  C   UNL     1     -42.728  59.988 -55.521  1.00  0.00     0.256 C 
HETATM   15  C   UNL     1     -42.212  60.432 -54.136  1.00  0.00     0.153 C 
BRANCH  12  16
HETATM   16  C   UNL     1     -42.973  60.889 -57.920  1.00  0.00     0.254 C 
BRANCH  16  17
HETATM   17  C   UNL     1     -41.927  61.538 -58.821  1.00  0.00    -0.023 A 
HETATM   18  C   UNL     1     -40.719  62.047 -58.311  1.00  0.00     0.009 A 
HETATM   19  C   UNL     1     -39.781  62.639 -59.158  1.00  0.00     0.001 A 
HETATM   20  C   UNL     1     -40.034  62.733 -60.524  1.00  0.00     0.000 A 
HETATM   21  C   UNL     1     -41.222  62.232 -61.048  1.00  0.00     0.001 A 
HETATM   22  C   UNL     1     -42.162  61.638 -60.205  1.00  0.00     0.009 A 
ENDBRANCH  16  17
BRANCH  16  23
HETATM   23  C   UNL     1     -43.246  59.402 -58.220  1.00  0.00    -0.023 A 
HETATM   24  C   UNL     1     -42.231  58.447 -58.428  1.00  0.00     0.009 A 
HETATM   25  C   UNL     1     -42.537  57.103 -58.666  1.00  0.00     0.001 A 
HETATM   26  C   UNL     1     -43.860  56.676 -58.682  1.00  0.00     0.000 A 
HETATM   27  C   UNL     1     -44.881  57.590 -58.448  1.00  0.00     0.001 A 
HETATM   28  C   UNL     1     -44.577  58.934 -58.209  1.00  0.00     0.009 A 
ENDBRANCH  16  23
ENDBRANCH  12  16
ENDBRANCH   3   9
BRANCH   1  29
HETATM   29  C   UNL     1     -44.168  58.060 -50.964  1.00  0.00     0.240 C 
HETATM   30  N   UNL     1     -42.815  57.818 -51.098  1.00  0.00    -0.326 N 
HETATM   31  H   UNL     1     -42.185  58.612 -51.103  1.00  0.00     0.169 HD
HETATM   32  O   UNL     1     -45.059  57.207 -50.918  1.00  0.00    -0.271 OA
BRANCH  30  33
HETATM   33  C   UNL     1     -42.197  56.554 -51.253  1.00  0.00     0.034 A 
HETATM   34  C   UNL     1     -41.901  55.695 -50.191  1.00  0.00     0.030 A 
HETATM   35  C   UNL     1     -41.312  54.448 -50.423  1.00  0.00     0.020 A 
HETATM   36  C   UNL     1     -41.002  54.036 -51.722  1.00  0.00     0.039 A 
HETATM   37  C   UNL     1     -41.287  54.894 -52.790  1.00  0.00     0.020 A 
HETATM   38  C   UNL     1     -41.881  56.142 -52.554  1.00  0.00     0.030 A 
BRANCH  36  39
HETATM   39  C   UNL     1     -40.391  52.691 -51.899  1.00  0.00     0.293 C 
HETATM   40  O   UNL     1     -39.891  52.059 -50.983  1.00  0.00    -0.259 OA
BRANCH  39  41
HETATM   41  O   UNL     1     -40.475  52.293 -53.193  1.00  0.00    -0.318 OA
BRANCH  41  42
HETATM   42  C   UNL     1     -39.427  51.417 -53.637  1.00  0.00     0.174 C 
HETATM   43  C   UNL     1     -40.014  50.166 -54.261  1.00  0.00     0.034 C 
ENDBRANCH  41  42
ENDBRANCH  39  41
ENDBRANCH  36  39
ENDBRANCH  30  33
ENDBRANCH   1  29
TORSDOF 9
ENDMDL
