MODEL 1
REMARK VINA RESULT:      -8.5      0.000      0.000
REMARK  2 active torsions:
REMARK  status: ('A' for Active; 'I' for Inactive)
REMARK    1  A    between atoms: C_7  and  N_8 
REMARK       I    between atoms: N_8  and  C_9 
REMARK       I    between atoms: C_9  and  N_10 
REMARK    2  A    between atoms: N_10  and  C_11 
ROOT
HETATM    1  C   UNL     1     -39.860  52.075 -53.911  1.00  0.00     0.025 A 
HETATM    2  C   UNL     1     -40.019  52.198 -52.530  1.00  0.00     0.044 A 
HETATM    3  C   UNL     1     -39.732  51.090 -51.666  1.00  0.00     0.099 C 
HETATM    4  N   UNL     1     -39.501  50.192 -50.970  1.00  0.00    -0.191 NA
HETATM    5  C   UNL     1     -40.464  53.411 -51.996  1.00  0.00     0.025 A 
HETATM    6  C   UNL     1     -40.756  54.492 -52.839  1.00  0.00     0.031 A 
HETATM    7  C   UNL     1     -40.610  54.371 -54.223  1.00  0.00     0.036 A 
HETATM    8  C   UNL     1     -40.153  53.155 -54.750  1.00  0.00     0.031 A 
ENDROOT
BRANCH   7   9
HETATM    9  N   UNL     1     -40.905  55.399 -55.141  1.00  0.00    -0.309 N 
HETATM   10  C   UNL     1     -42.054  55.564 -55.880  1.00  0.00     0.321 C 
HETATM   11  N   UNL     1     -41.955  56.665 -56.712  1.00  0.00    -0.338 N 
HETATM   12  O   UNL     1     -43.047  54.848 -55.880  1.00  0.00    -0.247 OA
HETATM   13  H   UNL     1     -41.309  57.387 -56.419  1.00  0.00     0.164 HD
HETATM   14  H   UNL     1     -40.141  56.020 -55.361  1.00  0.00     0.170 HD
BRANCH  11  15
HETATM   15  C   UNL     1     -42.994  57.033 -57.667  1.00  0.00     0.089 C 
HETATM   16  C   UNL     1     -43.324  55.875 -58.631  1.00  0.00     0.058 C 
HETATM   17  C   UNL     1     -44.422  56.290 -59.587  1.00  0.00     0.190 C 
HETATM   18  N   UNL     1     -45.620  56.718 -58.783  1.00  0.00    -0.067 N 
HETATM   19  C   UNL     1     -45.023  55.206 -60.459  1.00  0.00     0.035 C 
HETATM   20  H   UNL     1     -45.844  55.953 -58.126  1.00  0.00     0.280 HD
HETATM   21  C   UNL     1     -45.359  57.939 -57.964  1.00  0.00     0.237 C 
HETATM   22  C   UNL     1     -46.763  56.778 -59.764  1.00  0.00     0.235 C 
HETATM   23  C   UNL     1     -44.243  57.617 -56.977  1.00  0.00     0.053 C 
HETATM   24  C   UNL     1     -46.361  55.810 -60.877  1.00  0.00     0.030 C 
ENDBRANCH  11  15
ENDBRANCH   7   9
TORSDOF 2
ENDMDL
MODEL 2
REMARK VINA RESULT:      -8.1      1.094      1.976
REMARK  2 active torsions:
REMARK  status: ('A' for Active; 'I' for Inactive)
REMARK    1  A    between atoms: C_7  and  N_8 
REMARK       I    between atoms: N_8  and  C_9 
REMARK       I    between atoms: C_9  and  N_10 
REMARK    2  A    between atoms: N_10  and  C_11 
ROOT
HETATM    1  C   UNL     1     -39.778  51.383 -53.831  1.00  0.00     0.025 A 
HETATM    2  C   UNL     1     -39.859  51.646 -52.463  1.00  0.00     0.044 A 
HETATM    3  C   UNL     1     -39.530  50.626 -51.509  1.00  0.00     0.099 C 
HETATM    4  N   UNL     1     -39.266  49.799 -50.741  1.00  0.00    -0.191 NA
HETATM    5  C   UNL     1     -40.265  52.911 -52.030  1.00  0.00     0.025 A 
HETATM    6  C   UNL     1     -40.598  53.906 -52.958  1.00  0.00     0.031 A 
HETATM    7  C   UNL     1     -40.531  53.645 -54.329  1.00  0.00     0.036 A 
HETATM    8  C   UNL     1     -40.111  52.378 -54.757  1.00  0.00     0.031 A 
ENDROOT
BRANCH   7   9
HETATM    9  N   UNL     1     -40.871  54.581 -55.329  1.00  0.00    -0.309 N 
HETATM   10  C   UNL     1     -42.115  54.827 -55.863  1.00  0.00     0.321 C 
HETATM   11  N   UNL     1     -42.045  55.783 -56.860  1.00  0.00    -0.338 N 
HETATM   12  O   UNL     1     -43.171  54.281 -55.570  1.00  0.00    -0.247 OA
HETATM   13  H   UNL     1     -41.267  56.426 -56.807  1.00  0.00     0.164 HD
HETATM   14  H   UNL     1     -40.094  55.041 -55.778  1.00  0.00     0.170 HD
BRANCH  11  15
HETATM   15  C   UNL     1     -43.201  56.183 -57.657  1.00  0.00     0.089 C 
HETATM   16  C   UNL     1     -43.686  57.601 -57.293  1.00  0.00     0.058 C 
HETATM   17  C   UNL     1     -44.867  57.985 -58.158  1.00  0.00     0.190 C 
HETATM   18  N   UNL     1     -44.458  57.879 -59.602  1.00  0.00    -0.067 N 
HETATM   19  C   UNL     1     -45.332  59.425 -58.087  1.00  0.00     0.035 C 
HETATM   20  H   UNL     1     -43.596  58.435 -59.724  1.00  0.00     0.280 HD
HETATM   21  C   UNL     1     -44.139  56.478 -60.009  1.00  0.00     0.237 C 
HETATM   22  C   UNL     1     -45.534  58.594 -60.378  1.00  0.00     0.235 C 
HETATM   23  C   UNL     1     -42.962  55.997 -59.168  1.00  0.00     0.053 C 
HETATM   24  C   UNL     1     -46.127  59.588 -59.380  1.00  0.00     0.030 C 
ENDBRANCH  11  15
ENDBRANCH   7   9
TORSDOF 2
ENDMDL
MODEL 3
REMARK VINA RESULT:      -7.7      1.430      8.618
REMARK  2 active torsions:
REMARK  status: ('A' for Active; 'I' for Inactive)
REMARK    1  A    between atoms: C_7  and  N_8 
REMARK       I    between atoms: N_8  and  C_9 
REMARK       I    between atoms: C_9  and  N_10 
REMARK    2  A    between atoms: N_10  and  C_11 
ROOT
HETATM    1  C   UNL     1     -44.846  58.234 -58.066  1.00  0.00     0.025 A 
HETATM    2  C   UNL     1     -44.841  57.969 -59.437  1.00  0.00     0.044 A 
HETATM    3  C   UNL     1     -45.807  58.587 -60.297  1.00  0.00     0.099 C 
HETATM    4  N   UNL     1     -46.591  59.087 -60.991  1.00  0.00    -0.191 NA
HETATM    5  C   UNL     1     -43.888  57.092 -59.962  1.00  0.00     0.025 A 
HETATM    6  C   UNL     1     -42.951  56.476 -59.122  1.00  0.00     0.031 A 
HETATM    7  C   UNL     1     -42.958  56.729 -57.748  1.00  0.00     0.036 A 
HETATM    8  C   UNL     1     -43.908  57.619 -57.230  1.00  0.00     0.031 A 
ENDROOT
BRANCH   7   9
HETATM    9  N   UNL     1     -42.067  56.134 -56.831  1.00  0.00    -0.309 N 
HETATM   10  C   UNL     1     -42.276  55.015 -56.059  1.00  0.00     0.321 C 
HETATM   11  N   UNL     1     -41.188  54.766 -55.242  1.00  0.00    -0.338 N 
HETATM   12  O   UNL     1     -43.280  54.315 -56.022  1.00  0.00    -0.247 OA
HETATM   13  H   UNL     1     -40.300  55.128 -55.561  1.00  0.00     0.164 HD
HETATM   14  H   UNL     1     -41.224  56.655 -56.641  1.00  0.00     0.170 HD
BRANCH  11  15
HETATM   15  C   UNL     1     -41.166  53.688 -54.258  1.00  0.00     0.089 C 
HETATM   16  C   UNL     1     -40.504  52.412 -54.819  1.00  0.00     0.058 C 
HETATM   17  C   UNL     1     -40.479  51.331 -53.760  1.00  0.00     0.190 C 
HETATM   18  N   UNL     1     -39.757  51.860 -52.551  1.00  0.00    -0.067 N 
HETATM   19  C   UNL     1     -39.671  50.086 -54.067  1.00  0.00     0.035 C 
HETATM   20  H   UNL     1     -38.841  52.219 -52.867  1.00  0.00     0.280 HD
HETATM   21  C   UNL     1     -40.475  52.998 -51.903  1.00  0.00     0.237 C 
HETATM   22  C   UNL     1     -39.465  50.653 -51.697  1.00  0.00     0.235 C 
HETATM   23  C   UNL     1     -40.564  54.137 -52.912  1.00  0.00     0.053 C 
HETATM   24  C   UNL     1     -39.436  49.486 -52.683  1.00  0.00     0.030 C 
ENDBRANCH  11  15
ENDBRANCH   7   9
TORSDOF 2
ENDMDL
MODEL 4
REMARK VINA RESULT:      -7.7      1.713      8.418
REMARK  2 active torsions:
REMARK  status: ('A' for Active; 'I' for Inactive)
REMARK    1  A    between atoms: C_7  and  N_8 
REMARK       I    between atoms: N_8  and  C_9 
REMARK       I    between atoms: C_9  and  N_10 
REMARK    2  A    between atoms: N_10  and  C_11 
ROOT
HETATM    1  C   UNL     1     -45.626  57.240 -59.379  1.00  0.00     0.025 A 
HETATM    2  C   UNL     1     -45.976  56.169 -60.204  1.00  0.00     0.044 A 
HETATM    3  C   UNL     1     -47.145  56.243 -61.031  1.00  0.00     0.099 C 
HETATM    4  N   UNL     1     -48.092  56.306 -61.698  1.00  0.00    -0.191 NA
HETATM    5  C   UNL     1     -45.177  55.022 -60.214  1.00  0.00     0.025 A 
HETATM    6  C   UNL     1     -44.041  54.941 -59.398  1.00  0.00     0.031 A 
HETATM    7  C   UNL     1     -43.693  56.004 -58.562  1.00  0.00     0.036 A 
HETATM    8  C   UNL     1     -44.491  57.156 -58.565  1.00  0.00     0.031 A 
ENDROOT
BRANCH   7   9
HETATM    9  N   UNL     1     -42.582  55.996 -57.693  1.00  0.00    -0.309 N 
HETATM   10  C   UNL     1     -42.460  55.342 -56.489  1.00  0.00     0.321 C 
HETATM   11  N   UNL     1     -41.238  55.613 -55.899  1.00  0.00    -0.338 N 
HETATM   12  O   UNL     1     -43.296  54.637 -55.938  1.00  0.00    -0.247 OA
HETATM   13  H   UNL     1     -40.491  55.879 -56.526  1.00  0.00     0.164 HD
HETATM   14  H   UNL     1     -41.836  56.631 -57.933  1.00  0.00     0.170 HD
BRANCH  11  15
HETATM   15  C   UNL     1     -40.869  55.117 -54.577  1.00  0.00     0.089 C 
HETATM   16  C   UNL     1     -41.680  55.804 -53.459  1.00  0.00     0.058 C 
HETATM   17  C   UNL     1     -41.284  55.243 -52.110  1.00  0.00     0.190 C 
HETATM   18  N   UNL     1     -41.493  53.754 -52.130  1.00  0.00    -0.067 N 
HETATM   19  C   UNL     1     -42.132  55.646 -50.921  1.00  0.00     0.035 C 
HETATM   20  H   UNL     1     -42.465  53.579 -52.436  1.00  0.00     0.280 HD
HETATM   21  C   UNL     1     -40.596  53.058 -53.099  1.00  0.00     0.237 C 
HETATM   22  C   UNL     1     -41.421  53.318 -50.689  1.00  0.00     0.235 C 
HETATM   23  C   UNL     1     -40.914  53.579 -54.496  1.00  0.00     0.053 C 
HETATM   24  C   UNL     1     -41.812  54.564 -49.894  1.00  0.00     0.030 C 
ENDBRANCH  11  15
ENDBRANCH   7   9
TORSDOF 2
ENDMDL
MODEL 5
REMARK VINA RESULT:      -7.6     14.651     19.049
REMARK  2 active torsions:
REMARK  status: ('A' for Active; 'I' for Inactive)
REMARK    1  A    between atoms: C_7  and  N_8 
REMARK       I    between atoms: N_8  and  C_9 
REMARK       I    between atoms: C_9  and  N_10 
REMARK    2  A    between atoms: N_10  and  C_11 
ROOT
HETATM    1  C   UNL     1     -37.309  42.009 -56.314  1.00  0.00     0.025 A 
HETATM    2  C   UNL     1     -36.452  42.056 -57.415  1.00  0.00     0.044 A 
HETATM    3  C   UNL     1     -36.983  42.170 -58.742  1.00  0.00     0.099 C 
HETATM    4  N   UNL     1     -37.416  42.261 -59.814  1.00  0.00    -0.191 NA
HETATM    5  C   UNL     1     -35.071  41.986 -57.212  1.00  0.00     0.025 A 
HETATM    6  C   UNL     1     -34.549  41.862 -55.918  1.00  0.00     0.031 A 
HETATM    7  C   UNL     1     -35.402  41.803 -54.814  1.00  0.00     0.036 A 
HETATM    8  C   UNL     1     -36.785  41.885 -55.023  1.00  0.00     0.031 A 
ENDROOT
BRANCH   7   9
HETATM    9  N   UNL     1     -34.961  41.655 -53.482  1.00  0.00    -0.309 N 
HETATM   10  C   UNL     1     -34.403  40.541 -52.899  1.00  0.00     0.321 C 
HETATM   11  N   UNL     1     -34.144  40.759 -51.558  1.00  0.00    -0.338 N 
HETATM   12  O   UNL     1     -34.177  39.459 -53.428  1.00  0.00    -0.247 OA
HETATM   13  H   UNL     1     -34.011  41.723 -51.282  1.00  0.00     0.164 HD
HETATM   14  H   UNL     1     -35.184  42.417 -52.861  1.00  0.00     0.170 HD
BRANCH  11  15
HETATM   15  C   UNL     1     -33.626  39.723 -50.671  1.00  0.00     0.089 C 
HETATM   16  C   UNL     1     -32.555  40.274 -49.708  1.00  0.00     0.058 C 
HETATM   17  C   UNL     1     -32.063  39.174 -48.792  1.00  0.00     0.190 C 
HETATM   18  N   UNL     1     -33.244  38.598 -48.058  1.00  0.00    -0.067 N 
HETATM   19  C   UNL     1     -31.170  39.586 -47.639  1.00  0.00     0.035 C 
HETATM   20  H   UNL     1     -33.746  39.383 -47.610  1.00  0.00     0.280 HD
HETATM   21  C   UNL     1     -34.213  37.919 -48.968  1.00  0.00     0.237 C 
HETATM   22  C   UNL     1     -32.660  37.778 -46.936  1.00  0.00     0.235 C 
HETATM   23  C   UNL     1     -34.750  38.957 -49.947  1.00  0.00     0.053 C 
HETATM   24  C   UNL     1     -31.290  38.405 -46.679  1.00  0.00     0.030 C 
ENDBRANCH  11  15
ENDBRANCH   7   9
TORSDOF 2
ENDMDL
MODEL 6
REMARK VINA RESULT:      -7.6      4.793      6.399
REMARK  2 active torsions:
REMARK  status: ('A' for Active; 'I' for Inactive)
REMARK    1  A    between atoms: C_7  and  N_8 
REMARK       I    between atoms: N_8  and  C_9 
REMARK       I    between atoms: C_9  and  N_10 
REMARK    2  A    between atoms: N_10  and  C_11 
ROOT
HETATM    1  C   UNL     1     -40.404  52.884 -54.760  1.00  0.00     0.025 A 
HETATM    2  C   UNL     1     -40.132  51.977 -53.734  1.00  0.00     0.044 A 
HETATM    3  C   UNL     1     -39.804  50.615 -54.040  1.00  0.00     0.099 C 
HETATM    4  N   UNL     1     -39.540  49.514 -54.291  1.00  0.00    -0.191 NA
HETATM    5  C   UNL     1     -40.187  52.408 -52.406  1.00  0.00     0.025 A 
HETATM    6  C   UNL     1     -40.519  53.735 -52.103  1.00  0.00     0.031 A 
HETATM    7  C   UNL     1     -40.803  54.644 -53.125  1.00  0.00     0.036 A 
HETATM    8  C   UNL     1     -40.735  54.209 -54.456  1.00  0.00     0.031 A 
ENDROOT
BRANCH   7   9
HETATM    9  N   UNL     1     -41.169  55.989 -52.907  1.00  0.00    -0.309 N 
HETATM   10  C   UNL     1     -42.289  56.463 -52.264  1.00  0.00     0.321 C 
HETATM   11  N   UNL     1     -42.329  57.845 -52.292  1.00  0.00    -0.338 N 
HETATM   12  O   UNL     1     -43.187  55.805 -51.753  1.00  0.00    -0.247 OA
HETATM   13  H   UNL     1     -41.439  58.314 -52.390  1.00  0.00     0.164 HD
HETATM   14  H   UNL     1     -40.599  56.678 -53.374  1.00  0.00     0.170 HD
BRANCH  11  15
HETATM   15  C   UNL     1     -43.446  58.617 -51.756  1.00  0.00     0.089 C 
HETATM   16  C   UNL     1     -42.963  59.833 -50.939  1.00  0.00     0.058 C 
HETATM   17  C   UNL     1     -44.151  60.618 -50.423  1.00  0.00     0.190 C 
HETATM   18  N   UNL     1     -45.002  61.024 -51.596  1.00  0.00    -0.067 N 
HETATM   19  C   UNL     1     -43.863  61.962 -49.786  1.00  0.00     0.035 C 
HETATM   20  H   UNL     1     -44.388  61.505 -52.275  1.00  0.00     0.280 HD
HETATM   21  C   UNL     1     -45.607  59.856 -52.302  1.00  0.00     0.237 C 
HETATM   22  C   UNL     1     -45.945  62.072 -51.065  1.00  0.00     0.235 C 
HETATM   23  C   UNL     1     -44.473  58.991 -52.843  1.00  0.00     0.053 C 
HETATM   24  C   UNL     1     -45.214  62.668 -49.861  1.00  0.00     0.030 C 
ENDBRANCH  11  15
ENDBRANCH   7   9
TORSDOF 2
ENDMDL
MODEL 7
REMARK VINA RESULT:      -7.5      1.506      2.114
REMARK  2 active torsions:
REMARK  status: ('A' for Active; 'I' for Inactive)
REMARK    1  A    between atoms: C_7  and  N_8 
REMARK       I    between atoms: N_8  and  C_9 
REMARK       I    between atoms: C_9  and  N_10 
REMARK    2  A    between atoms: N_10  and  C_11 
ROOT
HETATM    1  C   UNL     1     -41.289  55.677 -50.893  1.00  0.00     0.025 A 
HETATM    2  C   UNL     1     -40.906  54.373 -50.574  1.00  0.00     0.044 A 
HETATM    3  C   UNL     1     -40.836  53.954 -49.204  1.00  0.00     0.099 C 
HETATM    4  N   UNL     1     -40.779  53.617 -48.096  1.00  0.00    -0.191 NA
HETATM    5  C   UNL     1     -40.587  53.481 -51.602  1.00  0.00     0.025 A 
HETATM    6  C   UNL     1     -40.643  53.891 -52.940  1.00  0.00     0.031 A 
HETATM    7  C   UNL     1     -41.014  55.198 -53.265  1.00  0.00     0.036 A 
HETATM    8  C   UNL     1     -41.344  56.084 -52.230  1.00  0.00     0.031 A 
ENDROOT
BRANCH   7   9
HETATM    9  N   UNL     1     -41.072  55.699 -54.582  1.00  0.00    -0.309 N 
HETATM   10  C   UNL     1     -42.186  56.104 -55.281  1.00  0.00     0.321 C 
HETATM   11  N   UNL     1     -41.852  56.487 -56.568  1.00  0.00    -0.338 N 
HETATM   12  O   UNL     1     -43.347  56.111 -54.890  1.00  0.00    -0.247 OA
HETATM   13  H   UNL     1     -40.900  56.796 -56.707  1.00  0.00     0.164 HD
HETATM   14  H   UNL     1     -40.212  55.648 -55.107  1.00  0.00     0.170 HD
BRANCH  11  15
HETATM   15  C   UNL     1     -42.846  56.887 -57.559  1.00  0.00     0.089 C 
HETATM   16  C   UNL     1     -43.358  55.683 -58.377  1.00  0.00     0.058 C 
HETATM   17  C   UNL     1     -44.403  56.138 -59.373  1.00  0.00     0.190 C 
HETATM   18  N   UNL     1     -45.511  56.828 -58.624  1.00  0.00    -0.067 N 
HETATM   19  C   UNL     1     -45.170  55.058 -60.108  1.00  0.00     0.035 C 
HETATM   20  H   UNL     1     -45.830  56.186 -57.879  1.00  0.00     0.280 HD
HETATM   21  C   UNL     1     -45.061  58.086 -57.958  1.00  0.00     0.237 C 
HETATM   22  C   UNL     1     -46.651  56.937 -59.604  1.00  0.00     0.235 C 
HETATM   23  C   UNL     1     -43.984  57.723 -56.941  1.00  0.00     0.053 C 
HETATM   24  C   UNL     1     -46.414  55.796 -60.593  1.00  0.00     0.030 C 
ENDBRANCH  11  15
ENDBRANCH   7   9
TORSDOF 2
ENDMDL
MODEL 8
REMARK VINA RESULT:      -7.4      2.638      3.141
REMARK  2 active torsions:
REMARK  status: ('A' for Active; 'I' for Inactive)
REMARK    1  A    between atoms: C_7  and  N_8 
REMARK       I    between atoms: N_8  and  C_9 
REMARK       I    between atoms: C_9  and  N_10 
REMARK    2  A    between atoms: N_10  and  C_11 
ROOT
HETATM    1  C   UNL     1     -42.617  54.130 -52.557  1.00  0.00     0.025 A 
HETATM    2  C   UNL     1     -41.351  53.544 -52.534  1.00  0.00     0.044 A 
HETATM    3  C   UNL     1     -40.782  53.098 -51.295  1.00  0.00     0.099 C 
HETATM    4  N   UNL     1     -40.324  52.740 -50.291  1.00  0.00    -0.191 NA
HETATM    5  C   UNL     1     -40.640  53.398 -53.728  1.00  0.00     0.025 A 
HETATM    6  C   UNL     1     -41.187  53.844 -54.938  1.00  0.00     0.031 A 
HETATM    7  C   UNL     1     -42.449  54.442 -54.967  1.00  0.00     0.036 A 
HETATM    8  C   UNL     1     -43.162  54.574 -53.767  1.00  0.00     0.031 A 
ENDROOT
BRANCH   7   9
HETATM    9  N   UNL     1     -43.062  54.939 -56.136  1.00  0.00    -0.309 N 
HETATM   10  C   UNL     1     -43.011  56.220 -56.634  1.00  0.00     0.321 C 
HETATM   11  N   UNL     1     -43.781  56.339 -57.777  1.00  0.00    -0.338 N 
HETATM   12  O   UNL     1     -42.420  57.180 -56.156  1.00  0.00    -0.247 OA
HETATM   13  H   UNL     1     -43.934  55.488 -58.301  1.00  0.00     0.164 HD
HETATM   14  H   UNL     1     -43.699  54.307 -56.597  1.00  0.00     0.170 HD
BRANCH  11  15
HETATM   15  C   UNL     1     -43.976  57.607 -58.473  1.00  0.00     0.089 C 
HETATM   16  C   UNL     1     -42.738  58.004 -59.302  1.00  0.00     0.058 C 
HETATM   17  C   UNL     1     -42.992  59.309 -60.026  1.00  0.00     0.190 C 
HETATM   18  N   UNL     1     -44.221  59.151 -60.880  1.00  0.00    -0.067 N 
HETATM   19  C   UNL     1     -41.967  59.736 -61.056  1.00  0.00     0.035 C 
HETATM   20  H   UNL     1     -44.085  58.314 -61.471  1.00  0.00     0.280 HD
HETATM   21  C   UNL     1     -45.458  58.925 -60.075  1.00  0.00     0.237 C 
HETATM   22  C   UNL     1     -44.214  60.332 -61.816  1.00  0.00     0.235 C 
HETATM   23  C   UNL     1     -45.282  57.629 -59.291  1.00  0.00     0.053 C 
HETATM   24  C   UNL     1     -42.742  60.735 -61.911  1.00  0.00     0.030 C 
ENDBRANCH  11  15
ENDBRANCH   7   9
TORSDOF 2
ENDMDL
MODEL 9
REMARK VINA RESULT:      -7.2      5.191      8.793
REMARK  2 active torsions:
REMARK  status: ('A' for Active; 'I' for Inactive)
REMARK    1  A    between atoms: C_7  and  N_8 
REMARK       I    between atoms: N_8  and  C_9 
REMARK       I    between atoms: C_9  and  N_10 
REMARK    2  A    between atoms: N_10  and  C_11 
ROOT
HETATM    1  C   UNL     1     -42.860  60.884 -50.248  1.00  0.00     0.025 A 
HETATM    2  C   UNL     1     -44.092  61.162 -50.841  1.00  0.00     0.044 A 
HETATM    3  C   UNL     1     -44.863  62.293 -50.413  1.00  0.00     0.099 C 
HETATM    4  N   UNL     1     -45.486  63.207 -50.063  1.00  0.00    -0.191 NA
HETATM    5  C   UNL     1     -44.570  60.326 -51.854  1.00  0.00     0.025 A 
HETATM    6  C   UNL     1     -43.825  59.214 -52.267  1.00  0.00     0.031 A 
HETATM    7  C   UNL     1     -42.596  58.924 -51.669  1.00  0.00     0.036 A 
HETATM    8  C   UNL     1     -42.117  59.772 -50.661  1.00  0.00     0.031 A 
ENDROOT
BRANCH   7   9
HETATM    9  N   UNL     1     -41.796  57.813 -52.007  1.00  0.00    -0.309 N 
HETATM   10  C   UNL     1     -42.099  56.479 -51.855  1.00  0.00     0.321 C 
HETATM   11  N   UNL     1     -41.041  55.682 -52.254  1.00  0.00    -0.338 N 
HETATM   12  O   UNL     1     -43.128  55.998 -51.398  1.00  0.00    -0.247 OA
HETATM   13  H   UNL     1     -40.405  56.090 -52.926  1.00  0.00     0.164 HD
HETATM   14  H   UNL     1     -40.850  58.025 -52.288  1.00  0.00     0.170 HD
BRANCH  11  15
HETATM   15  C   UNL     1     -41.053  54.228 -52.128  1.00  0.00     0.089 C 
HETATM   16  C   UNL     1     -40.666  53.534 -53.450  1.00  0.00     0.058 C 
HETATM   17  C   UNL     1     -40.667  52.031 -53.268  1.00  0.00     0.190 C 
HETATM   18  N   UNL     1     -39.724  51.684 -52.149  1.00  0.00    -0.067 N 
HETATM   19  C   UNL     1     -40.099  51.201 -54.401  1.00  0.00     0.035 C 
HETATM   20  H   UNL     1     -38.813  52.124 -52.360  1.00  0.00     0.280 HD
HETATM   21  C   UNL     1     -40.174  52.218 -50.829  1.00  0.00     0.237 C 
HETATM   22  C   UNL     1     -39.507  50.196 -52.252  1.00  0.00     0.235 C 
HETATM   23  C   UNL     1     -40.222  53.739 -50.926  1.00  0.00     0.053 C 
HETATM   24  C   UNL     1     -39.780  49.872 -53.721  1.00  0.00     0.030 C 
ENDBRANCH  11  15
ENDBRANCH   7   9
TORSDOF 2
ENDMDL
MODEL 10
REMARK VINA RESULT:      -7.1      4.101      5.406
REMARK  2 active torsions:
REMARK  status: ('A' for Active; 'I' for Inactive)
REMARK    1  A    between atoms: C_7  and  N_8 
REMARK       I    between atoms: N_8  and  C_9 
REMARK       I    between atoms: C_9  and  N_10 
REMARK    2  A    between atoms: N_10  and  C_11 
ROOT
HETATM    1  C   UNL     1     -40.657  52.877 -52.770  1.00  0.00     0.025 A 
HETATM    2  C   UNL     1     -40.308  52.284 -53.984  1.00  0.00     0.044 A 
HETATM    3  C   UNL     1     -40.120  50.865 -54.069  1.00  0.00     0.099 C 
HETATM    4  N   UNL     1     -39.968  49.717 -54.134  1.00  0.00    -0.191 NA
HETATM    5  C   UNL     1     -40.139  53.086 -55.116  1.00  0.00     0.025 A 
HETATM    6  C   UNL     1     -40.310  54.474 -55.034  1.00  0.00     0.031 A 
HETATM    7  C   UNL     1     -40.648  55.075 -53.819  1.00  0.00     0.036 A 
HETATM    8  C   UNL     1     -40.827  54.264 -52.690  1.00  0.00     0.031 A 
ENDROOT
BRANCH   7   9
HETATM    9  N   UNL     1     -40.814  56.465 -53.644  1.00  0.00    -0.309 N 
HETATM   10  C   UNL     1     -41.808  57.265 -54.157  1.00  0.00     0.321 C 
HETATM   11  N   UNL     1     -41.608  58.589 -53.810  1.00  0.00    -0.338 N 
HETATM   12  O   UNL     1     -42.746  56.922 -54.866  1.00  0.00    -0.247 OA
HETATM   13  H   UNL     1     -41.067  58.752 -52.971  1.00  0.00     0.164 HD
HETATM   14  H   UNL     1     -40.054  56.940 -53.181  1.00  0.00     0.170 HD
BRANCH  11  15
HETATM   15  C   UNL     1     -42.465  59.671 -54.284  1.00  0.00     0.089 C 
HETATM   16  C   UNL     1     -42.476  60.865 -53.307  1.00  0.00     0.058 C 
HETATM   17  C   UNL     1     -43.355  61.972 -53.849  1.00  0.00     0.190 C 
HETATM   18  N   UNL     1     -42.851  62.360 -55.213  1.00  0.00    -0.067 N 
HETATM   19  C   UNL     1     -43.308  63.303 -53.127  1.00  0.00     0.035 C 
HETATM   20  H   UNL     1     -41.843  62.570 -55.125  1.00  0.00     0.280 HD
HETATM   21  C   UNL     1     -42.984  61.258 -56.212  1.00  0.00     0.237 C 
HETATM   22  C   UNL     1     -43.528  63.667 -55.535  1.00  0.00     0.235 C 
HETATM   23  C   UNL     1     -42.139  60.082 -55.734  1.00  0.00     0.053 C 
HETATM   24  C   UNL     1     -43.854  64.274 -54.171  1.00  0.00     0.030 C 
ENDBRANCH  11  15
ENDBRANCH   7   9
TORSDOF 2
ENDMDL
