MODEL 1
REMARK VINA RESULT:      -7.9      0.000      0.000
REMARK  9 active torsions:
REMARK  status: ('A' for Active; 'I' for Inactive)
REMARK    1  A    between atoms: C_4  and  N_5 
REMARK       I    between atoms: N_5  and  C_6 
REMARK    2  A    between atoms: C_6  and  C_7 
REMARK    3  A    between atoms: C_7  and  N_8 
REMARK       I    between atoms: N_8  and  C_9 
REMARK    4  A    between atoms: C_9  and  C_10 
REMARK    5  A    between atoms: C_10  and  O_11 
REMARK    6  A    between atoms: O_11  and  C_12 
REMARK    7  A    between atoms: C_12  and  C_13 
REMARK    8  A    between atoms: C_17  and  C_18 
REMARK    9  A    between atoms: C_27  and  O_28 
ROOT
HETATM    1  N   UNL     1     -43.264  59.406 -53.922  1.00  0.00    -0.350 N 
HETATM    2  C   UNL     1     -41.973  59.339 -54.405  1.00  0.00     0.242 C 
HETATM    3  O   UNL     1     -41.658  59.667 -55.545  1.00  0.00    -0.271 OA
HETATM    4  H   UNL     1     -43.452  58.863 -53.079  1.00  0.00     0.163 HD
ENDROOT
BRANCH   2   5
HETATM    5  C   UNL     1     -40.949  58.820 -53.393  1.00  0.00     0.281 C 
BRANCH   5   6
HETATM    6  O   UNL     1     -41.487  57.863 -52.483  1.00  0.00    -0.308 OA
BRANCH   6   7
HETATM    7  C   UNL     1     -41.374  56.560 -52.862  1.00  0.00     0.301 C 
HETATM    8  O   UNL     1     -40.605  56.178 -53.741  1.00  0.00    -0.259 OA
BRANCH   7   9
HETATM    9  C   UNL     1     -42.248  55.727 -52.060  1.00  0.00     0.091 A 
HETATM   10  S   UNL     1     -43.471  56.514 -51.143  1.00  0.00    -0.095 SA
HETATM   11  C   UNL     1     -44.119  55.037 -50.593  1.00  0.00     0.051 A 
HETATM   12  C   UNL     1     -43.395  53.960 -51.050  1.00  0.00     0.021 A 
HETATM   13  C   UNL     1     -42.292  54.349 -51.882  1.00  0.00    -0.002 A 
BRANCH  13  14
HETATM   14  C   UNL     1     -41.316  53.428 -52.455  1.00  0.00    -0.024 A 
HETATM   15  C   UNL     1     -41.429  53.030 -53.792  1.00  0.00     0.012 A 
HETATM   16  C   UNL     1     -40.514  52.126 -54.337  1.00  0.00     0.001 A 
HETATM   17  C   UNL     1     -39.485  51.615 -53.548  1.00  0.00     0.000 A 
HETATM   18  C   UNL     1     -39.370  52.000 -52.213  1.00  0.00     0.001 A 
HETATM   19  C   UNL     1     -40.286  52.899 -51.665  1.00  0.00     0.012 A 
ENDBRANCH  13  14
ENDBRANCH   7   9
ENDBRANCH   6   7
ENDBRANCH   5   6
ENDBRANCH   2   5
BRANCH   1  20
HETATM   20  C   UNL     1     -44.378  59.697 -54.813  1.00  0.00     0.225 C 
BRANCH  20  21
HETATM   21  C   UNL     1     -44.797  58.462 -55.621  1.00  0.00     0.239 C 
HETATM   22  N   UNL     1     -44.350  58.503 -56.929  1.00  0.00    -0.323 N 
HETATM   23  H   UNL     1     -43.690  59.227 -57.193  1.00  0.00     0.169 HD
HETATM   24  O   UNL     1     -45.351  57.507 -55.084  1.00  0.00    -0.271 OA
BRANCH  22  25
HETATM   25  C   UNL     1     -44.601  57.573 -57.961  1.00  0.00     0.069 A 
HETATM   26  C   UNL     1     -45.714  57.650 -58.803  1.00  0.00     0.039 A 
HETATM   27  C   UNL     1     -45.876  56.737 -59.853  1.00  0.00    -0.060 A 
HETATM   28  C   UNL     1     -47.078  56.822 -60.747  1.00  0.00     0.048 C 
HETATM   29  C   UNL     1     -44.931  55.722 -60.029  1.00  0.00     0.009 A 
HETATM   30  C   UNL     1     -43.819  55.633 -59.189  1.00  0.00     0.039 A 
HETATM   31  C   UNL     1     -43.644  56.555 -58.155  1.00  0.00     0.095 A 
BRANCH  31  32
HETATM   32  O   UNL     1     -42.588  56.560 -57.271  1.00  0.00    -0.354 OA
HETATM   33  C   UNL     1     -42.483  55.446 -56.394  1.00  0.00     0.210 C 
ENDBRANCH  31  32
ENDBRANCH  22  25
ENDBRANCH  20  21
ENDBRANCH   1  20
TORSDOF 9
ENDMDL
MODEL 2
REMARK VINA RESULT:      -7.8      2.992      6.207
REMARK  9 active torsions:
REMARK  status: ('A' for Active; 'I' for Inactive)
REMARK    1  A    between atoms: C_4  and  N_5 
REMARK       I    between atoms: N_5  and  C_6 
REMARK    2  A    between atoms: C_6  and  C_7 
REMARK    3  A    between atoms: C_7  and  N_8 
REMARK       I    between atoms: N_8  and  C_9 
REMARK    4  A    between atoms: C_9  and  C_10 
REMARK    5  A    between atoms: C_10  and  O_11 
REMARK    6  A    between atoms: O_11  and  C_12 
REMARK    7  A    between atoms: C_12  and  C_13 
REMARK    8  A    between atoms: C_17  and  C_18 
REMARK    9  A    between atoms: C_27  and  O_28 
ROOT
HETATM    1  N   UNL     1     -43.647  56.222 -55.742  1.00  0.00    -0.350 N 
HETATM    2  C   UNL     1     -43.402  55.106 -54.968  1.00  0.00     0.242 C 
HETATM    3  O   UNL     1     -43.960  54.889 -53.896  1.00  0.00    -0.271 OA
HETATM    4  H   UNL     1     -42.946  56.432 -56.453  1.00  0.00     0.163 HD
ENDROOT
BRANCH   2   5
HETATM    5  C   UNL     1     -42.370  54.143 -55.560  1.00  0.00     0.281 C 
BRANCH   5   6
HETATM    6  O   UNL     1     -41.920  53.157 -54.633  1.00  0.00    -0.308 OA
BRANCH   6   7
HETATM    7  C   UNL     1     -40.580  53.146 -54.388  1.00  0.00     0.301 C 
HETATM    8  O   UNL     1     -39.795  53.940 -54.902  1.00  0.00    -0.259 OA
BRANCH   7   9
HETATM    9  C   UNL     1     -40.255  52.111 -53.428  1.00  0.00     0.091 A 
HETATM   10  S   UNL     1     -39.833  50.562 -54.046  1.00  0.00    -0.095 SA
HETATM   11  C   UNL     1     -39.500  49.947 -52.491  1.00  0.00     0.051 A 
HETATM   12  C   UNL     1     -39.751  50.876 -51.509  1.00  0.00     0.021 A 
HETATM   13  C   UNL     1     -40.212  52.128 -52.038  1.00  0.00    -0.002 A 
BRANCH  13  14
HETATM   14  C   UNL     1     -40.617  53.275 -51.232  1.00  0.00    -0.024 A 
HETATM   15  C   UNL     1     -41.927  53.761 -51.314  1.00  0.00     0.012 A 
HETATM   16  C   UNL     1     -42.311  54.876 -50.566  1.00  0.00     0.001 A 
HETATM   17  C   UNL     1     -41.389  55.511 -49.735  1.00  0.00     0.000 A 
HETATM   18  C   UNL     1     -40.081  55.037 -49.653  1.00  0.00     0.001 A 
HETATM   19  C   UNL     1     -39.692  53.926 -50.404  1.00  0.00     0.012 A 
ENDBRANCH  13  14
ENDBRANCH   7   9
ENDBRANCH   6   7
ENDBRANCH   5   6
ENDBRANCH   2   5
BRANCH   1  20
HETATM   20  C   UNL     1     -44.456  57.319 -55.231  1.00  0.00     0.225 C 
BRANCH  20  21
HETATM   21  C   UNL     1     -43.606  58.345 -54.469  1.00  0.00     0.239 C 
HETATM   22  N   UNL     1     -43.374  57.975 -53.157  1.00  0.00    -0.323 N 
HETATM   23  H   UNL     1     -43.636  57.040 -52.863  1.00  0.00     0.169 HD
HETATM   24  O   UNL     1     -43.099  59.305 -55.042  1.00  0.00    -0.271 OA
BRANCH  22  25
HETATM   25  C   UNL     1     -42.690  58.703 -52.159  1.00  0.00     0.069 A 
HETATM   26  C   UNL     1     -41.311  58.614 -51.959  1.00  0.00     0.039 A 
HETATM   27  C   UNL     1     -40.678  59.411 -50.996  1.00  0.00    -0.060 A 
HETATM   28  C   UNL     1     -39.196  59.303 -50.784  1.00  0.00     0.048 C 
HETATM   29  C   UNL     1     -41.448  60.272 -50.208  1.00  0.00     0.009 A 
HETATM   30  C   UNL     1     -42.829  60.363 -50.395  1.00  0.00     0.039 A 
HETATM   31  C   UNL     1     -43.458  59.585 -51.369  1.00  0.00     0.095 A 
BRANCH  31  32
HETATM   32  O   UNL     1     -44.809  59.596 -51.637  1.00  0.00    -0.354 OA
HETATM   33  C   UNL     1     -45.670  59.139 -50.602  1.00  0.00     0.210 C 
ENDBRANCH  31  32
ENDBRANCH  22  25
ENDBRANCH  20  21
ENDBRANCH   1  20
TORSDOF 9
ENDMDL
MODEL 3
REMARK VINA RESULT:      -7.8      4.272      7.392
REMARK  9 active torsions:
REMARK  status: ('A' for Active; 'I' for Inactive)
REMARK    1  A    between atoms: C_4  and  N_5 
REMARK       I    between atoms: N_5  and  C_6 
REMARK    2  A    between atoms: C_6  and  C_7 
REMARK    3  A    between atoms: C_7  and  N_8 
REMARK       I    between atoms: N_8  and  C_9 
REMARK    4  A    between atoms: C_9  and  C_10 
REMARK    5  A    between atoms: C_10  and  O_11 
REMARK    6  A    between atoms: O_11  and  C_12 
REMARK    7  A    between atoms: C_12  and  C_13 
REMARK    8  A    between atoms: C_17  and  C_18 
REMARK    9  A    between atoms: C_27  and  O_28 
ROOT
HETATM    1  N   UNL     1     -42.747  57.856 -50.861  1.00  0.00    -0.350 N 
HETATM    2  C   UNL     1     -41.556  57.234 -50.546  1.00  0.00     0.242 C 
HETATM    3  O   UNL     1     -40.456  57.755 -50.708  1.00  0.00    -0.271 OA
HETATM    4  H   UNL     1     -43.559  57.245 -50.943  1.00  0.00     0.163 HD
ENDROOT
BRANCH   2   5
HETATM    5  C   UNL     1     -41.714  55.826 -49.967  1.00  0.00     0.281 C 
BRANCH   5   6
HETATM    6  O   UNL     1     -41.146  54.810 -50.789  1.00  0.00    -0.308 OA
BRANCH   6   7
HETATM    7  C   UNL     1     -41.979  54.270 -51.720  1.00  0.00     0.301 C 
HETATM    8  O   UNL     1     -43.068  53.770 -51.443  1.00  0.00    -0.259 OA
BRANCH   7   9
HETATM    9  C   UNL     1     -41.410  54.412 -53.045  1.00  0.00     0.091 A 
HETATM   10  S   UNL     1     -41.731  55.873 -53.893  1.00  0.00    -0.095 SA
HETATM   11  C   UNL     1     -40.742  55.420 -55.206  1.00  0.00     0.051 A 
HETATM   12  C   UNL     1     -40.214  54.162 -55.038  1.00  0.00     0.021 A 
HETATM   13  C   UNL     1     -40.613  53.556 -53.799  1.00  0.00    -0.002 A 
BRANCH  13  14
HETATM   14  C   UNL     1     -40.259  52.204 -53.381  1.00  0.00    -0.024 A 
HETATM   15  C   UNL     1     -39.799  51.972 -52.079  1.00  0.00     0.012 A 
HETATM   16  C   UNL     1     -39.432  50.683 -51.683  1.00  0.00     0.001 A 
HETATM   17  C   UNL     1     -39.520  49.624 -52.585  1.00  0.00     0.000 A 
HETATM   18  C   UNL     1     -39.969  49.849 -53.885  1.00  0.00     0.001 A 
HETATM   19  C   UNL     1     -40.333  51.136 -54.286  1.00  0.00     0.012 A 
ENDBRANCH  13  14
ENDBRANCH   7   9
ENDBRANCH   6   7
ENDBRANCH   5   6
ENDBRANCH   2   5
BRANCH   1  20
HETATM   20  C   UNL     1     -42.759  59.115 -51.592  1.00  0.00     0.225 C 
BRANCH  20  21
HETATM   21  C   UNL     1     -43.126  60.296 -50.685  1.00  0.00     0.239 C 
HETATM   22  N   UNL     1     -44.360  60.140 -50.080  1.00  0.00    -0.323 N 
HETATM   23  H   UNL     1     -44.828  59.243 -50.158  1.00  0.00     0.169 HD
HETATM   24  O   UNL     1     -42.322  61.193 -50.448  1.00  0.00    -0.271 OA
BRANCH  22  25
HETATM   25  C   UNL     1     -45.036  61.052 -49.240  1.00  0.00     0.069 A 
HETATM   26  C   UNL     1     -44.791  61.150 -47.868  1.00  0.00     0.039 A 
HETATM   27  C   UNL     1     -45.445  62.120 -47.095  1.00  0.00    -0.060 A 
HETATM   28  C   UNL     1     -45.181  62.213 -45.621  1.00  0.00     0.048 C 
HETATM   29  C   UNL     1     -46.375  62.967 -47.706  1.00  0.00     0.009 A 
HETATM   30  C   UNL     1     -46.632  62.871 -49.075  1.00  0.00     0.039 A 
HETATM   31  C   UNL     1     -45.966  61.919 -49.850  1.00  0.00     0.095 A 
BRANCH  31  32
HETATM   32  O   UNL     1     -46.141  61.740 -51.204  1.00  0.00    -0.354 OA
HETATM   33  C   UNL     1     -47.297  62.335 -51.783  1.00  0.00     0.210 C 
ENDBRANCH  31  32
ENDBRANCH  22  25
ENDBRANCH  20  21
ENDBRANCH   1  20
TORSDOF 9
ENDMDL
MODEL 4
REMARK VINA RESULT:      -7.8      2.083      2.919
REMARK  9 active torsions:
REMARK  status: ('A' for Active; 'I' for Inactive)
REMARK    1  A    between atoms: C_4  and  N_5 
REMARK       I    between atoms: N_5  and  C_6 
REMARK    2  A    between atoms: C_6  and  C_7 
REMARK    3  A    between atoms: C_7  and  N_8 
REMARK       I    between atoms: N_8  and  C_9 
REMARK    4  A    between atoms: C_9  and  C_10 
REMARK    5  A    between atoms: C_10  and  O_11 
REMARK    6  A    between atoms: O_11  and  C_12 
REMARK    7  A    between atoms: C_12  and  C_13 
REMARK    8  A    between atoms: C_17  and  C_18 
REMARK    9  A    between atoms: C_27  and  O_28 
ROOT
HETATM    1  N   UNL     1     -41.999  58.199 -53.466  1.00  0.00    -0.350 N 
HETATM    2  C   UNL     1     -41.218  58.770 -52.482  1.00  0.00     0.242 C 
HETATM    3  O   UNL     1     -40.199  59.413 -52.713  1.00  0.00    -0.271 OA
HETATM    4  H   UNL     1     -42.647  57.475 -53.155  1.00  0.00     0.163 HD
ENDROOT
BRANCH   2   5
HETATM    5  C   UNL     1     -41.731  58.539 -51.058  1.00  0.00     0.281 C 
BRANCH   5   6
HETATM    6  O   UNL     1     -41.320  57.292 -50.504  1.00  0.00    -0.308 OA
BRANCH   6   7
HETATM    7  C   UNL     1     -42.194  56.260 -50.661  1.00  0.00     0.301 C 
HETATM    8  O   UNL     1     -43.375  56.417 -50.963  1.00  0.00    -0.259 OA
BRANCH   7   9
HETATM    9  C   UNL     1     -41.517  54.994 -50.460  1.00  0.00     0.091 A 
HETATM   10  S   UNL     1     -40.998  54.618 -48.864  1.00  0.00    -0.095 SA
HETATM   11  C   UNL     1     -40.438  53.076 -49.326  1.00  0.00     0.051 A 
HETATM   12  C   UNL     1     -40.591  52.860 -50.676  1.00  0.00     0.021 A 
HETATM   13  C   UNL     1     -41.194  53.975 -51.349  1.00  0.00    -0.002 A 
BRANCH  13  14
HETATM   14  C   UNL     1     -41.419  54.056 -52.788  1.00  0.00    -0.024 A 
HETATM   15  C   UNL     1     -40.334  54.202 -53.660  1.00  0.00     0.012 A 
HETATM   16  C   UNL     1     -40.547  54.309 -55.036  1.00  0.00     0.001 A 
HETATM   17  C   UNL     1     -41.843  54.273 -55.547  1.00  0.00     0.000 A 
HETATM   18  C   UNL     1     -42.930  54.136 -54.685  1.00  0.00     0.001 A 
HETATM   19  C   UNL     1     -42.721  54.034 -53.308  1.00  0.00     0.012 A 
ENDBRANCH  13  14
ENDBRANCH   7   9
ENDBRANCH   6   7
ENDBRANCH   5   6
ENDBRANCH   2   5
BRANCH   1  20
HETATM   20  C   UNL     1     -41.546  58.167 -54.849  1.00  0.00     0.225 C 
BRANCH  20  21
HETATM   21  C   UNL     1     -42.660  57.710 -55.801  1.00  0.00     0.239 C 
HETATM   22  N   UNL     1     -42.192  57.422 -57.070  1.00  0.00    -0.323 N 
HETATM   23  H   UNL     1     -41.189  57.389 -57.221  1.00  0.00     0.169 HD
HETATM   24  O   UNL     1     -43.801  57.508 -55.397  1.00  0.00    -0.271 OA
BRANCH  22  25
HETATM   25  C   UNL     1     -42.940  57.039 -58.204  1.00  0.00     0.069 A 
HETATM   26  C   UNL     1     -43.404  55.737 -58.408  1.00  0.00     0.039 A 
HETATM   27  C   UNL     1     -44.199  55.430 -59.520  1.00  0.00    -0.060 A 
HETATM   28  C   UNL     1     -44.687  54.028 -59.734  1.00  0.00     0.048 C 
HETATM   29  C   UNL     1     -44.493  56.434 -60.448  1.00  0.00     0.009 A 
HETATM   30  C   UNL     1     -44.027  57.737 -60.257  1.00  0.00     0.039 A 
HETATM   31  C   UNL     1     -43.253  58.049 -59.138  1.00  0.00     0.095 A 
BRANCH  31  32
HETATM   32  O   UNL     1     -42.744  59.297 -58.852  1.00  0.00    -0.354 OA
HETATM   33  C   UNL     1     -42.057  59.963 -59.905  1.00  0.00     0.210 C 
ENDBRANCH  31  32
ENDBRANCH  22  25
ENDBRANCH  20  21
ENDBRANCH   1  20
TORSDOF 9
ENDMDL
MODEL 5
REMARK VINA RESULT:      -7.7      2.939      6.773
REMARK  9 active torsions:
REMARK  status: ('A' for Active; 'I' for Inactive)
REMARK    1  A    between atoms: C_4  and  N_5 
REMARK       I    between atoms: N_5  and  C_6 
REMARK    2  A    between atoms: C_6  and  C_7 
REMARK    3  A    between atoms: C_7  and  N_8 
REMARK       I    between atoms: N_8  and  C_9 
REMARK    4  A    between atoms: C_9  and  C_10 
REMARK    5  A    between atoms: C_10  and  O_11 
REMARK    6  A    between atoms: O_11  and  C_12 
REMARK    7  A    between atoms: C_12  and  C_13 
REMARK    8  A    between atoms: C_17  and  C_18 
REMARK    9  A    between atoms: C_27  and  O_28 
ROOT
HETATM    1  N   UNL     1     -43.008  57.692 -50.867  1.00  0.00    -0.350 N 
HETATM    2  C   UNL     1     -43.210  58.933 -51.437  1.00  0.00     0.242 C 
HETATM    3  O   UNL     1     -44.315  59.362 -51.753  1.00  0.00    -0.271 OA
HETATM    4  H   UNL     1     -42.052  57.338 -50.901  1.00  0.00     0.163 HD
ENDROOT
BRANCH   2   5
HETATM    5  C   UNL     1     -41.930  59.748 -51.642  1.00  0.00     0.281 C 
BRANCH   5   6
HETATM    6  O   UNL     1     -41.849  60.360 -52.927  1.00  0.00    -0.308 OA
BRANCH   6   7
HETATM    7  C   UNL     1     -41.638  59.512 -53.971  1.00  0.00     0.301 C 
HETATM    8  O   UNL     1     -40.721  58.694 -54.001  1.00  0.00    -0.259 OA
BRANCH   7   9
HETATM    9  C   UNL     1     -42.659  59.699 -54.983  1.00  0.00     0.091 A 
HETATM   10  S   UNL     1     -43.114  61.314 -55.360  1.00  0.00    -0.095 SA
HETATM   11  C   UNL     1     -44.176  60.810 -56.594  1.00  0.00     0.051 A 
HETATM   12  C   UNL     1     -44.231  59.439 -56.692  1.00  0.00     0.021 A 
HETATM   13  C   UNL     1     -43.373  58.782 -55.747  1.00  0.00    -0.002 A 
BRANCH  13  14
HETATM   14  C   UNL     1     -43.274  57.337 -55.577  1.00  0.00    -0.024 A 
HETATM   15  C   UNL     1     -42.507  56.578 -56.469  1.00  0.00     0.012 A 
HETATM   16  C   UNL     1     -42.432  55.190 -56.327  1.00  0.00     0.001 A 
HETATM   17  C   UNL     1     -43.123  54.555 -55.297  1.00  0.00     0.000 A 
HETATM   18  C   UNL     1     -43.895  55.303 -54.409  1.00  0.00     0.001 A 
HETATM   19  C   UNL     1     -43.977  56.690 -54.551  1.00  0.00     0.012 A 
ENDBRANCH  13  14
ENDBRANCH   7   9
ENDBRANCH   6   7
ENDBRANCH   5   6
ENDBRANCH   2   5
BRANCH   1  20
HETATM   20  C   UNL     1     -44.094  56.727 -50.782  1.00  0.00     0.225 C 
BRANCH  20  21
HETATM   21  C   UNL     1     -43.580  55.284 -50.861  1.00  0.00     0.239 C 
HETATM   22  N   UNL     1     -42.226  55.214 -51.136  1.00  0.00    -0.323 N 
HETATM   23  H   UNL     1     -41.682  56.071 -51.113  1.00  0.00     0.169 HD
HETATM   24  O   UNL     1     -44.300  54.333 -50.569  1.00  0.00    -0.271 OA
BRANCH  22  25
HETATM   25  C   UNL     1     -41.440  54.059 -51.339  1.00  0.00     0.069 A 
HETATM   26  C   UNL     1     -41.121  53.566 -52.607  1.00  0.00     0.039 A 
HETATM   27  C   UNL     1     -40.282  52.453 -52.747  1.00  0.00    -0.060 A 
HETATM   28  C   UNL     1     -39.951  51.926 -54.112  1.00  0.00     0.048 C 
HETATM   29  C   UNL     1     -39.794  51.815 -51.602  1.00  0.00     0.009 A 
HETATM   30  C   UNL     1     -40.114  52.297 -50.330  1.00  0.00     0.039 A 
HETATM   31  C   UNL     1     -40.933  53.419 -50.189  1.00  0.00     0.095 A 
BRANCH  31  32
HETATM   32  O   UNL     1     -41.308  53.976 -48.987  1.00  0.00    -0.354 OA
HETATM   33  C   UNL     1     -40.319  54.019 -47.966  1.00  0.00     0.210 C 
ENDBRANCH  31  32
ENDBRANCH  22  25
ENDBRANCH  20  21
ENDBRANCH   1  20
TORSDOF 9
ENDMDL
MODEL 6
REMARK VINA RESULT:      -7.7      3.384      8.174
REMARK  9 active torsions:
REMARK  status: ('A' for Active; 'I' for Inactive)
REMARK    1  A    between atoms: C_4  and  N_5 
REMARK       I    between atoms: N_5  and  C_6 
REMARK    2  A    between atoms: C_6  and  C_7 
REMARK    3  A    between atoms: C_7  and  N_8 
REMARK       I    between atoms: N_8  and  C_9 
REMARK    4  A    between atoms: C_9  and  C_10 
REMARK    5  A    between atoms: C_10  and  O_11 
REMARK    6  A    between atoms: O_11  and  C_12 
REMARK    7  A    between atoms: C_12  and  C_13 
REMARK    8  A    between atoms: C_17  and  C_18 
REMARK    9  A    between atoms: C_27  and  O_28 
ROOT
HETATM    1  N   UNL     1     -42.078  56.891 -56.253  1.00  0.00    -0.350 N 
HETATM    2  C   UNL     1     -42.828  58.043 -56.384  1.00  0.00     0.242 C 
HETATM    3  O   UNL     1     -44.005  58.049 -56.730  1.00  0.00    -0.271 OA
HETATM    4  H   UNL     1     -41.067  57.020 -56.230  1.00  0.00     0.163 HD
ENDROOT
BRANCH   2   5
HETATM    5  C   UNL     1     -42.067  59.330 -56.054  1.00  0.00     0.281 C 
BRANCH   5   6
HETATM    6  O   UNL     1     -41.575  60.007 -57.208  1.00  0.00    -0.308 OA
BRANCH   6   7
HETATM    7  C   UNL     1     -42.425  60.910 -57.770  1.00  0.00     0.301 C 
HETATM    8  O   UNL     1     -43.316  61.479 -57.142  1.00  0.00    -0.259 OA
BRANCH   7   9
HETATM    9  C   UNL     1     -42.093  61.110 -59.166  1.00  0.00     0.091 A 
HETATM   10  S   UNL     1     -41.470  62.647 -59.620  1.00  0.00    -0.095 SA
HETATM   11  C   UNL     1     -41.226  62.158 -61.235  1.00  0.00     0.051 A 
HETATM   12  C   UNL     1     -41.654  60.869 -61.449  1.00  0.00     0.021 A 
HETATM   13  C   UNL     1     -42.182  60.258 -60.262  1.00  0.00    -0.002 A 
BRANCH  13  14
HETATM   14  C   UNL     1     -42.767  58.923 -60.203  1.00  0.00    -0.024 A 
HETATM   15  C   UNL     1     -41.940  57.801 -60.079  1.00  0.00     0.012 A 
HETATM   16  C   UNL     1     -42.494  56.519 -60.050  1.00  0.00     0.001 A 
HETATM   17  C   UNL     1     -43.874  56.352 -60.148  1.00  0.00     0.000 A 
HETATM   18  C   UNL     1     -44.704  57.465 -60.279  1.00  0.00     0.001 A 
HETATM   19  C   UNL     1     -44.153  58.747 -60.313  1.00  0.00     0.012 A 
ENDBRANCH  13  14
ENDBRANCH   7   9
ENDBRANCH   6   7
ENDBRANCH   5   6
ENDBRANCH   2   5
BRANCH   1  20
HETATM   20  C   UNL     1     -42.597  55.610 -56.709  1.00  0.00     0.225 C 
BRANCH  20  21
HETATM   21  C   UNL     1     -42.496  54.535 -55.619  1.00  0.00     0.239 C 
HETATM   22  N   UNL     1     -41.209  54.387 -55.133  1.00  0.00    -0.323 N 
HETATM   23  H   UNL     1     -40.507  55.066 -55.409  1.00  0.00     0.169 HD
HETATM   24  O   UNL     1     -43.498  53.989 -55.166  1.00  0.00    -0.271 OA
BRANCH  22  25
HETATM   25  C   UNL     1     -40.744  53.456 -54.179  1.00  0.00     0.069 A 
HETATM   26  C   UNL     1     -40.378  52.148 -54.505  1.00  0.00     0.039 A 
HETATM   27  C   UNL     1     -39.860  51.289 -53.526  1.00  0.00    -0.060 A 
HETATM   28  C   UNL     1     -39.476  49.884 -53.883  1.00  0.00     0.048 C 
HETATM   29  C   UNL     1     -39.747  51.743 -52.208  1.00  0.00     0.009 A 
HETATM   30  C   UNL     1     -40.118  53.048 -51.872  1.00  0.00     0.039 A 
HETATM   31  C   UNL     1     -40.614  53.911 -52.850  1.00  0.00     0.095 A 
BRANCH  31  32
HETATM   32  O   UNL     1     -41.006  55.213 -52.629  1.00  0.00    -0.354 OA
HETATM   33  C   UNL     1     -42.045  55.414 -51.678  1.00  0.00     0.210 C 
ENDBRANCH  31  32
ENDBRANCH  22  25
ENDBRANCH  20  21
ENDBRANCH   1  20
TORSDOF 9
ENDMDL
MODEL 7
REMARK VINA RESULT:      -7.7      2.758      7.411
REMARK  9 active torsions:
REMARK  status: ('A' for Active; 'I' for Inactive)
REMARK    1  A    between atoms: C_4  and  N_5 
REMARK       I    between atoms: N_5  and  C_6 
REMARK    2  A    between atoms: C_6  and  C_7 
REMARK    3  A    between atoms: C_7  and  N_8 
REMARK       I    between atoms: N_8  and  C_9 
REMARK    4  A    between atoms: C_9  and  C_10 
REMARK    5  A    between atoms: C_10  and  O_11 
REMARK    6  A    between atoms: O_11  and  C_12 
REMARK    7  A    between atoms: C_12  and  C_13 
REMARK    8  A    between atoms: C_17  and  C_18 
REMARK    9  A    between atoms: C_27  and  O_28 
ROOT
HETATM    1  N   UNL     1     -42.767  58.928 -53.027  1.00  0.00    -0.350 N 
HETATM    2  C   UNL     1     -41.715  59.459 -53.744  1.00  0.00     0.242 C 
HETATM    3  O   UNL     1     -40.538  59.192 -53.520  1.00  0.00    -0.271 OA
HETATM    4  H   UNL     1     -43.657  59.419 -53.115  1.00  0.00     0.163 HD
ENDROOT
BRANCH   2   5
HETATM    5  C   UNL     1     -42.135  60.418 -54.862  1.00  0.00     0.281 C 
BRANCH   5   6
HETATM    6  O   UNL     1     -41.669  60.023 -56.150  1.00  0.00    -0.308 OA
BRANCH   6   7
HETATM    7  C   UNL     1     -42.626  59.591 -57.017  1.00  0.00     0.301 C 
HETATM    8  O   UNL     1     -43.616  58.953 -56.664  1.00  0.00    -0.259 OA
BRANCH   7   9
HETATM    9  C   UNL     1     -42.316  60.025 -58.364  1.00  0.00     0.091 A 
HETATM   10  S   UNL     1     -41.625  61.588 -58.553  1.00  0.00    -0.095 SA
HETATM   11  C   UNL     1     -41.444  61.389 -60.237  1.00  0.00     0.051 A 
HETATM   12  C   UNL     1     -41.944  60.182 -60.666  1.00  0.00     0.021 A 
HETATM   13  C   UNL     1     -42.475  59.391 -59.592  1.00  0.00    -0.002 A 
BRANCH  13  14
HETATM   14  C   UNL     1     -43.127  58.097 -59.755  1.00  0.00    -0.024 A 
HETATM   15  C   UNL     1     -42.389  56.917 -59.605  1.00  0.00     0.012 A 
HETATM   16  C   UNL     1     -43.003  55.675 -59.788  1.00  0.00     0.001 A 
HETATM   17  C   UNL     1     -44.354  55.607 -60.124  1.00  0.00     0.000 A 
HETATM   18  C   UNL     1     -45.094  56.778 -60.283  1.00  0.00     0.001 A 
HETATM   19  C   UNL     1     -44.482  58.021 -60.106  1.00  0.00     0.012 A 
ENDBRANCH  13  14
ENDBRANCH   7   9
ENDBRANCH   6   7
ENDBRANCH   5   6
ENDBRANCH   2   5
BRANCH   1  20
HETATM   20  C   UNL     1     -42.527  58.154 -51.818  1.00  0.00     0.225 C 
BRANCH  20  21
HETATM   21  C   UNL     1     -42.461  56.649 -52.111  1.00  0.00     0.239 C 
HETATM   22  N   UNL     1     -41.221  56.251 -52.578  1.00  0.00    -0.323 N 
HETATM   23  H   UNL     1     -40.455  56.916 -52.545  1.00  0.00     0.169 HD
HETATM   24  O   UNL     1     -43.389  55.901 -51.819  1.00  0.00    -0.271 OA
BRANCH  22  25
HETATM   25  C   UNL     1     -40.827  54.964 -53.002  1.00  0.00     0.069 A 
HETATM   26  C   UNL     1     -40.489  53.938 -52.116  1.00  0.00     0.039 A 
HETATM   27  C   UNL     1     -40.169  52.660 -52.594  1.00  0.00    -0.060 A 
HETATM   28  C   UNL     1     -39.800  51.567 -51.635  1.00  0.00     0.048 C 
HETATM   29  C   UNL     1     -40.154  52.430 -53.973  1.00  0.00     0.009 A 
HETATM   30  C   UNL     1     -40.484  53.452 -54.868  1.00  0.00     0.039 A 
HETATM   31  C   UNL     1     -40.823  54.719 -54.392  1.00  0.00     0.095 A 
BRANCH  31  32
HETATM   32  O   UNL     1     -41.164  55.794 -55.182  1.00  0.00    -0.354 OA
HETATM   33  C   UNL     1     -42.347  55.665 -55.961  1.00  0.00     0.210 C 
ENDBRANCH  31  32
ENDBRANCH  22  25
ENDBRANCH  20  21
ENDBRANCH   1  20
TORSDOF 9
ENDMDL
MODEL 8
REMARK VINA RESULT:      -7.7      4.182      7.359
REMARK  9 active torsions:
REMARK  status: ('A' for Active; 'I' for Inactive)
REMARK    1  A    between atoms: C_4  and  N_5 
REMARK       I    between atoms: N_5  and  C_6 
REMARK    2  A    between atoms: C_6  and  C_7 
REMARK    3  A    between atoms: C_7  and  N_8 
REMARK       I    between atoms: N_8  and  C_9 
REMARK    4  A    between atoms: C_9  and  C_10 
REMARK    5  A    between atoms: C_10  and  O_11 
REMARK    6  A    between atoms: O_11  and  C_12 
REMARK    7  A    between atoms: C_12  and  C_13 
REMARK    8  A    between atoms: C_17  and  C_18 
REMARK    9  A    between atoms: C_27  and  O_28 
ROOT
HETATM    1  N   UNL     1     -44.042  56.595 -50.663  1.00  0.00    -0.350 N 
HETATM    2  C   UNL     1     -42.705  56.278 -50.796  1.00  0.00     0.242 C 
HETATM    3  O   UNL     1     -41.930  56.896 -51.519  1.00  0.00    -0.271 OA
HETATM    4  H   UNL     1     -44.634  55.867 -50.264  1.00  0.00     0.163 HD
ENDROOT
BRANCH   2   5
HETATM    5  C   UNL     1     -42.256  55.080 -49.955  1.00  0.00     0.281 C 
BRANCH   5   6
HETATM    6  O   UNL     1     -41.921  53.935 -50.735  1.00  0.00    -0.308 OA
BRANCH   6   7
HETATM    7  C   UNL     1     -40.591  53.736 -50.950  1.00  0.00     0.301 C 
HETATM    8  O   UNL     1     -39.714  54.189 -50.217  1.00  0.00    -0.259 OA
BRANCH   7   9
HETATM    9  C   UNL     1     -40.391  52.902 -52.118  1.00  0.00     0.091 A 
HETATM   10  S   UNL     1     -39.462  51.469 -51.919  1.00  0.00    -0.095 SA
HETATM   11  C   UNL     1     -39.719  50.985 -53.533  1.00  0.00     0.051 A 
HETATM   12  C   UNL     1     -40.452  51.913 -54.235  1.00  0.00     0.021 A 
HETATM   13  C   UNL     1     -40.828  53.042 -53.431  1.00  0.00    -0.002 A 
BRANCH  13  14
HETATM   14  C   UNL     1     -41.552  54.209 -53.922  1.00  0.00    -0.024 A 
HETATM   15  C   UNL     1     -42.951  54.235 -53.876  1.00  0.00     0.012 A 
HETATM   16  C   UNL     1     -43.650  55.339 -54.371  1.00  0.00     0.001 A 
HETATM   17  C   UNL     1     -42.956  56.418 -54.917  1.00  0.00     0.000 A 
HETATM   18  C   UNL     1     -41.563  56.396 -54.973  1.00  0.00     0.001 A 
HETATM   19  C   UNL     1     -40.862  55.292 -54.484  1.00  0.00     0.012 A 
ENDBRANCH  13  14
ENDBRANCH   7   9
ENDBRANCH   6   7
ENDBRANCH   5   6
ENDBRANCH   2   5
BRANCH   1  20
HETATM   20  C   UNL     1     -44.662  57.582 -51.535  1.00  0.00     0.225 C 
BRANCH  20  21
HETATM   21  C   UNL     1     -45.224  58.768 -50.741  1.00  0.00     0.239 C 
HETATM   22  N   UNL     1     -44.271  59.735 -50.478  1.00  0.00    -0.323 N 
HETATM   23  H   UNL     1     -43.368  59.661 -50.935  1.00  0.00     0.169 HD
HETATM   24  O   UNL     1     -46.426  58.866 -50.505  1.00  0.00    -0.271 OA
BRANCH  22  25
HETATM   25  C   UNL     1     -44.421  60.919 -49.724  1.00  0.00     0.069 A 
HETATM   26  C   UNL     1     -44.816  60.926 -48.384  1.00  0.00     0.039 A 
HETATM   27  C   UNL     1     -44.883  62.129 -47.668  1.00  0.00    -0.060 A 
HETATM   28  C   UNL     1     -45.315  62.127 -46.231  1.00  0.00     0.048 C 
HETATM   29  C   UNL     1     -44.587  63.330 -48.320  1.00  0.00     0.009 A 
HETATM   30  C   UNL     1     -44.198  63.334 -49.661  1.00  0.00     0.039 A 
HETATM   31  C   UNL     1     -44.110  62.134 -50.370  1.00  0.00     0.095 A 
BRANCH  31  32
HETATM   32  O   UNL     1     -43.738  62.023 -51.692  1.00  0.00    -0.354 OA
HETATM   33  C   UNL     1     -44.237  63.014 -52.581  1.00  0.00     0.210 C 
ENDBRANCH  31  32
ENDBRANCH  22  25
ENDBRANCH  20  21
ENDBRANCH   1  20
TORSDOF 9
ENDMDL
MODEL 9
REMARK VINA RESULT:      -7.6      2.342      7.446
REMARK  9 active torsions:
REMARK  status: ('A' for Active; 'I' for Inactive)
REMARK    1  A    between atoms: C_4  and  N_5 
REMARK       I    between atoms: N_5  and  C_6 
REMARK    2  A    between atoms: C_6  and  C_7 
REMARK    3  A    between atoms: C_7  and  N_8 
REMARK       I    between atoms: N_8  and  C_9 
REMARK    4  A    between atoms: C_9  and  C_10 
REMARK    5  A    between atoms: C_10  and  O_11 
REMARK    6  A    between atoms: O_11  and  C_12 
REMARK    7  A    between atoms: C_12  and  C_13 
REMARK    8  A    between atoms: C_17  and  C_18 
REMARK    9  A    between atoms: C_27  and  O_28 
ROOT
HETATM    1  N   UNL     1     -42.912  57.215 -52.325  1.00  0.00    -0.350 N 
HETATM    2  C   UNL     1     -44.251  57.542 -52.260  1.00  0.00     0.242 C 
HETATM    3  O   UNL     1     -44.936  57.401 -51.252  1.00  0.00    -0.271 OA
HETATM    4  H   UNL     1     -42.524  57.116 -53.262  1.00  0.00     0.163 HD
ENDROOT
BRANCH   2   5
HETATM    5  C   UNL     1     -44.824  58.109 -53.562  1.00  0.00     0.281 C 
BRANCH   5   6
HETATM    6  O   UNL     1     -44.100  57.704 -54.721  1.00  0.00    -0.308 OA
BRANCH   6   7
HETATM    7  C   UNL     1     -44.655  58.053 -55.915  1.00  0.00     0.301 C 
HETATM    8  O   UNL     1     -45.863  57.998 -56.139  1.00  0.00    -0.259 OA
BRANCH   7   9
HETATM    9  C   UNL     1     -43.631  58.519 -56.828  1.00  0.00     0.091 A 
HETATM   10  S   UNL     1     -42.691  59.874 -56.340  1.00  0.00    -0.095 SA
HETATM   11  C   UNL     1     -41.708  59.792 -57.730  1.00  0.00     0.051 A 
HETATM   12  C   UNL     1     -42.110  58.789 -58.581  1.00  0.00     0.021 A 
HETATM   13  C   UNL     1     -43.239  58.059 -58.081  1.00  0.00    -0.002 A 
BRANCH  13  14
HETATM   14  C   UNL     1     -43.920  56.985 -58.796  1.00  0.00    -0.024 A 
HETATM   15  C   UNL     1     -45.083  57.257 -59.525  1.00  0.00     0.012 A 
HETATM   16  C   UNL     1     -45.755  56.227 -60.188  1.00  0.00     0.001 A 
HETATM   17  C   UNL     1     -45.269  54.922 -60.123  1.00  0.00     0.000 A 
HETATM   18  C   UNL     1     -44.115  54.641 -59.393  1.00  0.00     0.001 A 
HETATM   19  C   UNL     1     -43.444  55.668 -58.725  1.00  0.00     0.012 A 
ENDBRANCH  13  14
ENDBRANCH   7   9
ENDBRANCH   6   7
ENDBRANCH   5   6
ENDBRANCH   2   5
BRANCH   1  20
HETATM   20  C   UNL     1     -42.270  56.493 -51.236  1.00  0.00     0.225 C 
BRANCH  20  21
HETATM   21  C   UNL     1     -42.156  54.993 -51.538  1.00  0.00     0.239 C 
HETATM   22  N   UNL     1     -40.913  54.641 -52.030  1.00  0.00    -0.323 N 
HETATM   23  H   UNL     1     -40.170  55.332 -52.009  1.00  0.00     0.169 HD
HETATM   24  O   UNL     1     -43.052  54.212 -51.231  1.00  0.00    -0.271 OA
BRANCH  22  25
HETATM   25  C   UNL     1     -40.482  53.370 -52.468  1.00  0.00     0.069 A 
HETATM   26  C   UNL     1     -40.102  52.349 -51.593  1.00  0.00     0.039 A 
HETATM   27  C   UNL     1     -39.747  51.085 -52.084  1.00  0.00    -0.060 A 
HETATM   28  C   UNL     1     -39.334  49.998 -51.137  1.00  0.00     0.048 C 
HETATM   29  C   UNL     1     -39.740  50.866 -53.465  1.00  0.00     0.009 A 
HETATM   30  C   UNL     1     -40.111  51.883 -54.348  1.00  0.00     0.039 A 
HETATM   31  C   UNL     1     -40.486  53.136 -53.860  1.00  0.00     0.095 A 
BRANCH  31  32
HETATM   32  O   UNL     1     -40.869  54.205 -54.638  1.00  0.00    -0.354 OA
HETATM   33  C   UNL     1     -42.189  54.170 -55.166  1.00  0.00     0.210 C 
ENDBRANCH  31  32
ENDBRANCH  22  25
ENDBRANCH  20  21
ENDBRANCH   1  20
TORSDOF 9
ENDMDL
MODEL 10
REMARK VINA RESULT:      -7.5      3.016      8.615
REMARK  9 active torsions:
REMARK  status: ('A' for Active; 'I' for Inactive)
REMARK    1  A    between atoms: C_4  and  N_5 
REMARK       I    between atoms: N_5  and  C_6 
REMARK    2  A    between atoms: C_6  and  C_7 
REMARK    3  A    between atoms: C_7  and  N_8 
REMARK       I    between atoms: N_8  and  C_9 
REMARK    4  A    between atoms: C_9  and  C_10 
REMARK    5  A    between atoms: C_10  and  O_11 
REMARK    6  A    between atoms: O_11  and  C_12 
REMARK    7  A    between atoms: C_12  and  C_13 
REMARK    8  A    between atoms: C_17  and  C_18 
REMARK    9  A    between atoms: C_27  and  O_28 
ROOT
HETATM    1  N   UNL     1     -41.974  56.728 -55.389  1.00  0.00    -0.350 N 
HETATM    2  C   UNL     1     -42.677  57.650 -56.138  1.00  0.00     0.242 C 
HETATM    3  O   UNL     1     -43.473  58.449 -55.655  1.00  0.00    -0.271 OA
HETATM    4  H   UNL     1     -41.563  55.953 -55.911  1.00  0.00     0.163 HD
ENDROOT
BRANCH   2   5
HETATM    5  C   UNL     1     -42.377  57.603 -57.638  1.00  0.00     0.281 C 
BRANCH   5   6
HETATM    6  O   UNL     1     -42.868  56.426 -58.276  1.00  0.00    -0.308 OA
BRANCH   6   7
HETATM    7  C   UNL     1     -43.015  56.505 -59.628  1.00  0.00     0.301 C 
HETATM    8  O   UNL     1     -42.076  56.412 -60.415  1.00  0.00    -0.259 OA
BRANCH   7   9
HETATM    9  C   UNL     1     -44.413  56.672 -59.971  1.00  0.00     0.091 A 
HETATM   10  S   UNL     1     -45.327  55.250 -60.285  1.00  0.00    -0.095 SA
HETATM   11  C   UNL     1     -46.772  56.130 -60.491  1.00  0.00     0.051 A 
HETATM   12  C   UNL     1     -46.566  57.485 -60.376  1.00  0.00     0.021 A 
HETATM   13  C   UNL     1     -45.197  57.814 -60.098  1.00  0.00    -0.002 A 
BRANCH  13  14
HETATM   14  C   UNL     1     -44.672  59.171 -59.988  1.00  0.00    -0.024 A 
HETATM   15  C   UNL     1     -44.930  59.931 -58.842  1.00  0.00     0.012 A 
HETATM   16  C   UNL     1     -44.454  61.240 -58.744  1.00  0.00     0.001 A 
HETATM   17  C   UNL     1     -43.722  61.797 -59.791  1.00  0.00     0.000 A 
HETATM   18  C   UNL     1     -43.467  61.049 -60.940  1.00  0.00     0.001 A 
HETATM   19  C   UNL     1     -43.946  59.742 -61.043  1.00  0.00     0.012 A 
ENDBRANCH  13  14
ENDBRANCH   7   9
ENDBRANCH   6   7
ENDBRANCH   5   6
ENDBRANCH   2   5
BRANCH   1  20
HETATM   20  C   UNL     1     -42.286  56.519 -53.983  1.00  0.00     0.225 C 
BRANCH  20  21
HETATM   21  C   UNL     1     -42.227  55.034 -53.602  1.00  0.00     0.239 C 
HETATM   22  N   UNL     1     -40.954  54.623 -53.251  1.00  0.00    -0.323 N 
HETATM   23  H   UNL     1     -40.234  55.328 -53.132  1.00  0.00     0.169 HD
HETATM   24  O   UNL     1     -43.249  54.360 -53.504  1.00  0.00    -0.271 OA
BRANCH  22  25
HETATM   25  C   UNL     1     -40.526  53.322 -52.909  1.00  0.00     0.069 A 
HETATM   26  C   UNL     1     -40.312  52.316 -53.854  1.00  0.00     0.039 A 
HETATM   27  C   UNL     1     -39.822  51.063 -53.462  1.00  0.00    -0.060 A 
HETATM   28  C   UNL     1     -39.602  49.986 -54.483  1.00  0.00     0.048 C 
HETATM   29  C   UNL     1     -39.585  50.815 -52.106  1.00  0.00     0.009 A 
HETATM   30  C   UNL     1     -39.804  51.813 -51.153  1.00  0.00     0.039 A 
HETATM   31  C   UNL     1     -40.271  53.069 -51.545  1.00  0.00     0.095 A 
BRANCH  31  32
HETATM   32  O   UNL     1     -40.519  54.121 -50.691  1.00  0.00    -0.354 OA
HETATM   33  C   UNL     1     -39.638  54.267 -49.584  1.00  0.00     0.210 C 
ENDBRANCH  31  32
ENDBRANCH  22  25
ENDBRANCH  20  21
ENDBRANCH   1  20
TORSDOF 9
ENDMDL
