MODEL 1
REMARK VINA RESULT:      -8.3      0.000      0.000
REMARK  3 active torsions:
REMARK  status: ('A' for Active; 'I' for Inactive)
REMARK    1  A    between atoms: C_4  and  N_5 
REMARK       I    between atoms: N_5  and  C_6 
REMARK    2  A    between atoms: C_6  and  C_7 
REMARK    3  A    between atoms: C_7  and  C_8 
ROOT
HETATM    1  C   UNL     1     -42.841  56.239 -55.731  1.00  0.00     0.286 C 
HETATM    2  N   UNL     1     -42.072  56.575 -57.008  1.00  0.00    -0.056 N 
HETATM    3  H   UNL     1     -41.611  57.493 -56.820  1.00  0.00     0.278 HD
HETATM    4  H   UNL     1     -41.306  55.911 -57.166  1.00  0.00     0.278 HD
HETATM    5  C   UNL     1     -42.908  56.759 -58.241  1.00  0.00     0.209 C 
HETATM    6  C   UNL     1     -44.053  57.756 -57.944  1.00  0.00     0.115 C 
HETATM    7  N   UNL     1     -44.798  57.411 -56.734  1.00  0.00    -0.353 N 
HETATM    8  C   UNL     1     -44.184  56.982 -55.585  1.00  0.00     0.249 C 
HETATM    9  O   UNL     1     -44.748  57.107 -54.502  1.00  0.00    -0.271 OA
HETATM   10  C   UNL     1     -43.406  55.404 -58.745  1.00  0.00     0.035 C 
HETATM   11  C   UNL     1     -44.316  55.583 -59.959  1.00  0.00     0.002 C 
HETATM   12  C   UNL     1     -45.479  56.525 -59.656  1.00  0.00     0.002 C 
HETATM   13  C   UNL     1     -44.993  57.881 -59.146  1.00  0.00     0.027 C 
HETATM   14  H   UNL     1     -45.653  57.930 -56.541  1.00  0.00     0.163 HD
ENDROOT
BRANCH   1  15
HETATM   15  C   UNL     1     -41.971  56.476 -54.485  1.00  0.00     0.146 C 
BRANCH  15  16
HETATM   16  C   UNL     1     -41.021  55.313 -54.287  1.00  0.00     0.224 C 
HETATM   17  N   UNL     1     -41.455  54.376 -53.383  1.00  0.00    -0.327 N 
HETATM   18  H   UNL     1     -42.308  54.566 -52.868  1.00  0.00     0.169 HD
HETATM   19  O   UNL     1     -40.000  55.274 -54.976  1.00  0.00    -0.273 OA
BRANCH  17  20
HETATM   20  C   UNL     1     -40.811  53.165 -53.033  1.00  0.00     0.035 A 
HETATM   21  C   UNL     1     -40.520  52.143 -53.939  1.00  0.00     0.036 A 
HETATM   22  C   UNL     1     -39.884  50.963 -53.518  1.00  0.00    -0.060 A 
HETATM   23  C   UNL     1     -39.560  49.888 -54.516  1.00  0.00     0.048 C 
HETATM   24  C   UNL     1     -39.525  50.820 -52.175  1.00  0.00     0.007 A 
HETATM   25  C   UNL     1     -39.813  51.834 -51.264  1.00  0.00     0.003 A 
HETATM   26  C   UNL     1     -40.455  52.999 -51.690  1.00  0.00     0.029 A 
ENDBRANCH  17  20
ENDBRANCH  15  16
ENDBRANCH   1  15
TORSDOF 3
ENDMDL
MODEL 2
REMARK VINA RESULT:      -7.8      3.163      5.040
REMARK  3 active torsions:
REMARK  status: ('A' for Active; 'I' for Inactive)
REMARK    1  A    between atoms: C_4  and  N_5 
REMARK       I    between atoms: N_5  and  C_6 
REMARK    2  A    between atoms: C_6  and  C_7 
REMARK    3  A    between atoms: C_7  and  C_8 
ROOT
HETATM    1  C   UNL     1     -43.322  57.554 -53.471  1.00  0.00     0.286 C 
HETATM    2  N   UNL     1     -42.274  58.610 -53.818  1.00  0.00    -0.056 N 
HETATM    3  H   UNL     1     -41.378  58.086 -53.928  1.00  0.00     0.278 HD
HETATM    4  H   UNL     1     -42.460  59.031 -54.735  1.00  0.00     0.278 HD
HETATM    5  C   UNL     1     -42.033  59.656 -52.768  1.00  0.00     0.209 C 
HETATM    6  C   UNL     1     -41.772  58.969 -51.406  1.00  0.00     0.115 C 
HETATM    7  N   UNL     1     -42.794  57.979 -51.073  1.00  0.00    -0.353 N 
HETATM    8  C   UNL     1     -43.305  57.102 -51.997  1.00  0.00     0.249 C 
HETATM    9  O   UNL     1     -43.812  56.048 -51.630  1.00  0.00    -0.271 OA
HETATM   10  C   UNL     1     -43.199  60.643 -52.731  1.00  0.00     0.035 C 
HETATM   11  C   UNL     1     -43.000  61.671 -51.620  1.00  0.00     0.002 C 
HETATM   12  C   UNL     1     -42.795  61.001 -50.264  1.00  0.00     0.002 C 
HETATM   13  C   UNL     1     -41.633  60.008 -50.290  1.00  0.00     0.027 C 
HETATM   14  H   UNL     1     -42.780  57.581 -50.135  1.00  0.00     0.163 HD
ENDROOT
BRANCH   1  15
HETATM   15  C   UNL     1     -43.200  56.332 -54.396  1.00  0.00     0.146 C 
BRANCH  15  16
HETATM   16  C   UNL     1     -41.959  55.536 -54.044  1.00  0.00     0.224 C 
HETATM   17  N   UNL     1     -42.212  54.270 -53.579  1.00  0.00    -0.327 N 
HETATM   18  H   UNL     1     -43.179  54.000 -53.428  1.00  0.00     0.169 HD
HETATM   19  O   UNL     1     -40.861  56.052 -54.257  1.00  0.00    -0.273 OA
BRANCH  17  20
HETATM   20  C   UNL     1     -41.260  53.286 -53.224  1.00  0.00     0.035 A 
HETATM   21  C   UNL     1     -40.903  52.211 -54.042  1.00  0.00     0.036 A 
HETATM   22  C   UNL     1     -39.954  51.265 -53.621  1.00  0.00    -0.060 A 
HETATM   23  C   UNL     1     -39.570  50.132 -54.528  1.00  0.00     0.048 C 
HETATM   24  C   UNL     1     -39.348  51.414 -52.371  1.00  0.00     0.007 A 
HETATM   25  C   UNL     1     -39.698  52.482 -51.547  1.00  0.00     0.003 A 
HETATM   26  C   UNL     1     -40.651  53.411 -51.971  1.00  0.00     0.029 A 
ENDBRANCH  17  20
ENDBRANCH  15  16
ENDBRANCH   1  15
TORSDOF 3
ENDMDL
MODEL 3
REMARK VINA RESULT:      -7.8      1.482      1.861
REMARK  3 active torsions:
REMARK  status: ('A' for Active; 'I' for Inactive)
REMARK    1  A    between atoms: C_4  and  N_5 
REMARK       I    between atoms: N_5  and  C_6 
REMARK    2  A    between atoms: C_6  and  C_7 
REMARK    3  A    between atoms: C_7  and  C_8 
ROOT
HETATM    1  C   UNL     1     -42.507  56.938 -55.917  1.00  0.00     0.286 C 
HETATM    2  N   UNL     1     -43.061  58.330 -56.217  1.00  0.00    -0.056 N 
HETATM    3  H   UNL     1     -43.989  58.368 -55.741  1.00  0.00     0.278 HD
HETATM    4  H   UNL     1     -42.493  59.059 -55.770  1.00  0.00     0.278 HD
HETATM    5  C   UNL     1     -43.309  58.633 -57.666  1.00  0.00     0.209 C 
HETATM    6  C   UNL     1     -44.154  57.498 -58.292  1.00  0.00     0.115 C 
HETATM    7  N   UNL     1     -43.602  56.172 -58.021  1.00  0.00    -0.353 N 
HETATM    8  C   UNL     1     -43.100  55.817 -56.794  1.00  0.00     0.249 C 
HETATM    9  O   UNL     1     -43.044  54.635 -56.471  1.00  0.00    -0.271 OA
HETATM   10  C   UNL     1     -41.982  58.865 -58.390  1.00  0.00     0.035 C 
HETATM   11  C   UNL     1     -42.216  59.105 -59.879  1.00  0.00     0.002 C 
HETATM   12  C   UNL     1     -43.004  57.962 -60.516  1.00  0.00     0.002 C 
HETATM   13  C   UNL     1     -44.331  57.718 -59.797  1.00  0.00     0.027 C 
HETATM   14  H   UNL     1     -44.013  55.379 -58.511  1.00  0.00     0.163 HD
ENDROOT
BRANCH   1  15
HETATM   15  C   UNL     1     -42.677  56.586 -54.430  1.00  0.00     0.146 C 
BRANCH  15  16
HETATM   16  C   UNL     1     -41.550  55.678 -53.980  1.00  0.00     0.224 C 
HETATM   17  N   UNL     1     -41.943  54.400 -53.670  1.00  0.00    -0.327 N 
HETATM   18  H   UNL     1     -42.935  54.188 -53.681  1.00  0.00     0.169 HD
HETATM   19  O   UNL     1     -40.403  56.129 -53.989  1.00  0.00    -0.273 OA
BRANCH  17  20
HETATM   20  C   UNL     1     -41.113  53.324 -53.274  1.00  0.00     0.035 A 
HETATM   21  C   UNL     1     -40.805  52.233 -54.090  1.00  0.00     0.036 A 
HETATM   22  C   UNL     1     -39.979  51.195 -53.626  1.00  0.00    -0.060 A 
HETATM   23  C   UNL     1     -39.643  50.044 -54.530  1.00  0.00     0.048 C 
HETATM   24  C   UNL     1     -39.446  51.267 -52.337  1.00  0.00     0.007 A 
HETATM   25  C   UNL     1     -39.750  52.352 -51.516  1.00  0.00     0.003 A 
HETATM   26  C   UNL     1     -40.581  53.373 -51.981  1.00  0.00     0.029 A 
ENDBRANCH  17  20
ENDBRANCH  15  16
ENDBRANCH   1  15
TORSDOF 3
ENDMDL
MODEL 4
REMARK VINA RESULT:      -7.6      2.989      5.031
REMARK  3 active torsions:
REMARK  status: ('A' for Active; 'I' for Inactive)
REMARK    1  A    between atoms: C_4  and  N_5 
REMARK       I    between atoms: N_5  and  C_6 
REMARK    2  A    between atoms: C_6  and  C_7 
REMARK    3  A    between atoms: C_7  and  C_8 
ROOT
HETATM    1  C   UNL     1     -42.109  57.457 -53.880  1.00  0.00     0.286 C 
HETATM    2  N   UNL     1     -42.295  56.933 -52.457  1.00  0.00    -0.056 N 
HETATM    3  H   UNL     1     -43.214  56.438 -52.461  1.00  0.00     0.278 HD
HETATM    4  H   UNL     1     -41.598  56.214 -52.232  1.00  0.00     0.278 HD
HETATM    5  C   UNL     1     -42.376  57.980 -51.385  1.00  0.00     0.209 C 
HETATM    6  C   UNL     1     -43.428  59.043 -51.781  1.00  0.00     0.115 C 
HETATM    7  N   UNL     1     -43.226  59.555 -53.134  1.00  0.00    -0.353 N 
HETATM    8  C   UNL     1     -42.898  58.744 -54.191  1.00  0.00     0.249 C 
HETATM    9  O   UNL     1     -43.146  59.098 -55.339  1.00  0.00    -0.271 OA
HETATM   10  C   UNL     1     -40.992  58.573 -51.122  1.00  0.00     0.035 C 
HETATM   11  C   UNL     1     -41.072  59.689 -50.083  1.00  0.00     0.002 C 
HETATM   12  C   UNL     1     -42.070  60.768 -50.493  1.00  0.00     0.002 C 
HETATM   13  C   UNL     1     -43.457  60.187 -50.763  1.00  0.00     0.027 C 
HETATM   14  H   UNL     1     -43.784  60.356 -53.426  1.00  0.00     0.163 HD
ENDROOT
BRANCH   1  15
HETATM   15  C   UNL     1     -42.447  56.371 -54.915  1.00  0.00     0.146 C 
BRANCH  15  16
HETATM   16  C   UNL     1     -42.282  54.996 -54.299  1.00  0.00     0.224 C 
HETATM   17  N   UNL     1     -40.980  54.573 -54.200  1.00  0.00    -0.327 N 
HETATM   18  H   UNL     1     -40.255  55.153 -54.611  1.00  0.00     0.169 HD
HETATM   19  O   UNL     1     -43.291  54.418 -53.893  1.00  0.00    -0.273 OA
BRANCH  17  20
HETATM   20  C   UNL     1     -40.516  53.367 -53.624  1.00  0.00     0.035 A 
HETATM   21  C   UNL     1     -40.298  52.189 -54.343  1.00  0.00     0.036 A 
HETATM   22  C   UNL     1     -39.843  51.025 -53.703  1.00  0.00    -0.060 A 
HETATM   23  C   UNL     1     -39.595  49.778 -54.502  1.00  0.00     0.048 C 
HETATM   24  C   UNL     1     -39.588  51.054 -52.330  1.00  0.00     0.007 A 
HETATM   25  C   UNL     1     -39.803  52.224 -51.604  1.00  0.00     0.003 A 
HETATM   26  C   UNL     1     -40.267  53.373 -52.247  1.00  0.00     0.029 A 
ENDBRANCH  17  20
ENDBRANCH  15  16
ENDBRANCH   1  15
TORSDOF 3
ENDMDL
MODEL 5
REMARK VINA RESULT:      -7.5     14.252     17.473
REMARK  3 active torsions:
REMARK  status: ('A' for Active; 'I' for Inactive)
REMARK    1  A    between atoms: C_4  and  N_5 
REMARK       I    between atoms: N_5  and  C_6 
REMARK    2  A    between atoms: C_6  and  C_7 
REMARK    3  A    between atoms: C_7  and  C_8 
ROOT
HETATM    1  C   UNL     1     -35.645  41.180 -52.178  1.00  0.00     0.286 C 
HETATM    2  N   UNL     1     -34.218  41.717 -52.274  1.00  0.00    -0.056 N 
HETATM    3  H   UNL     1     -34.053  41.886 -53.291  1.00  0.00     0.278 HD
HETATM    4  H   UNL     1     -34.136  42.637 -51.826  1.00  0.00     0.278 HD
HETATM    5  C   UNL     1     -33.139  40.780 -51.815  1.00  0.00     0.209 C 
HETATM    6  C   UNL     1     -33.318  39.408 -52.508  1.00  0.00     0.115 C 
HETATM    7  N   UNL     1     -34.680  38.893 -52.389  1.00  0.00    -0.353 N 
HETATM    8  C   UNL     1     -35.788  39.688 -52.539  1.00  0.00     0.249 C 
HETATM    9  O   UNL     1     -36.864  39.191 -52.853  1.00  0.00    -0.271 OA
HETATM   10  C   UNL     1     -33.138  40.687 -50.289  1.00  0.00     0.035 C 
HETATM   11  C   UNL     1     -32.091  39.683 -49.811  1.00  0.00     0.002 C 
HETATM   12  C   UNL     1     -32.294  38.312 -50.451  1.00  0.00     0.002 C 
HETATM   13  C   UNL     1     -32.301  38.393 -51.978  1.00  0.00     0.027 C 
HETATM   14  H   UNL     1     -34.852  37.935 -52.692  1.00  0.00     0.163 HD
ENDROOT
BRANCH   1  15
HETATM   15  C   UNL     1     -36.608  42.021 -53.033  1.00  0.00     0.146 C 
BRANCH  15  16
HETATM   16  C   UNL     1     -36.342  41.780 -54.505  1.00  0.00     0.224 C 
HETATM   17  N   UNL     1     -37.401  41.242 -55.191  1.00  0.00    -0.327 N 
HETATM   18  H   UNL     1     -38.226  40.973 -54.664  1.00  0.00     0.169 HD
HETATM   19  O   UNL     1     -35.254  42.134 -54.962  1.00  0.00    -0.273 OA
BRANCH  17  20
HETATM   20  C   UNL     1     -37.467  40.958 -56.575  1.00  0.00     0.035 A 
HETATM   21  C   UNL     1     -37.358  41.924 -57.578  1.00  0.00     0.036 A 
HETATM   22  C   UNL     1     -37.440  41.570 -58.935  1.00  0.00    -0.060 A 
HETATM   23  C   UNL     1     -37.297  42.624 -59.995  1.00  0.00     0.048 C 
HETATM   24  C   UNL     1     -37.616  40.228 -59.283  1.00  0.00     0.007 A 
HETATM   25  C   UNL     1     -37.726  39.257 -58.290  1.00  0.00     0.003 A 
HETATM   26  C   UNL     1     -37.654  39.621 -56.943  1.00  0.00     0.029 A 
ENDBRANCH  17  20
ENDBRANCH  15  16
ENDBRANCH   1  15
TORSDOF 3
ENDMDL
MODEL 6
REMARK VINA RESULT:      -7.4      1.687      2.381
REMARK  3 active torsions:
REMARK  status: ('A' for Active; 'I' for Inactive)
REMARK    1  A    between atoms: C_4  and  N_5 
REMARK       I    between atoms: N_5  and  C_6 
REMARK    2  A    between atoms: C_6  and  C_7 
REMARK    3  A    between atoms: C_7  and  C_8 
ROOT
HETATM    1  C   UNL     1     -42.639  56.190 -54.005  1.00  0.00     0.286 C 
HETATM    2  N   UNL     1     -41.717  56.635 -55.139  1.00  0.00    -0.056 N 
HETATM    3  H   UNL     1     -41.071  57.335 -54.712  1.00  0.00     0.278 HD
HETATM    4  H   UNL     1     -41.118  55.865 -55.455  1.00  0.00     0.278 HD
HETATM    5  C   UNL     1     -42.391  57.321 -56.292  1.00  0.00     0.209 C 
HETATM    6  C   UNL     1     -43.290  58.462 -55.760  1.00  0.00     0.115 C 
HETATM    7  N   UNL     1     -44.185  58.019 -54.693  1.00  0.00    -0.353 N 
HETATM    8  C   UNL     1     -43.778  57.179 -53.687  1.00  0.00     0.249 C 
HETATM    9  O   UNL     1     -44.378  57.164 -52.617  1.00  0.00    -0.271 OA
HETATM   10  C   UNL     1     -43.151  56.301 -57.139  1.00  0.00     0.035 C 
HETATM   11  C   UNL     1     -43.898  56.995 -58.276  1.00  0.00     0.002 C 
HETATM   12  C   UNL     1     -44.828  58.087 -57.753  1.00  0.00     0.002 C 
HETATM   13  C   UNL     1     -44.079  59.111 -56.901  1.00  0.00     0.027 C 
HETATM   14  H   UNL     1     -44.908  58.667 -54.382  1.00  0.00     0.163 HD
ENDROOT
BRANCH   1  15
HETATM   15  C   UNL     1     -41.836  55.887 -52.729  1.00  0.00     0.146 C 
BRANCH  15  16
HETATM   16  C   UNL     1     -41.742  54.389 -52.518  1.00  0.00     0.224 C 
HETATM   17  N   UNL     1     -40.694  53.791 -53.172  1.00  0.00    -0.327 N 
HETATM   18  H   UNL     1     -40.130  54.361 -53.795  1.00  0.00     0.169 HD
HETATM   19  O   UNL     1     -42.549  53.860 -51.752  1.00  0.00    -0.273 OA
BRANCH  17  20
HETATM   20  C   UNL     1     -40.324  52.427 -53.122  1.00  0.00     0.035 A 
HETATM   21  C   UNL     1     -39.962  51.756 -51.951  1.00  0.00     0.036 A 
HETATM   22  C   UNL     1     -39.598  50.399 -51.979  1.00  0.00    -0.060 A 
HETATM   23  C   UNL     1     -39.236  49.694 -50.703  1.00  0.00     0.048 C 
HETATM   24  C   UNL     1     -39.615  49.710 -53.194  1.00  0.00     0.007 A 
HETATM   25  C   UNL     1     -39.974  50.371 -54.367  1.00  0.00     0.003 A 
HETATM   26  C   UNL     1     -40.323  51.722 -54.331  1.00  0.00     0.029 A 
ENDBRANCH  17  20
ENDBRANCH  15  16
ENDBRANCH   1  15
TORSDOF 3
ENDMDL
MODEL 7
REMARK VINA RESULT:      -7.4     14.438     15.788
REMARK  3 active torsions:
REMARK  status: ('A' for Active; 'I' for Inactive)
REMARK    1  A    between atoms: C_4  and  N_5 
REMARK       I    between atoms: N_5  and  C_6 
REMARK    2  A    between atoms: C_6  and  C_7 
REMARK    3  A    between atoms: C_7  and  C_8 
ROOT
HETATM    1  C   UNL     1     -37.148  41.377 -58.451  1.00  0.00     0.286 C 
HETATM    2  N   UNL     1     -36.652  39.942 -58.277  1.00  0.00    -0.056 N 
HETATM    3  H   UNL     1     -35.616  39.991 -58.397  1.00  0.00     0.278 HD
HETATM    4  H   UNL     1     -36.801  39.611 -57.317  1.00  0.00     0.278 HD
HETATM    5  C   UNL     1     -37.155  38.954 -59.288  1.00  0.00     0.209 C 
HETATM    6  C   UNL     1     -36.918  39.507 -60.713  1.00  0.00     0.115 C 
HETATM    7  N   UNL     1     -37.419  40.871 -60.876  1.00  0.00    -0.353 N 
HETATM    8  C   UNL     1     -37.252  41.839 -59.918  1.00  0.00     0.249 C 
HETATM    9  O   UNL     1     -37.288  43.025 -60.229  1.00  0.00    -0.271 OA
HETATM   10  C   UNL     1     -38.620  38.616 -59.010  1.00  0.00     0.035 C 
HETATM   11  C   UNL     1     -39.165  37.664 -60.072  1.00  0.00     0.002 C 
HETATM   12  C   UNL     1     -38.982  38.229 -61.479  1.00  0.00     0.002 C 
HETATM   13  C   UNL     1     -37.521  38.574 -61.767  1.00  0.00     0.027 C 
HETATM   14  H   UNL     1     -37.432  41.261 -61.817  1.00  0.00     0.163 HD
ENDROOT
BRANCH   1  15
HETATM   15  C   UNL     1     -36.279  42.361 -57.651  1.00  0.00     0.146 C 
BRANCH  15  16
HETATM   16  C   UNL     1     -35.883  41.745 -56.324  1.00  0.00     0.224 C 
HETATM   17  N   UNL     1     -36.697  42.090 -55.275  1.00  0.00    -0.327 N 
HETATM   18  H   UNL     1     -37.426  42.777 -55.440  1.00  0.00     0.169 HD
HETATM   19  O   UNL     1     -34.933  40.961 -56.310  1.00  0.00    -0.273 OA
BRANCH  17  20
HETATM   20  C   UNL     1     -36.608  41.633 -53.939  1.00  0.00     0.035 A 
HETATM   21  C   UNL     1     -35.518  41.873 -53.100  1.00  0.00     0.036 A 
HETATM   22  C   UNL     1     -35.495  41.380 -51.785  1.00  0.00    -0.060 A 
HETATM   23  C   UNL     1     -34.321  41.672 -50.895  1.00  0.00     0.048 C 
HETATM   24  C   UNL     1     -36.589  40.654 -51.307  1.00  0.00     0.007 A 
HETATM   25  C   UNL     1     -37.681  40.408 -52.137  1.00  0.00     0.003 A 
HETATM   26  C   UNL     1     -37.689  40.893 -53.446  1.00  0.00     0.029 A 
ENDBRANCH  17  20
ENDBRANCH  15  16
ENDBRANCH   1  15
TORSDOF 3
ENDMDL
MODEL 8
REMARK VINA RESULT:      -7.1      1.796      2.695
REMARK  3 active torsions:
REMARK  status: ('A' for Active; 'I' for Inactive)
REMARK    1  A    between atoms: C_4  and  N_5 
REMARK       I    between atoms: N_5  and  C_6 
REMARK    2  A    between atoms: C_6  and  C_7 
REMARK    3  A    between atoms: C_7  and  C_8 
ROOT
HETATM    1  C   UNL     1     -43.132  58.094 -55.649  1.00  0.00     0.286 C 
HETATM    2  N   UNL     1     -42.999  56.830 -56.496  1.00  0.00    -0.056 N 
HETATM    3  H   UNL     1     -42.078  56.415 -56.233  1.00  0.00     0.278 HD
HETATM    4  H   UNL     1     -43.701  56.130 -56.232  1.00  0.00     0.278 HD
HETATM    5  C   UNL     1     -42.964  57.045 -57.982  1.00  0.00     0.209 C 
HETATM    6  C   UNL     1     -41.901  58.116 -58.323  1.00  0.00     0.115 C 
HETATM    7  N   UNL     1     -42.053  59.331 -57.524  1.00  0.00    -0.353 N 
HETATM    8  C   UNL     1     -42.337  59.303 -56.182  1.00  0.00     0.249 C 
HETATM    9  O   UNL     1     -42.046  60.260 -55.471  1.00  0.00    -0.271 OA
HETATM   10  C   UNL     1     -44.360  57.396 -58.496  1.00  0.00     0.035 C 
HETATM   11  C   UNL     1     -44.324  57.685 -59.995  1.00  0.00     0.002 C 
HETATM   12  C   UNL     1     -43.315  58.781 -60.332  1.00  0.00     0.002 C 
HETATM   13  C   UNL     1     -41.916  58.441 -59.819  1.00  0.00     0.027 C 
HETATM   14  H   UNL     1     -41.487  60.139 -57.779  1.00  0.00     0.163 HD
ENDROOT
BRANCH   1  15
HETATM   15  C   UNL     1     -42.750  57.819 -54.185  1.00  0.00     0.146 C 
BRANCH  15  16
HETATM   16  C   UNL     1     -42.620  56.327 -53.954  1.00  0.00     0.224 C 
HETATM   17  N   UNL     1     -41.333  55.897 -53.746  1.00  0.00    -0.327 N 
HETATM   18  H   UNL     1     -40.581  56.572 -53.844  1.00  0.00     0.169 HD
HETATM   19  O   UNL     1     -43.651  55.654 -53.912  1.00  0.00    -0.273 OA
BRANCH  17  20
HETATM   20  C   UNL     1     -40.910  54.580 -53.455  1.00  0.00     0.035 A 
HETATM   21  C   UNL     1     -40.681  54.098 -52.164  1.00  0.00     0.036 A 
HETATM   22  C   UNL     1     -40.254  52.777 -51.950  1.00  0.00    -0.060 A 
HETATM   23  C   UNL     1     -40.038  52.276 -50.550  1.00  0.00     0.048 C 
HETATM   24  C   UNL     1     -40.071  51.930 -53.046  1.00  0.00     0.007 A 
HETATM   25  C   UNL     1     -40.295  52.402 -54.338  1.00  0.00     0.003 A 
HETATM   26  C   UNL     1     -40.710  53.720 -54.541  1.00  0.00     0.029 A 
ENDBRANCH  17  20
ENDBRANCH  15  16
ENDBRANCH   1  15
TORSDOF 3
ENDMDL
MODEL 9
REMARK VINA RESULT:      -7.1      2.506      7.389
REMARK  3 active torsions:
REMARK  status: ('A' for Active; 'I' for Inactive)
REMARK    1  A    between atoms: C_4  and  N_5 
REMARK       I    between atoms: N_5  and  C_6 
REMARK    2  A    between atoms: C_6  and  C_7 
REMARK    3  A    between atoms: C_7  and  C_8 
ROOT
HETATM    1  C   UNL     1     -43.340  56.621 -52.472  1.00  0.00     0.286 C 
HETATM    2  N   UNL     1     -43.726  55.161 -52.243  1.00  0.00    -0.056 N 
HETATM    3  H   UNL     1     -44.602  55.191 -51.676  1.00  0.00     0.278 HD
HETATM    4  H   UNL     1     -43.984  54.703 -53.124  1.00  0.00     0.278 HD
HETATM    5  C   UNL     1     -42.738  54.343 -51.463  1.00  0.00     0.209 C 
HETATM    6  C   UNL     1     -42.373  55.084 -50.155  1.00  0.00     0.115 C 
HETATM    7  N   UNL     1     -41.982  56.473 -50.388  1.00  0.00    -0.353 N 
HETATM    8  C   UNL     1     -42.643  57.290 -51.270  1.00  0.00     0.249 C 
HETATM    9  O   UNL     1     -42.585  58.509 -51.142  1.00  0.00    -0.271 OA
HETATM   10  C   UNL     1     -41.521  54.019 -52.331  1.00  0.00     0.035 C 
HETATM   11  C   UNL     1     -40.477  53.246 -51.528  1.00  0.00     0.002 C 
HETATM   12  C   UNL     1     -40.073  53.998 -50.262  1.00  0.00     0.002 C 
HETATM   13  C   UNL     1     -41.282  54.331 -49.388  1.00  0.00     0.027 C 
HETATM   14  H   UNL     1     -41.591  56.993 -49.603  1.00  0.00     0.163 HD
ENDROOT
BRANCH   1  15
HETATM   15  C   UNL     1     -44.561  57.453 -52.900  1.00  0.00     0.146 C 
BRANCH  15  16
HETATM   16  C   UNL     1     -44.455  57.813 -54.368  1.00  0.00     0.224 C 
HETATM   17  N   UNL     1     -43.255  57.484 -54.945  1.00  0.00    -0.327 N 
HETATM   18  H   UNL     1     -42.521  57.116 -54.348  1.00  0.00     0.169 HD
HETATM   19  O   UNL     1     -45.445  58.297 -54.919  1.00  0.00    -0.273 OA
BRANCH  17  20
HETATM   20  C   UNL     1     -42.886  57.648 -56.301  1.00  0.00     0.035 A 
HETATM   21  C   UNL     1     -43.061  56.671 -57.284  1.00  0.00     0.036 A 
HETATM   22  C   UNL     1     -42.664  56.901 -58.612  1.00  0.00    -0.060 A 
HETATM   23  C   UNL     1     -42.884  55.843 -59.655  1.00  0.00     0.048 C 
HETATM   24  C   UNL     1     -42.101  58.133 -58.954  1.00  0.00     0.007 A 
HETATM   25  C   UNL     1     -41.922  59.114 -57.981  1.00  0.00     0.003 A 
HETATM   26  C   UNL     1     -42.310  58.871 -56.661  1.00  0.00     0.029 A 
ENDBRANCH  17  20
ENDBRANCH  15  16
ENDBRANCH   1  15
TORSDOF 3
ENDMDL
MODEL 10
REMARK VINA RESULT:      -7.0     14.322     17.230
REMARK  3 active torsions:
REMARK  status: ('A' for Active; 'I' for Inactive)
REMARK    1  A    between atoms: C_4  and  N_5 
REMARK       I    between atoms: N_5  and  C_6 
REMARK    2  A    between atoms: C_6  and  C_7 
REMARK    3  A    between atoms: C_7  and  C_8 
ROOT
HETATM    1  C   UNL     1     -35.514  41.795 -52.921  1.00  0.00     0.286 C 
HETATM    2  N   UNL     1     -34.119  41.173 -52.962  1.00  0.00    -0.056 N 
HETATM    3  H   UNL     1     -34.006  40.811 -53.934  1.00  0.00     0.278 HD
HETATM    4  H   UNL     1     -33.391  41.886 -52.848  1.00  0.00     0.278 HD
HETATM    5  C   UNL     1     -33.901  40.007 -52.042  1.00  0.00     0.209 C 
HETATM    6  C   UNL     1     -35.032  38.971 -52.245  1.00  0.00     0.115 C 
HETATM    7  N   UNL     1     -36.362  39.573 -52.179  1.00  0.00    -0.353 N 
HETATM    8  C   UNL     1     -36.660  40.776 -52.768  1.00  0.00     0.249 C 
HETATM    9  O   UNL     1     -37.820  41.046 -53.064  1.00  0.00    -0.271 OA
HETATM   10  C   UNL     1     -33.782  40.492 -50.597  1.00  0.00     0.035 C 
HETATM   11  C   UNL     1     -33.629  39.309 -49.643  1.00  0.00     0.002 C 
HETATM   12  C   UNL     1     -34.772  38.309 -49.801  1.00  0.00     0.002 C 
HETATM   13  C   UNL     1     -34.903  37.820 -51.243  1.00  0.00     0.027 C 
HETATM   14  H   UNL     1     -37.166  38.946 -52.161  1.00  0.00     0.163 HD
ENDROOT
BRANCH   1  15
HETATM   15  C   UNL     1     -35.759  42.680 -54.155  1.00  0.00     0.146 C 
BRANCH  15  16
HETATM   16  C   UNL     1     -35.786  41.828 -55.407  1.00  0.00     0.224 C 
HETATM   17  N   UNL     1     -36.950  41.919 -56.128  1.00  0.00    -0.327 N 
HETATM   18  H   UNL     1     -37.713  42.463 -55.738  1.00  0.00     0.169 HD
HETATM   19  O   UNL     1     -34.771  41.194 -55.699  1.00  0.00    -0.273 OA
BRANCH  17  20
HETATM   20  C   UNL     1     -37.244  41.286 -57.358  1.00  0.00     0.035 A 
HETATM   21  C   UNL     1     -37.741  39.985 -57.471  1.00  0.00     0.036 A 
HETATM   22  C   UNL     1     -38.003  39.417 -58.728  1.00  0.00    -0.060 A 
HETATM   23  C   UNL     1     -38.559  38.025 -58.821  1.00  0.00     0.048 C 
HETATM   24  C   UNL     1     -37.778  40.173 -59.882  1.00  0.00     0.007 A 
HETATM   25  C   UNL     1     -37.282  41.471 -59.780  1.00  0.00     0.003 A 
HETATM   26  C   UNL     1     -37.014  42.023 -58.525  1.00  0.00     0.029 A 
ENDBRANCH  17  20
ENDBRANCH  15  16
ENDBRANCH   1  15
TORSDOF 3
ENDMDL
