MODEL 1
REMARK VINA RESULT:      -8.3      0.000      0.000
REMARK  2 active torsions:
REMARK  status: ('A' for Active; 'I' for Inactive)
REMARK    1  A    between atoms: C_4  and  C_5 
REMARK    2  A    between atoms: C_10  and  C_11 
ROOT
HETATM    1  C   UNL     1     -42.275  54.374 -51.670  1.00  0.00     0.224 C 
HETATM    2  N   UNL     1     -41.713  55.181 -52.760  1.00  0.00    -0.359 N 
HETATM    3  C   UNL     1     -40.573  54.596 -53.455  1.00  0.00     0.152 C 
HETATM    4  C   UNL     1     -41.843  56.567 -52.655  1.00  0.00     0.047 A 
HETATM    5  C   UNL     1     -42.884  57.124 -51.889  1.00  0.00     0.058 A 
HETATM    6  C   UNL     1     -43.842  56.209 -51.237  1.00  0.00     0.255 C 
HETATM    7  O   UNL     1     -44.834  56.619 -50.644  1.00  0.00    -0.268 OA
HETATM    8  N   UNL     1     -43.578  54.875 -51.349  1.00  0.00    -0.331 N 
HETATM    9  C   UNL     1     -40.993  57.471 -53.313  1.00  0.00     0.030 A 
HETATM   10  C   UNL     1     -41.153  58.857 -53.182  1.00  0.00     0.002 A 
HETATM   11  C   UNL     1     -42.179  59.376 -52.400  1.00  0.00     0.001 A 
HETATM   12  C   UNL     1     -43.053  58.509 -51.755  1.00  0.00     0.019 A 
HETATM   13  H   UNL     1     -44.195  54.275 -50.823  1.00  0.00     0.165 HD
ENDROOT
BRANCH   1  14
HETATM   14  C   UNL     1     -41.482  54.254 -50.398  1.00  0.00     0.034 A 
HETATM   15  C   UNL     1     -40.583  53.213 -50.026  1.00  0.00     0.122 A 
HETATM   16  N   UNL     1     -40.036  53.429 -48.819  1.00  0.00    -0.172 NA
HETATM   17  N   UNL     1     -40.600  54.570 -48.405  1.00  0.00    -0.288 N 
HETATM   18  H   UNL     1     -40.349  54.926 -47.488  1.00  0.00     0.188 HD
HETATM   19  C   UNL     1     -41.456  55.113 -49.311  1.00  0.00     0.123 A 
BRANCH  15  20
HETATM   20  C   UNL     1     -40.243  51.997 -50.829  1.00  0.00     0.106 A 
HETATM   21  O   UNL     1     -40.000  51.988 -52.175  1.00  0.00    -0.313 OA
HETATM   22  C   UNL     1     -39.721  50.706 -52.534  1.00  0.00     0.050 A 
HETATM   23  C   UNL     1     -39.412  50.467 -53.959  1.00  0.00     0.076 C 
HETATM   24  C   UNL     1     -39.791  49.880 -51.435  1.00  0.00     0.035 A 
HETATM   25  C   UNL     1     -40.128  50.710 -50.338  1.00  0.00     0.042 A 
ENDBRANCH  15  20
ENDBRANCH   1  14
TORSDOF 2
ENDMDL
MODEL 2
REMARK VINA RESULT:      -8.0      2.467      6.835
REMARK  2 active torsions:
REMARK  status: ('A' for Active; 'I' for Inactive)
REMARK    1  A    between atoms: C_4  and  C_5 
REMARK    2  A    between atoms: C_10  and  C_11 
ROOT
HETATM    1  C   UNL     1     -43.008  55.953 -51.997  1.00  0.00     0.224 C 
HETATM    2  N   UNL     1     -42.311  54.864 -51.302  1.00  0.00    -0.359 N 
HETATM    3  C   UNL     1     -41.865  55.163 -49.947  1.00  0.00     0.152 C 
HETATM    4  C   UNL     1     -41.607  53.954 -52.093  1.00  0.00     0.047 A 
HETATM    5  C   UNL     1     -41.976  53.752 -53.436  1.00  0.00     0.058 A 
HETATM    6  C   UNL     1     -43.136  54.497 -53.965  1.00  0.00     0.255 C 
HETATM    7  O   UNL     1     -43.582  54.296 -55.090  1.00  0.00    -0.268 OA
HETATM    8  N   UNL     1     -43.704  55.409 -53.125  1.00  0.00    -0.331 N 
HETATM    9  C   UNL     1     -40.542  53.178 -51.610  1.00  0.00     0.030 A 
HETATM   10  C   UNL     1     -39.857  52.276 -52.436  1.00  0.00     0.002 A 
HETATM   11  C   UNL     1     -40.232  52.115 -53.766  1.00  0.00     0.001 A 
HETATM   12  C   UNL     1     -41.299  52.850 -54.269  1.00  0.00     0.019 A 
HETATM   13  H   UNL     1     -44.436  55.968 -53.537  1.00  0.00     0.165 HD
ENDROOT
BRANCH   1  14
HETATM   14  C   UNL     1     -42.196  57.131 -52.458  1.00  0.00     0.034 A 
HETATM   15  C   UNL     1     -42.506  58.514 -52.314  1.00  0.00     0.122 A 
HETATM   16  N   UNL     1     -41.551  59.301 -52.834  1.00  0.00    -0.172 NA
HETATM   17  N   UNL     1     -40.658  58.440 -53.337  1.00  0.00    -0.288 N 
HETATM   18  H   UNL     1     -39.842  58.815 -53.810  1.00  0.00     0.188 HD
HETATM   19  C   UNL     1     -40.983  57.137 -53.128  1.00  0.00     0.123 A 
BRANCH  15  20
HETATM   20  C   UNL     1     -43.729  59.093 -51.675  1.00  0.00     0.106 A 
HETATM   21  O   UNL     1     -43.726  59.955 -50.612  1.00  0.00    -0.313 OA
HETATM   22  C   UNL     1     -45.022  60.261 -50.328  1.00  0.00     0.050 A 
HETATM   23  C   UNL     1     -45.252  61.197 -49.209  1.00  0.00     0.076 C 
HETATM   24  C   UNL     1     -45.866  59.597 -51.189  1.00  0.00     0.035 A 
HETATM   25  C   UNL     1     -45.035  58.845 -52.055  1.00  0.00     0.042 A 
ENDBRANCH  15  20
ENDBRANCH   1  14
TORSDOF 2
ENDMDL
MODEL 3
REMARK VINA RESULT:      -7.9      1.829      6.446
REMARK  2 active torsions:
REMARK  status: ('A' for Active; 'I' for Inactive)
REMARK    1  A    between atoms: C_4  and  C_5 
REMARK    2  A    between atoms: C_10  and  C_11 
ROOT
HETATM    1  C   UNL     1     -41.359  56.097 -51.493  1.00  0.00     0.224 C 
HETATM    2  N   UNL     1     -40.911  55.549 -52.779  1.00  0.00    -0.359 N 
HETATM    3  C   UNL     1     -41.441  56.208 -53.965  1.00  0.00     0.152 C 
HETATM    4  C   UNL     1     -40.583  54.193 -52.810  1.00  0.00     0.047 A 
HETATM    5  C   UNL     1     -40.176  53.536 -51.634  1.00  0.00     0.058 A 
HETATM    6  C   UNL     1     -40.076  54.324 -50.389  1.00  0.00     0.255 C 
HETATM    7  O   UNL     1     -39.628  53.849 -49.351  1.00  0.00    -0.268 OA
HETATM    8  N   UNL     1     -40.487  55.623 -50.460  1.00  0.00    -0.331 N 
HETATM    9  C   UNL     1     -40.601  53.424 -53.985  1.00  0.00     0.030 A 
HETATM   10  C   UNL     1     -40.267  52.062 -53.977  1.00  0.00     0.002 A 
HETATM   11  C   UNL     1     -39.890  51.437 -52.793  1.00  0.00     0.001 A 
HETATM   12  C   UNL     1     -39.837  52.175 -51.617  1.00  0.00     0.019 A 
HETATM   13  H   UNL     1     -40.493  56.115 -49.579  1.00  0.00     0.165 HD
ENDROOT
BRANCH   1  14
HETATM   14  C   UNL     1     -42.780  55.844 -51.073  1.00  0.00     0.034 A 
HETATM   15  C   UNL     1     -43.874  56.756 -51.105  1.00  0.00     0.122 A 
HETATM   16  N   UNL     1     -45.011  56.193 -50.666  1.00  0.00    -0.172 NA
HETATM   17  N   UNL     1     -44.648  54.952 -50.322  1.00  0.00    -0.288 N 
HETATM   18  H   UNL     1     -45.354  54.334 -49.933  1.00  0.00     0.188 HD
HETATM   19  C   UNL     1     -43.336  54.685 -50.558  1.00  0.00     0.123 A 
BRANCH  15  20
HETATM   20  C   UNL     1     -43.836  58.181 -51.559  1.00  0.00     0.106 A 
HETATM   21  O   UNL     1     -43.314  59.220 -50.837  1.00  0.00    -0.313 OA
HETATM   22  C   UNL     1     -43.455  60.350 -51.583  1.00  0.00     0.050 A 
HETATM   23  C   UNL     1     -42.942  61.604 -50.993  1.00  0.00     0.076 C 
HETATM   24  C   UNL     1     -44.074  60.056 -52.777  1.00  0.00     0.035 A 
HETATM   25  C   UNL     1     -44.319  58.662 -52.761  1.00  0.00     0.042 A 
ENDBRANCH  15  20
ENDBRANCH   1  14
TORSDOF 2
ENDMDL
MODEL 4
REMARK VINA RESULT:      -7.9      2.433      4.010
REMARK  2 active torsions:
REMARK  status: ('A' for Active; 'I' for Inactive)
REMARK    1  A    between atoms: C_4  and  C_5 
REMARK    2  A    between atoms: C_10  and  C_11 
ROOT
HETATM    1  C   UNL     1     -41.746  56.180 -52.666  1.00  0.00     0.224 C 
HETATM    2  N   UNL     1     -42.640  56.608 -51.584  1.00  0.00    -0.359 N 
HETATM    3  C   UNL     1     -43.257  55.536 -50.814  1.00  0.00     0.152 C 
HETATM    4  C   UNL     1     -43.296  57.829 -51.749  1.00  0.00     0.047 A 
HETATM    5  C   UNL     1     -42.747  58.820 -52.584  1.00  0.00     0.058 A 
HETATM    6  C   UNL     1     -41.455  58.545 -53.244  1.00  0.00     0.255 C 
HETATM    7  O   UNL     1     -40.863  59.396 -53.898  1.00  0.00    -0.268 OA
HETATM    8  N   UNL     1     -40.939  57.294 -53.067  1.00  0.00    -0.331 N 
HETATM    9  C   UNL     1     -44.491  58.155 -51.088  1.00  0.00     0.030 A 
HETATM   10  C   UNL     1     -45.123  59.392 -51.280  1.00  0.00     0.002 A 
HETATM   11  C   UNL     1     -44.566  60.342 -52.129  1.00  0.00     0.001 A 
HETATM   12  C   UNL     1     -43.370  60.060 -52.780  1.00  0.00     0.019 A 
HETATM   13  H   UNL     1     -40.103  57.101 -53.598  1.00  0.00     0.165 HD
ENDROOT
BRANCH   1  14
HETATM   14  C   UNL     1     -42.363  55.570 -53.894  1.00  0.00     0.034 A 
HETATM   15  C   UNL     1     -42.152  54.263 -54.420  1.00  0.00     0.122 A 
HETATM   16  N   UNL     1     -42.875  54.044 -55.529  1.00  0.00    -0.172 NA
HETATM   17  N   UNL     1     -43.514  55.202 -55.736  1.00  0.00    -0.288 N 
HETATM   18  H   UNL     1     -44.115  55.281 -56.549  1.00  0.00     0.188 HD
HETATM   19  C   UNL     1     -43.259  56.139 -54.785  1.00  0.00     0.123 A 
BRANCH  15  20
HETATM   20  C   UNL     1     -41.247  53.211 -53.859  1.00  0.00     0.106 A 
HETATM   21  O   UNL     1     -40.867  52.072 -54.515  1.00  0.00    -0.313 OA
HETATM   22  C   UNL     1     -40.041  51.377 -53.686  1.00  0.00     0.050 A 
HETATM   23  C   UNL     1     -39.498  50.104 -54.205  1.00  0.00     0.076 C 
HETATM   24  C   UNL     1     -39.890  52.049 -52.494  1.00  0.00     0.035 A 
HETATM   25  C   UNL     1     -40.666  53.228 -52.605  1.00  0.00     0.042 A 
ENDBRANCH  15  20
ENDBRANCH   1  14
TORSDOF 2
ENDMDL
MODEL 5
REMARK VINA RESULT:      -7.9      3.369      6.720
REMARK  2 active torsions:
REMARK  status: ('A' for Active; 'I' for Inactive)
REMARK    1  A    between atoms: C_4  and  C_5 
REMARK    2  A    between atoms: C_10  and  C_11 
ROOT
HETATM    1  C   UNL     1     -43.212  56.251 -52.928  1.00  0.00     0.224 C 
HETATM    2  N   UNL     1     -42.740  55.233 -51.982  1.00  0.00    -0.359 N 
HETATM    3  C   UNL     1     -42.644  55.659 -50.592  1.00  0.00     0.152 C 
HETATM    4  C   UNL     1     -41.881  54.252 -52.482  1.00  0.00     0.047 A 
HETATM    5  C   UNL     1     -41.903  53.924 -53.850  1.00  0.00     0.058 A 
HETATM    6  C   UNL     1     -42.873  54.615 -54.722  1.00  0.00     0.255 C 
HETATM    7  O   UNL     1     -43.026  54.308 -55.900  1.00  0.00    -0.268 OA
HETATM    8  N   UNL     1     -43.613  55.603 -54.141  1.00  0.00    -0.331 N 
HETATM    9  C   UNL     1     -40.991  53.526 -51.675  1.00  0.00     0.030 A 
HETATM   10  C   UNL     1     -40.142  52.548 -52.213  1.00  0.00     0.002 A 
HETATM   11  C   UNL     1     -40.172  52.262 -53.574  1.00  0.00     0.001 A 
HETATM   12  C   UNL     1     -41.060  52.946 -54.397  1.00  0.00     0.019 A 
HETATM   13  H   UNL     1     -44.204  56.120 -54.775  1.00  0.00     0.165 HD
ENDROOT
BRANCH   1  14
HETATM   14  C   UNL     1     -42.282  57.380 -53.274  1.00  0.00     0.034 A 
HETATM   15  C   UNL     1     -42.408  58.320 -54.338  1.00  0.00     0.122 A 
HETATM   16  N   UNL     1     -41.399  59.205 -54.349  1.00  0.00    -0.172 NA
HETATM   17  N   UNL     1     -40.617  58.821 -53.333  1.00  0.00    -0.288 N 
HETATM   18  H   UNL     1     -39.763  59.341 -53.160  1.00  0.00     0.188 HD
HETATM   19  C   UNL     1     -41.102  57.751 -52.649  1.00  0.00     0.123 A 
BRANCH  15  20
HETATM   20  C   UNL     1     -43.502  58.373 -55.357  1.00  0.00     0.106 A 
HETATM   21  O   UNL     1     -43.489  57.718 -56.558  1.00  0.00    -0.313 OA
HETATM   22  C   UNL     1     -44.656  58.005 -57.196  1.00  0.00     0.050 A 
HETATM   23  C   UNL     1     -44.858  57.384 -58.521  1.00  0.00     0.076 C 
HETATM   24  C   UNL     1     -45.422  58.850 -56.426  1.00  0.00     0.035 A 
HETATM   25  C   UNL     1     -44.680  59.088 -55.243  1.00  0.00     0.042 A 
ENDBRANCH  15  20
ENDBRANCH   1  14
TORSDOF 2
ENDMDL
MODEL 6
REMARK VINA RESULT:      -7.8      1.739      2.594
REMARK  2 active torsions:
REMARK  status: ('A' for Active; 'I' for Inactive)
REMARK    1  A    between atoms: C_4  and  C_5 
REMARK    2  A    between atoms: C_10  and  C_11 
ROOT
HETATM    1  C   UNL     1     -42.606  56.497 -52.528  1.00  0.00     0.224 C 
HETATM    2  N   UNL     1     -42.231  57.856 -52.937  1.00  0.00    -0.359 N 
HETATM    3  C   UNL     1     -40.975  57.972 -53.666  1.00  0.00     0.152 C 
HETATM    4  C   UNL     1     -42.684  58.907 -52.137  1.00  0.00     0.047 A 
HETATM    5  C   UNL     1     -43.839  58.748 -51.349  1.00  0.00     0.058 A 
HETATM    6  C   UNL     1     -44.567  57.465 -51.420  1.00  0.00     0.255 C 
HETATM    7  O   UNL     1     -45.637  57.289 -50.847  1.00  0.00    -0.268 OA
HETATM    8  N   UNL     1     -43.996  56.487 -52.180  1.00  0.00    -0.331 N 
HETATM    9  C   UNL     1     -42.060  60.164 -52.092  1.00  0.00     0.030 A 
HETATM   10  C   UNL     1     -42.543  61.195 -51.274  1.00  0.00     0.002 A 
HETATM   11  C   UNL     1     -43.675  60.999 -50.490  1.00  0.00     0.001 A 
HETATM   12  C   UNL     1     -44.332  59.775 -50.530  1.00  0.00     0.019 A 
HETATM   13  H   UNL     1     -44.462  55.593 -52.142  1.00  0.00     0.165 HD
ENDROOT
BRANCH   1  14
HETATM   14  C   UNL     1     -41.828  55.854 -51.414  1.00  0.00     0.034 A 
HETATM   15  C   UNL     1     -40.975  54.716 -51.489  1.00  0.00     0.122 A 
HETATM   16  N   UNL     1     -40.428  54.417 -50.300  1.00  0.00    -0.172 NA
HETATM   17  N   UNL     1     -40.948  55.325 -49.466  1.00  0.00    -0.288 N 
HETATM   18  H   UNL     1     -40.689  55.281 -48.485  1.00  0.00     0.188 HD
HETATM   19  C   UNL     1     -41.774  56.215 -50.077  1.00  0.00     0.123 A 
BRANCH  15  20
HETATM   20  C   UNL     1     -40.680  53.901 -52.709  1.00  0.00     0.106 A 
HETATM   21  O   UNL     1     -40.532  52.541 -52.728  1.00  0.00    -0.313 OA
HETATM   22  C   UNL     1     -40.281  52.172 -54.014  1.00  0.00     0.050 A 
HETATM   23  C   UNL     1     -40.099  50.728 -54.266  1.00  0.00     0.076 C 
HETATM   24  C   UNL     1     -40.254  53.281 -54.828  1.00  0.00     0.035 A 
HETATM   25  C   UNL     1     -40.509  54.393 -53.989  1.00  0.00     0.042 A 
ENDBRANCH  15  20
ENDBRANCH   1  14
TORSDOF 2
ENDMDL
MODEL 7
REMARK VINA RESULT:      -7.8      2.601      3.626
REMARK  2 active torsions:
REMARK  status: ('A' for Active; 'I' for Inactive)
REMARK    1  A    between atoms: C_4  and  C_5 
REMARK    2  A    between atoms: C_10  and  C_11 
ROOT
HETATM    1  C   UNL     1     -41.196  56.160 -53.870  1.00  0.00     0.224 C 
HETATM    2  N   UNL     1     -41.145  57.603 -54.133  1.00  0.00    -0.359 N 
HETATM    3  C   UNL     1     -40.536  58.414 -53.086  1.00  0.00     0.152 C 
HETATM    4  C   UNL     1     -42.145  58.135 -54.948  1.00  0.00     0.047 A 
HETATM    5  C   UNL     1     -42.806  57.316 -55.883  1.00  0.00     0.058 A 
HETATM    6  C   UNL     1     -42.390  55.904 -55.996  1.00  0.00     0.255 C 
HETATM    7  O   UNL     1     -42.843  55.158 -56.857  1.00  0.00    -0.268 OA
HETATM    8  N   UNL     1     -41.453  55.475 -55.102  1.00  0.00    -0.331 N 
HETATM    9  C   UNL     1     -42.523  59.487 -54.919  1.00  0.00     0.030 A 
HETATM   10  C   UNL     1     -43.534  59.985 -55.752  1.00  0.00     0.002 A 
HETATM   11  C   UNL     1     -44.184  59.145 -56.650  1.00  0.00     0.001 A 
HETATM   12  C   UNL     1     -43.816  57.806 -56.723  1.00  0.00     0.019 A 
HETATM   13  H   UNL     1     -41.250  54.487 -55.140  1.00  0.00     0.165 HD
ENDROOT
BRANCH   1  14
HETATM   14  C   UNL     1     -42.167  55.663 -52.836  1.00  0.00     0.034 A 
HETATM   15  C   UNL     1     -42.155  54.411 -52.156  1.00  0.00     0.122 A 
HETATM   16  N   UNL     1     -43.170  54.301 -51.285  1.00  0.00    -0.172 NA
HETATM   17  N   UNL     1     -43.846  55.447 -51.426  1.00  0.00    -0.288 N 
HETATM   18  H   UNL     1     -44.685  55.582 -50.871  1.00  0.00     0.188 HD
HETATM   19  C   UNL     1     -43.286  56.301 -52.324  1.00  0.00     0.123 A 
BRANCH  15  20
HETATM   20  C   UNL     1     -41.164  53.305 -52.342  1.00  0.00     0.106 A 
HETATM   21  O   UNL     1     -41.051  52.534 -53.466  1.00  0.00    -0.313 OA
HETATM   22  C   UNL     1     -40.038  51.649 -53.257  1.00  0.00     0.050 A 
HETATM   23  C   UNL     1     -39.732  50.717 -54.362  1.00  0.00     0.076 C 
HETATM   24  C   UNL     1     -39.500  51.831 -52.003  1.00  0.00     0.035 A 
HETATM   25  C   UNL     1     -40.225  52.895 -51.414  1.00  0.00     0.042 A 
ENDBRANCH  15  20
ENDBRANCH   1  14
TORSDOF 2
ENDMDL
MODEL 8
REMARK VINA RESULT:      -7.8      2.950      6.643
REMARK  2 active torsions:
REMARK  status: ('A' for Active; 'I' for Inactive)
REMARK    1  A    between atoms: C_4  and  C_5 
REMARK    2  A    between atoms: C_10  and  C_11 
ROOT
HETATM    1  C   UNL     1     -42.801  56.889 -52.546  1.00  0.00     0.224 C 
HETATM    2  N   UNL     1     -42.767  55.462 -52.203  1.00  0.00    -0.359 N 
HETATM    3  C   UNL     1     -43.077  55.138 -50.817  1.00  0.00     0.152 C 
HETATM    4  C   UNL     1     -41.901  54.653 -52.941  1.00  0.00     0.047 A 
HETATM    5  C   UNL     1     -41.517  55.031 -54.241  1.00  0.00     0.058 A 
HETATM    6  C   UNL     1     -42.079  56.274 -54.806  1.00  0.00     0.255 C 
HETATM    7  O   UNL     1     -41.877  56.613 -55.967  1.00  0.00    -0.268 OA
HETATM    8  N   UNL     1     -42.858  57.020 -53.971  1.00  0.00    -0.331 N 
HETATM    9  C   UNL     1     -41.397  53.432 -52.467  1.00  0.00     0.030 A 
HETATM   10  C   UNL     1     -40.527  52.647 -53.237  1.00  0.00     0.002 A 
HETATM   11  C   UNL     1     -40.150  53.059 -54.510  1.00  0.00     0.001 A 
HETATM   12  C   UNL     1     -40.650  54.251 -55.020  1.00  0.00     0.019 A 
HETATM   13  H   UNL     1     -43.157  57.907 -54.348  1.00  0.00     0.165 HD
ENDROOT
BRANCH   1  14
HETATM   14  C   UNL     1     -41.697  57.768 -52.028  1.00  0.00     0.034 A 
HETATM   15  C   UNL     1     -41.294  59.043 -52.518  1.00  0.00     0.122 A 
HETATM   16  N   UNL     1     -40.275  59.556 -51.810  1.00  0.00    -0.172 NA
HETATM   17  N   UNL     1     -40.002  58.611 -50.902  1.00  0.00    -0.288 N 
HETATM   18  H   UNL     1     -39.236  58.772 -50.257  1.00  0.00     0.188 HD
HETATM   19  C   UNL     1     -40.827  57.533 -50.975  1.00  0.00     0.123 A 
BRANCH  15  20
HETATM   20  C   UNL     1     -41.886  59.782 -53.677  1.00  0.00     0.106 A 
HETATM   21  O   UNL     1     -41.474  59.664 -54.976  1.00  0.00    -0.313 OA
HETATM   22  C   UNL     1     -42.257  60.482 -55.732  1.00  0.00     0.050 A 
HETATM   23  C   UNL     1     -41.988  60.501 -57.184  1.00  0.00     0.076 C 
HETATM   24  C   UNL     1     -43.166  61.138 -54.934  1.00  0.00     0.035 A 
HETATM   25  C   UNL     1     -42.927  60.689 -53.612  1.00  0.00     0.042 A 
ENDBRANCH  15  20
ENDBRANCH   1  14
TORSDOF 2
ENDMDL
MODEL 9
REMARK VINA RESULT:      -7.8      3.142      6.407
REMARK  2 active torsions:
REMARK  status: ('A' for Active; 'I' for Inactive)
REMARK    1  A    between atoms: C_4  and  C_5 
REMARK    2  A    between atoms: C_10  and  C_11 
ROOT
HETATM    1  C   UNL     1     -43.156  56.119 -53.213  1.00  0.00     0.224 C 
HETATM    2  N   UNL     1     -43.250  55.552 -51.863  1.00  0.00    -0.359 N 
HETATM    3  C   UNL     1     -44.005  56.342 -50.898  1.00  0.00     0.152 C 
HETATM    4  C   UNL     1     -42.197  54.738 -51.441  1.00  0.00     0.047 A 
HETATM    5  C   UNL     1     -41.402  54.064 -52.387  1.00  0.00     0.058 A 
HETATM    6  C   UNL     1     -41.734  54.216 -53.818  1.00  0.00     0.255 C 
HETATM    7  O   UNL     1     -41.157  53.578 -54.692  1.00  0.00    -0.268 OA
HETATM    8  N   UNL     1     -42.738  55.089 -54.118  1.00  0.00    -0.331 N 
HETATM    9  C   UNL     1     -41.891  54.515 -50.090  1.00  0.00     0.030 A 
HETATM   10  C   UNL     1     -40.823  53.692 -49.704  1.00  0.00     0.002 A 
HETATM   11  C   UNL     1     -40.042  53.057 -50.664  1.00  0.00     0.001 A 
HETATM   12  C   UNL     1     -40.335  53.237 -52.011  1.00  0.00     0.019 A 
HETATM   13  H   UNL     1     -42.887  55.243 -55.104  1.00  0.00     0.165 HD
ENDROOT
BRANCH   1  14
HETATM   14  C   UNL     1     -42.276  57.320 -53.416  1.00  0.00     0.034 A 
HETATM   15  C   UNL     1     -42.099  58.082 -54.607  1.00  0.00     0.122 A 
HETATM   16  N   UNL     1     -41.243  59.101 -54.431  1.00  0.00    -0.172 NA
HETATM   17  N   UNL     1     -40.847  58.976 -53.158  1.00  0.00    -0.288 N 
HETATM   18  H   UNL     1     -40.166  59.638 -52.800  1.00  0.00     0.188 HD
HETATM   19  C   UNL     1     -41.441  57.944 -52.503  1.00  0.00     0.123 A 
BRANCH  15  20
HETATM   20  C   UNL     1     -42.753  57.834 -55.930  1.00  0.00     0.106 A 
HETATM   21  O   UNL     1     -42.491  56.769 -56.748  1.00  0.00    -0.313 OA
HETATM   22  C   UNL     1     -43.285  56.890 -57.847  1.00  0.00     0.050 A 
HETATM   23  C   UNL     1     -43.171  55.827 -58.867  1.00  0.00     0.076 C 
HETATM   24  C   UNL     1     -44.052  58.029 -57.755  1.00  0.00     0.035 A 
HETATM   25  C   UNL     1     -43.710  58.637 -56.523  1.00  0.00     0.042 A 
ENDBRANCH  15  20
ENDBRANCH   1  14
TORSDOF 2
ENDMDL
MODEL 10
REMARK VINA RESULT:      -7.8      2.659      4.383
REMARK  2 active torsions:
REMARK  status: ('A' for Active; 'I' for Inactive)
REMARK    1  A    between atoms: C_4  and  C_5 
REMARK    2  A    between atoms: C_10  and  C_11 
ROOT
HETATM    1  C   UNL     1     -41.418  57.221 -53.363  1.00  0.00     0.224 C 
HETATM    2  N   UNL     1     -41.641  58.198 -54.435  1.00  0.00    -0.359 N 
HETATM    3  C   UNL     1     -41.783  59.584 -54.007  1.00  0.00     0.152 C 
HETATM    4  C   UNL     1     -42.291  57.743 -55.584  1.00  0.00     0.047 A 
HETATM    5  C   UNL     1     -42.241  56.380 -55.931  1.00  0.00     0.058 A 
HETATM    6  C   UNL     1     -41.461  55.465 -55.073  1.00  0.00     0.255 C 
HETATM    7  O   UNL     1     -41.282  54.288 -55.368  1.00  0.00    -0.268 OA
HETATM    8  N   UNL     1     -40.926  56.006 -53.941  1.00  0.00    -0.331 N 
HETATM    9  C   UNL     1     -42.987  58.590 -56.461  1.00  0.00     0.030 A 
HETATM   10  C   UNL     1     -43.630  58.095 -57.604  1.00  0.00     0.002 A 
HETATM   11  C   UNL     1     -43.580  56.739 -57.908  1.00  0.00     0.001 A 
HETATM   12  C   UNL     1     -42.878  55.877 -57.074  1.00  0.00     0.019 A 
HETATM   13  H   UNL     1     -40.474  55.345 -53.327  1.00  0.00     0.165 HD
ENDROOT
BRANCH   1  14
HETATM   14  C   UNL     1     -42.572  56.888 -52.459  1.00  0.00     0.034 A 
HETATM   15  C   UNL     1     -42.619  55.904 -51.430  1.00  0.00     0.122 A 
HETATM   16  N   UNL     1     -43.808  55.881 -50.809  1.00  0.00    -0.172 NA
HETATM   17  N   UNL     1     -44.528  56.809 -51.450  1.00  0.00    -0.288 N 
HETATM   18  H   UNL     1     -45.490  56.956 -51.162  1.00  0.00     0.188 HD
HETATM   19  C   UNL     1     -43.838  57.451 -52.430  1.00  0.00     0.123 A 
BRANCH  15  20
HETATM   20  C   UNL     1     -41.517  54.972 -51.036  1.00  0.00     0.106 A 
HETATM   21  O   UNL     1     -41.165  53.839 -51.717  1.00  0.00    -0.313 OA
HETATM   22  C   UNL     1     -40.120  53.269 -51.056  1.00  0.00     0.050 A 
HETATM   23  C   UNL     1     -39.569  52.026 -51.634  1.00  0.00     0.076 C 
HETATM   24  C   UNL     1     -39.797  54.016 -49.946  1.00  0.00     0.035 A 
HETATM   25  C   UNL     1     -40.696  55.110 -49.932  1.00  0.00     0.042 A 
ENDBRANCH  15  20
ENDBRANCH   1  14
TORSDOF 2
ENDMDL
