MODEL 1
REMARK VINA RESULT:      -8.0      0.000      0.000
REMARK  4 active torsions:
REMARK  status: ('A' for Active; 'I' for Inactive)
REMARK    1  A    between atoms: C_9  and  C_10 
REMARK    2  A    between atoms: C_11  and  O_12 
REMARK    3  A    between atoms: C_18  and  C_19 
REMARK       I    between atoms: C_19  and  N_20 
REMARK    4  A    between atoms: N_20  and  C_21 
ROOT
HETATM    1  C   UNL     1     -43.666  55.380 -58.925  1.00  0.00     0.070 C 
HETATM    2  C   UNL     1     -43.219  56.613 -58.179  1.00  0.00     0.037 C 
HETATM    3  N   UNL     1     -43.263  57.801 -58.903  1.00  0.00    -0.192 N 
HETATM    4  C   UNL     1     -42.619  58.917 -58.504  1.00  0.00     0.725 A 
HETATM    5  N   UNL     1     -42.074  58.968 -57.248  1.00  0.00    -0.084 N 
HETATM    6  N   UNL     1     -41.406  60.125 -57.052  1.00  0.00    -0.149 NA
HETATM    7  C   UNL     1     -41.623  60.736 -58.223  1.00  0.00     0.275 A 
HETATM    8  N   UNL     1     -42.366  60.034 -59.137  1.00  0.00    -0.054 NA
HETATM    9  C   UNL     1     -42.188  57.885 -56.259  1.00  0.00     0.205 C 
HETATM   10  C   UNL     1     -42.722  56.614 -56.915  1.00  0.00     0.063 C 
HETATM   11  H   UNL     1     -43.538  57.743 -59.880  1.00  0.00     0.184 HD
ENDROOT
BRANCH  10  12
HETATM   12  C   UNL     1     -42.505  55.376 -56.126  1.00  0.00     0.256 C 
HETATM   13  N   UNL     1     -41.309  55.368 -55.439  1.00  0.00    -0.323 N 
HETATM   14  H   UNL     1     -40.703  56.168 -55.568  1.00  0.00     0.169 HD
HETATM   15  O   UNL     1     -43.367  54.508 -56.136  1.00  0.00    -0.267 OA
BRANCH  13  16
HETATM   16  C   UNL     1     -40.870  54.398 -54.514  1.00  0.00     0.035 A 
HETATM   17  C   UNL     1     -40.292  53.179 -54.879  1.00  0.00     0.031 A 
HETATM   18  C   UNL     1     -39.911  52.251 -53.903  1.00  0.00     0.026 A 
HETATM   19  C   UNL     1     -40.110  52.536 -52.557  1.00  0.00     0.034 A 
HETATM   20 CL   UNL     1     -39.657  51.389 -51.359  1.00  0.00    -0.084 Cl
HETATM   21  C   UNL     1     -40.679  53.748 -52.177  1.00  0.00     0.026 A 
HETATM   22  C   UNL     1     -41.051  54.679 -53.154  1.00  0.00     0.031 A 
ENDBRANCH  13  16
ENDBRANCH  10  12
BRANCH   9  23
HETATM   23  C   UNL     1     -43.072  58.331 -55.090  1.00  0.00     0.005 A 
HETATM   24  C   UNL     1     -42.555  58.384 -53.781  1.00  0.00     0.076 A 
HETATM   25  C   UNL     1     -43.370  58.809 -52.725  1.00  0.00     0.037 A 
HETATM   26  C   UNL     1     -44.702  59.160 -52.954  1.00  0.00     0.003 A 
HETATM   27  C   UNL     1     -45.233  59.083 -54.236  1.00  0.00     0.001 A 
HETATM   28  C   UNL     1     -44.428  58.666 -55.296  1.00  0.00     0.012 A 
BRANCH  24  29
HETATM   29  O   UNL     1     -41.245  58.016 -53.639  1.00  0.00    -0.355 OA
HETATM   30  C   UNL     1     -40.412  58.848 -52.840  1.00  0.00     0.210 C 
ENDBRANCH  24  29
ENDBRANCH   9  23
TORSDOF 4
ENDMDL
MODEL 2
REMARK VINA RESULT:      -7.8      3.432      6.630
REMARK  4 active torsions:
REMARK  status: ('A' for Active; 'I' for Inactive)
REMARK    1  A    between atoms: C_9  and  C_10 
REMARK    2  A    between atoms: C_11  and  O_12 
REMARK    3  A    between atoms: C_18  and  C_19 
REMARK       I    between atoms: C_19  and  N_20 
REMARK    4  A    between atoms: N_20  and  C_21 
ROOT
HETATM    1  C   UNL     1     -40.624  53.175 -54.604  1.00  0.00     0.070 C 
HETATM    2  C   UNL     1     -40.948  53.927 -53.337  1.00  0.00     0.037 C 
HETATM    3  N   UNL     1     -40.166  53.604 -52.231  1.00  0.00    -0.192 N 
HETATM    4  C   UNL     1     -40.516  53.941 -50.973  1.00  0.00     0.725 A 
HETATM    5  N   UNL     1     -41.557  54.808 -50.772  1.00  0.00    -0.084 N 
HETATM    6  N   UNL     1     -41.812  54.969 -49.456  1.00  0.00    -0.149 NA
HETATM    7  C   UNL     1     -40.860  54.193 -48.924  1.00  0.00     0.275 A 
HETATM    8  N   UNL     1     -40.042  53.552 -49.817  1.00  0.00    -0.054 NA
HETATM    9  C   UNL     1     -42.308  55.455 -51.860  1.00  0.00     0.205 C 
HETATM   10  C   UNL     1     -41.971  54.809 -53.201  1.00  0.00     0.063 C 
HETATM   11  H   UNL     1     -39.482  52.860 -52.344  1.00  0.00     0.184 HD
ENDROOT
BRANCH  10  12
HETATM   12  C   UNL     1     -42.941  55.102 -54.286  1.00  0.00     0.256 C 
HETATM   13  N   UNL     1     -42.471  56.016 -55.206  1.00  0.00    -0.323 N 
HETATM   14  H   UNL     1     -41.555  56.410 -55.033  1.00  0.00     0.169 HD
HETATM   15  O   UNL     1     -44.021  54.528 -54.288  1.00  0.00    -0.267 OA
BRANCH  13  16
HETATM   16  C   UNL     1     -43.099  56.408 -56.407  1.00  0.00     0.035 A 
HETATM   17  C   UNL     1     -43.874  57.563 -56.541  1.00  0.00     0.031 A 
HETATM   18  C   UNL     1     -44.494  57.868 -57.758  1.00  0.00     0.026 A 
HETATM   19  C   UNL     1     -44.344  57.017 -58.847  1.00  0.00     0.034 A 
HETATM   20 CL   UNL     1     -45.118  57.384 -60.337  1.00  0.00    -0.084 Cl
HETATM   21  C   UNL     1     -43.569  55.866 -58.732  1.00  0.00     0.026 A 
HETATM   22  C   UNL     1     -42.943  55.567 -57.517  1.00  0.00     0.031 A 
ENDBRANCH  13  16
ENDBRANCH  10  12
BRANCH   9  23
HETATM   23  C   UNL     1     -42.025  56.961 -51.871  1.00  0.00     0.005 A 
HETATM   24  C   UNL     1     -43.016  57.878 -51.469  1.00  0.00     0.076 A 
HETATM   25  C   UNL     1     -42.738  59.250 -51.469  1.00  0.00     0.037 A 
HETATM   26  C   UNL     1     -41.492  59.722 -51.887  1.00  0.00     0.003 A 
HETATM   27  C   UNL     1     -40.517  58.829 -52.316  1.00  0.00     0.001 A 
HETATM   28  C   UNL     1     -40.781  57.460 -52.314  1.00  0.00     0.012 A 
BRANCH  24  29
HETATM   29  O   UNL     1     -44.212  57.337 -51.081  1.00  0.00    -0.355 OA
HETATM   30  C   UNL     1     -45.350  58.191 -51.080  1.00  0.00     0.210 C 
ENDBRANCH  24  29
ENDBRANCH   9  23
TORSDOF 4
ENDMDL
MODEL 3
REMARK VINA RESULT:      -7.7      3.499      6.336
REMARK  4 active torsions:
REMARK  status: ('A' for Active; 'I' for Inactive)
REMARK    1  A    between atoms: C_9  and  C_10 
REMARK    2  A    between atoms: C_11  and  O_12 
REMARK    3  A    between atoms: C_18  and  C_19 
REMARK       I    between atoms: C_19  and  N_20 
REMARK    4  A    between atoms: N_20  and  C_21 
ROOT
HETATM    1  C   UNL     1     -45.322  59.474 -52.438  1.00  0.00     0.070 C 
HETATM    2  C   UNL     1     -43.928  58.966 -52.160  1.00  0.00     0.037 C 
HETATM    3  N   UNL     1     -43.251  59.610 -51.127  1.00  0.00    -0.192 N 
HETATM    4  C   UNL     1     -41.918  59.500 -50.956  1.00  0.00     0.725 A 
HETATM    5  N   UNL     1     -41.220  58.568 -51.677  1.00  0.00    -0.084 N 
HETATM    6  N   UNL     1     -39.895  58.653 -51.434  1.00  0.00    -0.149 NA
HETATM    7  C   UNL     1     -39.874  59.638 -50.528  1.00  0.00     0.275 A 
HETATM    8  N   UNL     1     -41.090  60.179 -50.203  1.00  0.00    -0.054 NA
HETATM    9  C   UNL     1     -41.844  57.617 -52.611  1.00  0.00     0.205 C 
HETATM   10  C   UNL     1     -43.295  58.008 -52.883  1.00  0.00     0.063 C 
HETATM   11  H   UNL     1     -43.718  60.396 -50.681  1.00  0.00     0.184 HD
ENDROOT
BRANCH  10  12
HETATM   12  C   UNL     1     -43.889  57.374 -54.087  1.00  0.00     0.256 C 
HETATM   13  N   UNL     1     -43.385  57.872 -55.271  1.00  0.00    -0.323 N 
HETATM   14  H   UNL     1     -42.709  58.622 -55.200  1.00  0.00     0.169 HD
HETATM   15  O   UNL     1     -44.727  56.495 -53.943  1.00  0.00    -0.267 OA
BRANCH  13  16
HETATM   16  C   UNL     1     -43.654  57.398 -56.572  1.00  0.00     0.035 A 
HETATM   17  C   UNL     1     -44.619  57.951 -57.419  1.00  0.00     0.031 A 
HETATM   18  C   UNL     1     -44.853  57.404 -58.685  1.00  0.00     0.026 A 
HETATM   19  C   UNL     1     -44.125  56.297 -59.109  1.00  0.00     0.034 A 
HETATM   20 CL   UNL     1     -44.423  55.616 -60.659  1.00  0.00    -0.084 Cl
HETATM   21  C   UNL     1     -43.156  55.738 -58.280  1.00  0.00     0.026 A 
HETATM   22  C   UNL     1     -42.918  56.293 -57.017  1.00  0.00     0.031 A 
ENDBRANCH  13  16
ENDBRANCH  10  12
BRANCH   9  23
HETATM   23  C   UNL     1     -41.737  56.191 -52.062  1.00  0.00     0.005 A 
HETATM   24  C   UNL     1     -41.119  55.177 -52.820  1.00  0.00     0.076 A 
HETATM   25  C   UNL     1     -41.013  53.883 -52.298  1.00  0.00     0.037 A 
HETATM   26  C   UNL     1     -41.536  53.580 -51.039  1.00  0.00     0.003 A 
HETATM   27  C   UNL     1     -42.175  54.564 -50.295  1.00  0.00     0.001 A 
HETATM   28  C   UNL     1     -42.281  55.858 -50.803  1.00  0.00     0.012 A 
BRANCH  24  29
HETATM   29  O   UNL     1     -40.639  55.552 -54.045  1.00  0.00    -0.355 OA
HETATM   30  C   UNL     1     -40.174  54.524 -54.912  1.00  0.00     0.210 C 
ENDBRANCH  24  29
ENDBRANCH   9  23
TORSDOF 4
ENDMDL
MODEL 4
REMARK VINA RESULT:      -7.7      2.723      4.857
REMARK  4 active torsions:
REMARK  status: ('A' for Active; 'I' for Inactive)
REMARK    1  A    between atoms: C_9  and  C_10 
REMARK    2  A    between atoms: C_11  and  O_12 
REMARK    3  A    between atoms: C_18  and  C_19 
REMARK       I    between atoms: C_19  and  N_20 
REMARK    4  A    between atoms: N_20  and  C_21 
ROOT
HETATM    1  C   UNL     1     -40.490  57.865 -50.532  1.00  0.00     0.070 C 
HETATM    2  C   UNL     1     -41.656  58.171 -51.439  1.00  0.00     0.037 C 
HETATM    3  N   UNL     1     -42.530  59.154 -50.983  1.00  0.00    -0.192 N 
HETATM    4  C   UNL     1     -43.763  59.326 -51.501  1.00  0.00     0.725 A 
HETATM    5  N   UNL     1     -44.109  58.666 -52.650  1.00  0.00    -0.084 N 
HETATM    6  N   UNL     1     -45.398  58.896 -52.977  1.00  0.00    -0.149 NA
HETATM    7  C   UNL     1     -45.755  59.734 -51.996  1.00  0.00     0.275 A 
HETATM    8  N   UNL     1     -44.782  60.028 -51.076  1.00  0.00    -0.054 NA
HETATM    9  C   UNL     1     -43.191  57.801 -53.408  1.00  0.00     0.205 C 
HETATM   10  C   UNL     1     -41.933  57.510 -52.593  1.00  0.00     0.063 C 
HETATM   11  H   UNL     1     -42.349  59.549 -50.063  1.00  0.00     0.184 HD
ENDROOT
BRANCH  10  12
HETATM   12  C   UNL     1     -41.138  56.355 -53.078  1.00  0.00     0.256 C 
HETATM   13  N   UNL     1     -41.451  55.171 -52.441  1.00  0.00    -0.323 N 
HETATM   14  H   UNL     1     -42.144  55.217 -51.706  1.00  0.00     0.169 HD
HETATM   15  O   UNL     1     -40.317  56.530 -53.967  1.00  0.00    -0.267 OA
BRANCH  13  16
HETATM   16  C   UNL     1     -40.962  53.886 -52.756  1.00  0.00     0.035 A 
HETATM   17  C   UNL     1     -40.155  53.128 -51.903  1.00  0.00     0.031 A 
HETATM   18  C   UNL     1     -39.681  51.872 -52.299  1.00  0.00     0.026 A 
HETATM   19  C   UNL     1     -40.009  51.370 -53.554  1.00  0.00     0.034 A 
HETATM   20 CL   UNL     1     -39.413  49.835 -54.047  1.00  0.00    -0.084 Cl
HETATM   21  C   UNL     1     -40.817  52.110 -54.413  1.00  0.00     0.026 A 
HETATM   22  C   UNL     1     -41.297  53.362 -54.011  1.00  0.00     0.031 A 
ENDBRANCH  13  16
ENDBRANCH  10  12
BRANCH   9  23
HETATM   23  C   UNL     1     -42.854  58.444 -54.757  1.00  0.00     0.005 A 
HETATM   24  C   UNL     1     -42.969  57.706 -55.951  1.00  0.00     0.076 A 
HETATM   25  C   UNL     1     -42.674  58.312 -57.177  1.00  0.00     0.037 A 
HETATM   26  C   UNL     1     -42.241  59.639 -57.227  1.00  0.00     0.003 A 
HETATM   27  C   UNL     1     -42.093  60.368 -56.054  1.00  0.00     0.001 A 
HETATM   28  C   UNL     1     -42.391  59.776 -54.827  1.00  0.00     0.012 A 
BRANCH  24  29
HETATM   29  O   UNL     1     -43.391  56.411 -55.816  1.00  0.00    -0.355 OA
HETATM   30  C   UNL     1     -42.807  55.437 -56.673  1.00  0.00     0.210 C 
ENDBRANCH  24  29
ENDBRANCH   9  23
TORSDOF 4
ENDMDL
MODEL 5
REMARK VINA RESULT:      -7.3      3.344      5.413
REMARK  4 active torsions:
REMARK  status: ('A' for Active; 'I' for Inactive)
REMARK    1  A    between atoms: C_9  and  C_10 
REMARK    2  A    between atoms: C_11  and  O_12 
REMARK    3  A    between atoms: C_18  and  C_19 
REMARK       I    between atoms: C_19  and  N_20 
REMARK    4  A    between atoms: N_20  and  C_21 
ROOT
HETATM    1  C   UNL     1     -39.682  59.511 -50.561  1.00  0.00     0.070 C 
HETATM    2  C   UNL     1     -41.130  59.643 -50.962  1.00  0.00     0.037 C 
HETATM    3  N   UNL     1     -41.873  60.569 -50.235  1.00  0.00    -0.192 N 
HETATM    4  C   UNL     1     -43.221  60.588 -50.248  1.00  0.00     0.725 A 
HETATM    5  N   UNL     1     -43.897  59.821 -51.159  1.00  0.00    -0.084 N 
HETATM    6  N   UNL     1     -45.232  59.907 -50.976  1.00  0.00    -0.149 NA
HETATM    7  C   UNL     1     -45.285  60.773 -49.957  1.00  0.00     0.275 A 
HETATM    8  N   UNL     1     -44.078  61.219 -49.486  1.00  0.00    -0.054 NA
HETATM    9  C   UNL     1     -43.240  58.996 -52.186  1.00  0.00     0.205 C 
HETATM   10  C   UNL     1     -41.744  58.882 -51.904  1.00  0.00     0.063 C 
HETATM   11  H   UNL     1     -41.405  61.041 -49.464  1.00  0.00     0.184 HD
ENDROOT
BRANCH  10  12
HETATM   12  C   UNL     1     -41.065  57.775 -52.624  1.00  0.00     0.256 C 
HETATM   13  N   UNL     1     -41.451  56.524 -52.190  1.00  0.00    -0.323 N 
HETATM   14  H   UNL     1     -42.111  56.489 -51.424  1.00  0.00     0.169 HD
HETATM   15  O   UNL     1     -40.266  58.045 -53.509  1.00  0.00    -0.267 OA
BRANCH  13  16
HETATM   16  C   UNL     1     -41.082  55.283 -52.750  1.00  0.00     0.035 A 
HETATM   17  C   UNL     1     -40.945  55.056 -54.122  1.00  0.00     0.031 A 
HETATM   18  C   UNL     1     -40.607  53.787 -54.604  1.00  0.00     0.026 A 
HETATM   19  C   UNL     1     -40.409  52.736 -53.715  1.00  0.00     0.034 A 
HETATM   20 CL   UNL     1     -40.010  51.172 -54.309  1.00  0.00    -0.084 Cl
HETATM   21  C   UNL     1     -40.535  52.946 -52.345  1.00  0.00     0.026 A 
HETATM   22  C   UNL     1     -40.865  54.219 -51.865  1.00  0.00     0.031 A 
ENDBRANCH  13  16
ENDBRANCH  10  12
BRANCH   9  23
HETATM   23  C   UNL     1     -43.511  59.574 -53.578  1.00  0.00     0.005 A 
HETATM   24  C   UNL     1     -44.367  58.908 -54.476  1.00  0.00     0.076 A 
HETATM   25  C   UNL     1     -44.617  59.456 -55.739  1.00  0.00     0.037 A 
HETATM   26  C   UNL     1     -44.006  60.651 -56.129  1.00  0.00     0.003 A 
HETATM   27  C   UNL     1     -43.136  61.301 -55.263  1.00  0.00     0.001 A 
HETATM   28  C   UNL     1     -42.884  60.767 -54.000  1.00  0.00     0.012 A 
BRANCH  24  29
HETATM   29  O   UNL     1     -44.919  57.741 -54.023  1.00  0.00    -0.355 OA
HETATM   30  C   UNL     1     -44.343  56.521 -54.475  1.00  0.00     0.210 C 
ENDBRANCH  24  29
ENDBRANCH   9  23
TORSDOF 4
ENDMDL
MODEL 6
REMARK VINA RESULT:      -7.1      2.269      4.768
REMARK  4 active torsions:
REMARK  status: ('A' for Active; 'I' for Inactive)
REMARK    1  A    between atoms: C_9  and  C_10 
REMARK    2  A    between atoms: C_11  and  O_12 
REMARK    3  A    between atoms: C_18  and  C_19 
REMARK       I    between atoms: C_19  and  N_20 
REMARK    4  A    between atoms: N_20  and  C_21 
ROOT
HETATM    1  C   UNL     1     -44.390  59.978 -54.061  1.00  0.00     0.070 C 
HETATM    2  C   UNL     1     -44.735  59.408 -55.414  1.00  0.00     0.037 C 
HETATM    3  N   UNL     1     -45.801  60.021 -56.069  1.00  0.00    -0.192 N 
HETATM    4  C   UNL     1     -46.430  59.452 -57.118  1.00  0.00     0.725 A 
HETATM    5  N   UNL     1     -45.889  58.341 -57.707  1.00  0.00    -0.084 N 
HETATM    6  N   UNL     1     -46.690  57.868 -58.685  1.00  0.00    -0.149 NA
HETATM    7  C   UNL     1     -47.679  58.768 -58.651  1.00  0.00     0.275 A 
HETATM    8  N   UNL     1     -47.556  59.758 -57.711  1.00  0.00    -0.054 NA
HETATM    9  C   UNL     1     -44.611  57.735 -57.300  1.00  0.00     0.205 C 
HETATM   10  C   UNL     1     -44.139  58.323 -55.972  1.00  0.00     0.063 C 
HETATM   11  H   UNL     1     -46.292  60.759 -55.571  1.00  0.00     0.184 HD
ENDROOT
BRANCH  10  12
HETATM   12  C   UNL     1     -43.096  57.524 -55.281  1.00  0.00     0.256 C 
HETATM   13  N   UNL     1     -43.425  56.190 -55.154  1.00  0.00    -0.323 N 
HETATM   14  H   UNL     1     -44.332  55.908 -55.503  1.00  0.00     0.169 HD
HETATM   15  O   UNL     1     -42.073  58.081 -54.907  1.00  0.00    -0.267 OA
BRANCH  13  16
HETATM   16  C   UNL     1     -42.601  55.159 -54.658  1.00  0.00     0.035 A 
HETATM   17  C   UNL     1     -42.759  54.573 -53.399  1.00  0.00     0.031 A 
HETATM   18  C   UNL     1     -41.880  53.575 -52.962  1.00  0.00     0.026 A 
HETATM   19  C   UNL     1     -40.835  53.162 -53.781  1.00  0.00     0.034 A 
HETATM   20 CL   UNL     1     -39.745  51.949 -53.237  1.00  0.00    -0.084 Cl
HETATM   21  C   UNL     1     -40.667  53.732 -55.040  1.00  0.00     0.026 A 
HETATM   22  C   UNL     1     -41.553  54.723 -55.479  1.00  0.00     0.031 A 
ENDBRANCH  13  16
ENDBRANCH  10  12
BRANCH   9  23
HETATM   23  C   UNL     1     -43.565  57.921 -58.404  1.00  0.00     0.005 A 
HETATM   24  C   UNL     1     -43.052  56.809 -59.098  1.00  0.00     0.076 A 
HETATM   25  C   UNL     1     -42.109  56.996 -60.116  1.00  0.00     0.037 A 
HETATM   26  C   UNL     1     -41.653  58.277 -60.434  1.00  0.00     0.003 A 
HETATM   27  C   UNL     1     -42.129  59.379 -59.735  1.00  0.00     0.001 A 
HETATM   28  C   UNL     1     -43.073  59.205 -58.724  1.00  0.00     0.012 A 
BRANCH  24  29
HETATM   29  O   UNL     1     -43.543  55.588 -58.721  1.00  0.00    -0.355 OA
HETATM   30  C   UNL     1     -44.258  54.838 -59.697  1.00  0.00     0.210 C 
ENDBRANCH  24  29
ENDBRANCH   9  23
TORSDOF 4
ENDMDL
MODEL 7
REMARK VINA RESULT:      -6.9      2.130      4.391
REMARK  4 active torsions:
REMARK  status: ('A' for Active; 'I' for Inactive)
REMARK    1  A    between atoms: C_9  and  C_10 
REMARK    2  A    between atoms: C_11  and  O_12 
REMARK    3  A    between atoms: C_18  and  C_19 
REMARK       I    between atoms: C_19  and  N_20 
REMARK    4  A    between atoms: N_20  and  C_21 
ROOT
HETATM    1  C   UNL     1     -41.278  59.466 -53.603  1.00  0.00     0.070 C 
HETATM    2  C   UNL     1     -42.208  59.626 -54.780  1.00  0.00     0.037 C 
HETATM    3  N   UNL     1     -42.406  60.934 -55.215  1.00  0.00    -0.192 N 
HETATM    4  C   UNL     1     -43.424  61.280 -56.030  1.00  0.00     0.725 A 
HETATM    5  N   UNL     1     -44.171  60.301 -56.628  1.00  0.00    -0.084 N 
HETATM    6  N   UNL     1     -45.187  60.830 -57.343  1.00  0.00    -0.149 NA
HETATM    7  C   UNL     1     -44.966  62.136 -57.156  1.00  0.00     0.275 A 
HETATM    8  N   UNL     1     -43.893  62.455 -56.365  1.00  0.00    -0.054 NA
HETATM    9  C   UNL     1     -43.905  58.861 -56.483  1.00  0.00     0.205 C 
HETATM   10  C   UNL     1     -42.898  58.612 -55.364  1.00  0.00     0.063 C 
HETATM   11  H   UNL     1     -41.958  61.676 -54.683  1.00  0.00     0.184 HD
ENDROOT
BRANCH  10  12
HETATM   12  C   UNL     1     -42.857  57.213 -54.870  1.00  0.00     0.256 C 
HETATM   13  N   UNL     1     -41.584  56.684 -54.834  1.00  0.00    -0.323 N 
HETATM   14  H   UNL     1     -40.834  57.273 -55.172  1.00  0.00     0.169 HD
HETATM   15  O   UNL     1     -43.902  56.670 -54.539  1.00  0.00    -0.267 OA
BRANCH  13  16
HETATM   16  C   UNL     1     -41.202  55.433 -54.306  1.00  0.00     0.035 A 
HETATM   17  C   UNL     1     -41.282  55.101 -52.951  1.00  0.00     0.031 A 
HETATM   18  C   UNL     1     -40.852  53.849 -52.496  1.00  0.00     0.026 A 
HETATM   19  C   UNL     1     -40.336  52.923 -53.397  1.00  0.00     0.034 A 
HETATM   20 CL   UNL     1     -39.793  51.391 -52.836  1.00  0.00    -0.084 Cl
HETATM   21  C   UNL     1     -40.255  53.236 -54.751  1.00  0.00     0.026 A 
HETATM   22  C   UNL     1     -40.694  54.485 -55.204  1.00  0.00     0.031 A 
ENDBRANCH  13  16
ENDBRANCH  10  12
BRANCH   9  23
HETATM   23  C   UNL     1     -43.424  58.277 -57.816  1.00  0.00     0.005 A 
HETATM   24  C   UNL     1     -44.300  57.533 -58.629  1.00  0.00     0.076 A 
HETATM   25  C   UNL     1     -43.851  57.020 -59.852  1.00  0.00     0.037 A 
HETATM   26  C   UNL     1     -42.532  57.220 -60.264  1.00  0.00     0.003 A 
HETATM   27  C   UNL     1     -41.649  57.926 -59.456  1.00  0.00     0.001 A 
HETATM   28  C   UNL     1     -42.088  58.447 -58.239  1.00  0.00     0.012 A 
BRANCH  24  29
HETATM   29  O   UNL     1     -45.573  57.375 -58.152  1.00  0.00    -0.355 OA
HETATM   30  C   UNL     1     -46.647  57.699 -59.026  1.00  0.00     0.210 C 
ENDBRANCH  24  29
ENDBRANCH   9  23
TORSDOF 4
ENDMDL
MODEL 8
REMARK VINA RESULT:      -6.8      3.034      4.732
REMARK  4 active torsions:
REMARK  status: ('A' for Active; 'I' for Inactive)
REMARK    1  A    between atoms: C_9  and  C_10 
REMARK    2  A    between atoms: C_11  and  O_12 
REMARK    3  A    between atoms: C_18  and  C_19 
REMARK       I    between atoms: C_19  and  N_20 
REMARK    4  A    between atoms: N_20  and  C_21 
ROOT
HETATM    1  C   UNL     1     -41.215  56.638 -50.045  1.00  0.00     0.070 C 
HETATM    2  C   UNL     1     -42.231  57.232 -50.988  1.00  0.00     0.037 C 
HETATM    3  N   UNL     1     -42.599  58.549 -50.722  1.00  0.00    -0.192 N 
HETATM    4  C   UNL     1     -43.699  59.117 -51.258  1.00  0.00     0.725 A 
HETATM    5  N   UNL     1     -44.372  58.469 -52.259  1.00  0.00    -0.084 N 
HETATM    6  N   UNL     1     -45.483  59.146 -52.617  1.00  0.00    -0.149 NA
HETATM    7  C   UNL     1     -45.394  60.210 -51.811  1.00  0.00     0.275 A 
HETATM    8  N   UNL     1     -44.314  60.235 -50.969  1.00  0.00    -0.054 NA
HETATM    9  C   UNL     1     -43.941  57.189 -52.843  1.00  0.00     0.205 C 
HETATM   10  C   UNL     1     -42.843  56.555 -51.994  1.00  0.00     0.063 C 
HETATM   11  H   UNL     1     -42.201  58.987 -49.895  1.00  0.00     0.184 HD
ENDROOT
BRANCH  10  12
HETATM   12  C   UNL     1     -42.618  55.111 -52.255  1.00  0.00     0.256 C 
HETATM   13  N   UNL     1     -41.387  54.844 -52.819  1.00  0.00    -0.323 N 
HETATM   14  H   UNL     1     -40.796  55.639 -53.026  1.00  0.00     0.169 HD
HETATM   15  O   UNL     1     -43.491  54.310 -51.952  1.00  0.00    -0.267 OA
BRANCH  13  16
HETATM   16  C   UNL     1     -40.831  53.573 -53.073  1.00  0.00     0.035 A 
HETATM   17  C   UNL     1     -40.912  52.918 -54.305  1.00  0.00     0.031 A 
HETATM   18  C   UNL     1     -40.363  51.641 -54.471  1.00  0.00     0.026 A 
HETATM   19  C   UNL     1     -39.733  51.012 -53.403  1.00  0.00     0.034 A 
HETATM   20 CL   UNL     1     -39.072  49.437 -53.603  1.00  0.00    -0.084 Cl
HETATM   21  C   UNL     1     -39.638  51.653 -52.171  1.00  0.00     0.026 A 
HETATM   22  C   UNL     1     -40.180  52.933 -52.010  1.00  0.00     0.031 A 
ENDBRANCH  13  16
ENDBRANCH  10  12
BRANCH   9  23
HETATM   23  C   UNL     1     -43.487  57.398 -54.291  1.00  0.00     0.005 A 
HETATM   24  C   UNL     1     -42.635  58.468 -54.627  1.00  0.00     0.076 A 
HETATM   25  C   UNL     1     -42.214  58.636 -55.952  1.00  0.00     0.037 A 
HETATM   26  C   UNL     1     -42.651  57.764 -56.951  1.00  0.00     0.003 A 
HETATM   27  C   UNL     1     -43.517  56.723 -56.638  1.00  0.00     0.001 A 
HETATM   28  C   UNL     1     -43.937  56.543 -55.321  1.00  0.00     0.012 A 
BRANCH  24  29
HETATM   29  O   UNL     1     -42.258  59.281 -53.593  1.00  0.00    -0.355 OA
HETATM   30  C   UNL     1     -42.185  60.678 -53.849  1.00  0.00     0.210 C 
ENDBRANCH  24  29
ENDBRANCH   9  23
TORSDOF 4
ENDMDL
MODEL 9
REMARK VINA RESULT:      -6.7      2.526      4.632
REMARK  4 active torsions:
REMARK  status: ('A' for Active; 'I' for Inactive)
REMARK    1  A    between atoms: C_9  and  C_10 
REMARK    2  A    between atoms: C_11  and  O_12 
REMARK    3  A    between atoms: C_18  and  C_19 
REMARK       I    between atoms: C_19  and  N_20 
REMARK    4  A    between atoms: N_20  and  C_21 
ROOT
HETATM    1  C   UNL     1     -41.240  58.832 -51.484  1.00  0.00     0.070 C 
HETATM    2  C   UNL     1     -42.202  59.374 -52.512  1.00  0.00     0.037 C 
HETATM    3  N   UNL     1     -42.431  60.746 -52.455  1.00  0.00    -0.192 N 
HETATM    4  C   UNL     1     -43.474  61.333 -53.077  1.00  0.00     0.725 A 
HETATM    5  N   UNL     1     -44.221  60.611 -53.969  1.00  0.00    -0.084 N 
HETATM    6  N   UNL     1     -45.262  61.334 -54.433  1.00  0.00    -0.149 NA
HETATM    7  C   UNL     1     -45.057  62.495 -53.800  1.00  0.00     0.275 A 
HETATM    8  N   UNL     1     -43.970  62.540 -52.967  1.00  0.00    -0.054 NA
HETATM    9  C   UNL     1     -43.928  59.219 -54.346  1.00  0.00     0.205 C 
HETATM   10  C   UNL     1     -42.890  58.616 -53.404  1.00  0.00     0.063 C 
HETATM   11  H   UNL     1     -41.982  61.264 -51.703  1.00  0.00     0.184 HD
ENDROOT
BRANCH  10  12
HETATM   12  C   UNL     1     -42.815  57.133 -53.438  1.00  0.00     0.256 C 
HETATM   13  N   UNL     1     -41.561  56.657 -53.761  1.00  0.00    -0.323 N 
HETATM   14  H   UNL     1     -40.850  57.347 -53.971  1.00  0.00     0.169 HD
HETATM   15  O   UNL     1     -43.817  56.482 -53.176  1.00  0.00    -0.267 OA
BRANCH  13  16
HETATM   16  C   UNL     1     -41.139  55.311 -53.757  1.00  0.00     0.035 A 
HETATM   17  C   UNL     1     -41.116  54.505 -52.615  1.00  0.00     0.031 A 
HETATM   18  C   UNL     1     -40.653  53.186 -52.683  1.00  0.00     0.026 A 
HETATM   19  C   UNL     1     -40.206  52.669 -53.895  1.00  0.00     0.034 A 
HETATM   20 CL   UNL     1     -39.622  51.054 -53.975  1.00  0.00    -0.084 Cl
HETATM   21  C   UNL     1     -40.229  53.456 -55.042  1.00  0.00     0.026 A 
HETATM   22  C   UNL     1     -40.701  54.772 -54.973  1.00  0.00     0.031 A 
ENDBRANCH  13  16
ENDBRANCH  10  12
BRANCH   9  23
HETATM   23  C   UNL     1     -43.471  59.154 -55.807  1.00  0.00     0.005 A 
HETATM   24  C   UNL     1     -44.308  58.600 -56.795  1.00  0.00     0.076 A 
HETATM   25  C   UNL     1     -43.884  58.563 -58.128  1.00  0.00     0.037 A 
HETATM   26  C   UNL     1     -42.625  59.050 -58.487  1.00  0.00     0.003 A 
HETATM   27  C   UNL     1     -41.778  59.571 -57.516  1.00  0.00     0.001 A 
HETATM   28  C   UNL     1     -42.193  59.619 -56.186  1.00  0.00     0.012 A 
BRANCH  24  29
HETATM   29  O   UNL     1     -45.521  58.137 -56.362  1.00  0.00    -0.355 OA
HETATM   30  C   UNL     1     -46.618  58.228 -57.263  1.00  0.00     0.210 C 
ENDBRANCH  24  29
ENDBRANCH   9  23
TORSDOF 4
ENDMDL
MODEL 10
REMARK VINA RESULT:      -6.5     16.711     19.886
REMARK  4 active torsions:
REMARK  status: ('A' for Active; 'I' for Inactive)
REMARK    1  A    between atoms: C_9  and  C_10 
REMARK    2  A    between atoms: C_11  and  O_12 
REMARK    3  A    between atoms: C_18  and  C_19 
REMARK       I    between atoms: C_19  and  N_20 
REMARK    4  A    between atoms: N_20  and  C_21 
ROOT
HETATM    1  C   UNL     1     -37.008  40.103 -50.921  1.00  0.00     0.070 C 
HETATM    2  C   UNL     1     -35.505  39.980 -50.935  1.00  0.00     0.037 C 
HETATM    3  N   UNL     1     -34.946  39.333 -49.835  1.00  0.00    -0.192 N 
HETATM    4  C   UNL     1     -33.633  39.412 -49.538  1.00  0.00     0.725 A 
HETATM    5  N   UNL     1     -32.769  39.964 -50.446  1.00  0.00    -0.084 N 
HETATM    6  N   UNL     1     -31.515  40.028 -49.949  1.00  0.00    -0.149 NA
HETATM    7  C   UNL     1     -31.696  39.464 -48.749  1.00  0.00     0.275 A 
HETATM    8  N   UNL     1     -32.975  39.067 -48.461  1.00  0.00    -0.054 NA
HETATM    9  C   UNL     1     -33.172  40.442 -51.778  1.00  0.00     0.205 C 
HETATM   10  C   UNL     1     -34.693  40.514 -51.883  1.00  0.00     0.063 C 
HETATM   11  H   UNL     1     -35.579  39.044 -49.093  1.00  0.00     0.184 HD
ENDROOT
BRANCH  10  12
HETATM   12  C   UNL     1     -35.195  41.341 -53.009  1.00  0.00     0.256 C 
HETATM   13  N   UNL     1     -35.279  40.649 -54.199  1.00  0.00    -0.323 N 
HETATM   14  H   UNL     1     -34.965  39.687 -54.192  1.00  0.00     0.169 HD
HETATM   15  O   UNL     1     -35.491  42.509 -52.801  1.00  0.00    -0.267 OA
BRANCH  13  16
HETATM   16  C   UNL     1     -35.827  41.116 -55.413  1.00  0.00     0.035 A 
HETATM   17  C   UNL     1     -37.197  41.157 -55.684  1.00  0.00     0.031 A 
HETATM   18  C   UNL     1     -37.664  41.603 -56.926  1.00  0.00     0.026 A 
HETATM   19  C   UNL     1     -36.761  42.006 -57.904  1.00  0.00     0.034 A 
HETATM   20 CL   UNL     1     -37.334  42.538 -59.435  1.00  0.00    -0.084 Cl
HETATM   21  C   UNL     1     -35.393  41.976 -57.647  1.00  0.00     0.026 A 
HETATM   22  C   UNL     1     -34.929  41.538 -56.401  1.00  0.00     0.031 A 
ENDBRANCH  13  16
ENDBRANCH  10  12
BRANCH   9  23
HETATM   23  C   UNL     1     -32.572  39.544 -52.864  1.00  0.00     0.005 A 
HETATM   24  C   UNL     1     -32.762  38.149 -52.825  1.00  0.00     0.076 A 
HETATM   25  C   UNL     1     -32.222  37.342 -53.833  1.00  0.00     0.037 A 
HETATM   26  C   UNL     1     -31.474  37.906 -54.869  1.00  0.00     0.003 A 
HETATM   27  C   UNL     1     -31.253  39.277 -54.902  1.00  0.00     0.001 A 
HETATM   28  C   UNL     1     -31.792  40.091 -53.905  1.00  0.00     0.012 A 
BRANCH  24  29
HETATM   29  O   UNL     1     -33.499  37.674 -51.774  1.00  0.00    -0.355 OA
HETATM   30  C   UNL     1     -34.456  36.658 -52.049  1.00  0.00     0.210 C 
ENDBRANCH  24  29
ENDBRANCH   9  23
TORSDOF 4
ENDMDL
