MODEL 1
REMARK VINA RESULT:      -8.4      0.000      0.000
REMARK  9 active torsions:
REMARK  status: ('A' for Active; 'I' for Inactive)
REMARK    1  A    between atoms: C_2  and  N_3 
REMARK    2  A    between atoms: C_4  and  S_5 
REMARK    3  A    between atoms: S_5  and  C_6 
REMARK    4  A    between atoms: C_6  and  C_7 
REMARK       I    between atoms: C_7  and  N_8 
REMARK    5  A    between atoms: N_8  and  C_9 
REMARK    6  A    between atoms: C_12  and  O_13 
REMARK    7  A    between atoms: C_19  and  C_20 
REMARK    8  A    between atoms: C_23  and  S_24 
REMARK    9  A    between atoms: S_24  and  N_25 
ROOT
HETATM    1  N   UNL     1     -42.716  56.839 -53.395  1.00  0.00    -0.308 N 
HETATM    2  C   UNL     1     -41.743  56.664 -52.446  1.00  0.00     0.192 A 
HETATM    3  N   UNL     1     -40.611  56.340 -53.022  1.00  0.00    -0.122 NA
HETATM    4  N   UNL     1     -40.816  56.346 -54.375  1.00  0.00    -0.128 NA
HETATM    5  C   UNL     1     -42.078  56.668 -54.610  1.00  0.00     0.164 A 
ENDROOT
BRANCH   5   6
HETATM    6  C   UNL     1     -42.670  56.751 -55.944  1.00  0.00     0.012 A 
HETATM    7  C   UNL     1     -43.190  57.978 -56.383  1.00  0.00     0.017 A 
HETATM    8  C   UNL     1     -43.782  58.095 -57.643  1.00  0.00     0.026 A 
HETATM    9  C   UNL     1     -43.870  56.970 -58.465  1.00  0.00     0.074 A 
HETATM   10  C   UNL     1     -43.380  55.734 -58.038  1.00  0.00     0.026 A 
HETATM   11  C   UNL     1     -42.786  55.629 -56.776  1.00  0.00     0.017 A 
BRANCH   9  12
HETATM   12  S   UNL     1     -44.632  57.116 -60.054  1.00  0.00     0.243 S 
HETATM   13  O   UNL     1     -44.298  58.411 -60.596  1.00  0.00    -0.206 OA
HETATM   14  O   UNL     1     -44.405  55.901 -60.807  1.00  0.00    -0.206 OA
BRANCH  12  15
HETATM   15  N   UNL     1     -46.311  57.120 -59.702  1.00  0.00    -0.203 NA
HETATM   16  C   UNL     1     -47.142  56.118 -60.442  1.00  0.00     0.135 C 
HETATM   17  C   UNL     1     -47.510  56.578 -61.871  1.00  0.00     0.250 C 
HETATM   18  N   UNL     1     -48.103  57.984 -61.864  1.00  0.00    -0.073 N 
HETATM   19  H   UNL     1     -48.990  57.942 -61.345  1.00  0.00     0.279 HD
HETATM   20  C   UNL     1     -48.427  58.455 -63.254  1.00  0.00     0.269 C 
HETATM   21  C   UNL     1     -47.196  58.976 -61.137  1.00  0.00     0.250 C 
HETATM   22  C   UNL     1     -46.933  58.480 -59.707  1.00  0.00     0.135 C 
ENDBRANCH  12  15
ENDBRANCH   9  12
ENDBRANCH   5   6
BRANCH   1  23
HETATM   23  C   UNL     1     -44.140  56.992 -53.164  1.00  0.00     0.128 C 
HETATM   24  C   UNL     1     -44.589  58.437 -53.024  1.00  0.00     0.027 C 
ENDBRANCH   1  23
BRANCH   2  25
HETATM   25  S   UNL     1     -41.994  56.853 -50.748  1.00  0.00    -0.081 SA
BRANCH  25  26
HETATM   26  C   UNL     1     -41.016  55.478 -50.079  1.00  0.00     0.185 C 
BRANCH  26  27
HETATM   27  C   UNL     1     -41.292  54.182 -50.827  1.00  0.00     0.231 C 
HETATM   28  N   UNL     1     -40.143  53.600 -51.336  1.00  0.00    -0.327 N 
HETATM   29  H   UNL     1     -39.263  53.951 -50.958  1.00  0.00     0.169 HD
HETATM   30  O   UNL     1     -42.436  53.750 -50.945  1.00  0.00    -0.272 OA
BRANCH  28  31
HETATM   31  C   UNL     1     -40.037  52.492 -52.198  1.00  0.00     0.034 A 
HETATM   32  C   UNL     1     -40.444  52.682 -53.526  1.00  0.00     0.032 A 
HETATM   33  C   UNL     1     -40.413  51.627 -54.443  1.00  0.00     0.039 A 
HETATM   34  C   UNL     1     -39.967  50.380 -54.026  1.00  0.00     0.065 A 
HETATM   35  C   UNL     1     -39.550  50.176 -52.716  1.00  0.00     0.039 A 
HETATM   36  C   UNL     1     -39.590  51.231 -51.800  1.00  0.00     0.032 A 
BRANCH  34  37
HETATM   37  O   UNL     1     -39.926  49.317 -54.880  1.00  0.00    -0.361 OA
HETATM   38  H   UNL     1     -40.766  48.835 -54.817  1.00  0.00     0.217 HD
ENDBRANCH  34  37
ENDBRANCH  28  31
ENDBRANCH  26  27
ENDBRANCH  25  26
ENDBRANCH   2  25
TORSDOF 9
ENDMDL
MODEL 2
REMARK VINA RESULT:      -8.3      2.835      3.430
REMARK  9 active torsions:
REMARK  status: ('A' for Active; 'I' for Inactive)
REMARK    1  A    between atoms: C_2  and  N_3 
REMARK    2  A    between atoms: C_4  and  S_5 
REMARK    3  A    between atoms: S_5  and  C_6 
REMARK    4  A    between atoms: C_6  and  C_7 
REMARK       I    between atoms: C_7  and  N_8 
REMARK    5  A    between atoms: N_8  and  C_9 
REMARK    6  A    between atoms: C_12  and  O_13 
REMARK    7  A    between atoms: C_19  and  C_20 
REMARK    8  A    between atoms: C_23  and  S_24 
REMARK    9  A    between atoms: S_24  and  N_25 
ROOT
HETATM    1  N   UNL     1     -42.143  55.889 -51.642  1.00  0.00    -0.308 N 
HETATM    2  C   UNL     1     -42.274  55.088 -50.538  1.00  0.00     0.192 A 
HETATM    3  N   UNL     1     -43.104  54.106 -50.794  1.00  0.00    -0.122 NA
HETATM    4  N   UNL     1     -43.494  54.222 -52.100  1.00  0.00    -0.128 NA
HETATM    5  C   UNL     1     -42.901  55.281 -52.626  1.00  0.00     0.164 A 
ENDROOT
BRANCH   5   6
HETATM    6  C   UNL     1     -43.098  55.735 -54.002  1.00  0.00     0.012 A 
HETATM    7  C   UNL     1     -42.326  55.163 -55.025  1.00  0.00     0.017 A 
HETATM    8  C   UNL     1     -42.470  55.581 -56.349  1.00  0.00     0.026 A 
HETATM    9  C   UNL     1     -43.382  56.594 -56.653  1.00  0.00     0.074 A 
HETATM   10  C   UNL     1     -44.144  57.192 -55.647  1.00  0.00     0.026 A 
HETATM   11  C   UNL     1     -43.995  56.763 -54.324  1.00  0.00     0.017 A 
BRANCH   9  12
HETATM   12  S   UNL     1     -43.553  57.132 -58.328  1.00  0.00     0.243 S 
HETATM   13  O   UNL     1     -43.615  55.963 -59.172  1.00  0.00    -0.206 OA
HETATM   14  O   UNL     1     -44.562  58.167 -58.398  1.00  0.00    -0.206 OA
BRANCH  12  15
HETATM   15  N   UNL     1     -42.069  57.928 -58.654  1.00  0.00    -0.203 NA
HETATM   16  C   UNL     1     -41.833  59.211 -57.919  1.00  0.00     0.135 C 
HETATM   17  C   UNL     1     -42.545  60.418 -58.570  1.00  0.00     0.250 C 
HETATM   18  N   UNL     1     -42.240  60.500 -60.064  1.00  0.00    -0.073 N 
HETATM   19  H   UNL     1     -41.233  60.680 -60.163  1.00  0.00     0.279 HD
HETATM   20  C   UNL     1     -42.961  61.648 -60.714  1.00  0.00     0.269 C 
HETATM   21  C   UNL     1     -42.540  59.181 -60.774  1.00  0.00     0.250 C 
HETATM   22  C   UNL     1     -41.746  58.046 -60.110  1.00  0.00     0.135 C 
ENDBRANCH  12  15
ENDBRANCH   9  12
ENDBRANCH   5   6
BRANCH   1  23
HETATM   23  C   UNL     1     -41.494  57.184 -51.706  1.00  0.00     0.128 C 
HETATM   24  C   UNL     1     -42.397  58.344 -51.320  1.00  0.00     0.027 C 
ENDBRANCH   1  23
BRANCH   2  25
HETATM   25  S   UNL     1     -41.455  55.353 -49.040  1.00  0.00    -0.081 SA
BRANCH  25  26
HETATM   26  C   UNL     1     -39.857  54.551 -49.352  1.00  0.00     0.185 C 
BRANCH  26  27
HETATM   27  C   UNL     1     -40.033  53.194 -50.017  1.00  0.00     0.231 C 
HETATM   28  N   UNL     1     -39.542  53.161 -51.311  1.00  0.00    -0.327 N 
HETATM   29  H   UNL     1     -38.925  53.930 -51.571  1.00  0.00     0.169 HD
HETATM   30  O   UNL     1     -40.572  52.263 -49.422  1.00  0.00    -0.272 OA
BRANCH  28  31
HETATM   31  C   UNL     1     -39.669  52.133 -52.264  1.00  0.00     0.034 A 
HETATM   32  C   UNL     1     -40.194  52.490 -53.515  1.00  0.00     0.032 A 
HETATM   33  C   UNL     1     -40.393  51.527 -54.508  1.00  0.00     0.039 A 
HETATM   34  C   UNL     1     -40.061  50.204 -54.248  1.00  0.00     0.065 A 
HETATM   35  C   UNL     1     -39.531  49.835 -53.018  1.00  0.00     0.039 A 
HETATM   36  C   UNL     1     -39.339  50.798 -52.024  1.00  0.00     0.032 A 
BRANCH  34  37
HETATM   37  O   UNL     1     -40.246  49.228 -55.182  1.00  0.00    -0.361 OA
HETATM   38  H   UNL     1     -39.689  48.467 -54.951  1.00  0.00     0.217 HD
ENDBRANCH  34  37
ENDBRANCH  28  31
ENDBRANCH  26  27
ENDBRANCH  25  26
ENDBRANCH   2  25
TORSDOF 9
ENDMDL
MODEL 3
REMARK VINA RESULT:      -7.9      5.172      8.874
REMARK  9 active torsions:
REMARK  status: ('A' for Active; 'I' for Inactive)
REMARK    1  A    between atoms: C_2  and  N_3 
REMARK    2  A    between atoms: C_4  and  S_5 
REMARK    3  A    between atoms: S_5  and  C_6 
REMARK    4  A    between atoms: C_6  and  C_7 
REMARK       I    between atoms: C_7  and  N_8 
REMARK    5  A    between atoms: N_8  and  C_9 
REMARK    6  A    between atoms: C_12  and  O_13 
REMARK    7  A    between atoms: C_19  and  C_20 
REMARK    8  A    between atoms: C_23  and  S_24 
REMARK    9  A    between atoms: S_24  and  N_25 
ROOT
HETATM    1  N   UNL     1     -43.890  57.046 -53.414  1.00  0.00    -0.308 N 
HETATM    2  C   UNL     1     -43.459  55.752 -53.549  1.00  0.00     0.192 A 
HETATM    3  N   UNL     1     -43.082  55.282 -52.384  1.00  0.00    -0.122 NA
HETATM    4  N   UNL     1     -43.311  56.256 -51.450  1.00  0.00    -0.128 NA
HETATM    5  C   UNL     1     -43.820  57.315 -52.059  1.00  0.00     0.164 A 
ENDROOT
BRANCH   5   6
HETATM    6  C   UNL     1     -44.168  58.563 -51.382  1.00  0.00     0.012 A 
HETATM    7  C   UNL     1     -45.509  58.803 -51.046  1.00  0.00     0.017 A 
HETATM    8  C   UNL     1     -45.888  59.990 -50.416  1.00  0.00     0.026 A 
HETATM    9  C   UNL     1     -44.919  60.955 -50.134  1.00  0.00     0.074 A 
HETATM   10  C   UNL     1     -43.582  60.746 -50.480  1.00  0.00     0.026 A 
HETATM   11  C   UNL     1     -43.213  59.551 -51.108  1.00  0.00     0.017 A 
BRANCH   9  12
HETATM   12  S   UNL     1     -45.401  62.464 -49.349  1.00  0.00     0.243 S 
HETATM   13  O   UNL     1     -44.258  62.987 -48.638  1.00  0.00    -0.206 OA
HETATM   14  O   UNL     1     -46.141  63.278 -50.290  1.00  0.00    -0.206 OA
BRANCH  12  15
HETATM   15  N   UNL     1     -46.553  61.966 -48.181  1.00  0.00    -0.203 NA
HETATM   16  C   UNL     1     -47.565  62.992 -47.774  1.00  0.00     0.135 C 
HETATM   17  C   UNL     1     -47.027  63.985 -46.720  1.00  0.00     0.250 C 
HETATM   18  N   UNL     1     -46.388  63.251 -45.543  1.00  0.00    -0.073 N 
HETATM   19  H   UNL     1     -47.131  62.717 -45.073  1.00  0.00     0.279 HD
HETATM   20  C   UNL     1     -45.825  64.209 -44.531  1.00  0.00     0.269 C 
HETATM   21  C   UNL     1     -45.332  62.249 -46.009  1.00  0.00     0.250 C 
HETATM   22  C   UNL     1     -45.962  61.260 -47.002  1.00  0.00     0.135 C 
ENDBRANCH  12  15
ENDBRANCH   9  12
ENDBRANCH   5   6
BRANCH   1  23
HETATM   23  C   UNL     1     -44.185  57.982 -54.481  1.00  0.00     0.128 C 
HETATM   24  C   UNL     1     -42.986  58.799 -54.932  1.00  0.00     0.027 C 
ENDBRANCH   1  23
BRANCH   2  25
HETATM   25  S   UNL     1     -43.430  54.887 -55.044  1.00  0.00    -0.081 SA
BRANCH  25  26
HETATM   26  C   UNL     1     -41.756  55.251 -55.643  1.00  0.00     0.185 C 
BRANCH  26  27
HETATM   27  C   UNL     1     -40.723  54.331 -55.007  1.00  0.00     0.231 C 
HETATM   28  N   UNL     1     -41.295  53.301 -54.279  1.00  0.00    -0.327 N 
HETATM   29  H   UNL     1     -42.287  53.136 -54.450  1.00  0.00     0.169 HD
HETATM   30  O   UNL     1     -39.520  54.537 -55.149  1.00  0.00    -0.272 OA
BRANCH  28  31
HETATM   31  C   UNL     1     -40.656  52.366 -53.445  1.00  0.00     0.034 A 
HETATM   32  C   UNL     1     -40.307  51.136 -54.024  1.00  0.00     0.032 A 
HETATM   33  C   UNL     1     -39.705  50.131 -53.261  1.00  0.00     0.039 A 
HETATM   34  C   UNL     1     -39.448  50.362 -51.916  1.00  0.00     0.065 A 
HETATM   35  C   UNL     1     -39.778  51.577 -51.329  1.00  0.00     0.039 A 
HETATM   36  C   UNL     1     -40.387  52.578 -52.092  1.00  0.00     0.032 A 
BRANCH  34  37
HETATM   37  O   UNL     1     -38.872  49.410 -51.129  1.00  0.00    -0.361 OA
HETATM   38  H   UNL     1     -38.315  49.849 -50.466  1.00  0.00     0.217 HD
ENDBRANCH  34  37
ENDBRANCH  28  31
ENDBRANCH  26  27
ENDBRANCH  25  26
ENDBRANCH   2  25
TORSDOF 9
ENDMDL
MODEL 4
REMARK VINA RESULT:      -7.7      5.673      9.193
REMARK  9 active torsions:
REMARK  status: ('A' for Active; 'I' for Inactive)
REMARK    1  A    between atoms: C_2  and  N_3 
REMARK    2  A    between atoms: C_4  and  S_5 
REMARK    3  A    between atoms: S_5  and  C_6 
REMARK    4  A    between atoms: C_6  and  C_7 
REMARK       I    between atoms: C_7  and  N_8 
REMARK    5  A    between atoms: N_8  and  C_9 
REMARK    6  A    between atoms: C_12  and  O_13 
REMARK    7  A    between atoms: C_19  and  C_20 
REMARK    8  A    between atoms: C_23  and  S_24 
REMARK    9  A    between atoms: S_24  and  N_25 
ROOT
HETATM    1  N   UNL     1     -42.054  58.766 -52.460  1.00  0.00    -0.308 N 
HETATM    2  C   UNL     1     -41.420  58.379 -53.612  1.00  0.00     0.192 A 
HETATM    3  N   UNL     1     -41.484  59.339 -54.502  1.00  0.00    -0.122 NA
HETATM    4  N   UNL     1     -42.126  60.400 -53.923  1.00  0.00    -0.128 NA
HETATM    5  C   UNL     1     -42.452  60.071 -52.683  1.00  0.00     0.164 A 
ENDROOT
BRANCH   5   6
HETATM    6  C   UNL     1     -43.174  60.949 -51.764  1.00  0.00     0.012 A 
HETATM    7  C   UNL     1     -44.560  61.106 -51.919  1.00  0.00     0.017 A 
HETATM    8  C   UNL     1     -45.284  61.950 -51.075  1.00  0.00     0.026 A 
HETATM    9  C   UNL     1     -44.614  62.658 -50.075  1.00  0.00     0.074 A 
HETATM   10  C   UNL     1     -43.232  62.534 -49.918  1.00  0.00     0.026 A 
HETATM   11  C   UNL     1     -42.517  61.683 -50.767  1.00  0.00     0.017 A 
BRANCH   9  12
HETATM   12  S   UNL     1     -45.530  63.737 -49.015  1.00  0.00     0.243 S 
HETATM   13  O   UNL     1     -44.590  64.557 -48.288  1.00  0.00    -0.206 OA
HETATM   14  O   UNL     1     -46.624  64.323 -49.758  1.00  0.00    -0.206 OA
BRANCH  12  15
HETATM   15  N   UNL     1     -46.267  62.674 -47.890  1.00  0.00    -0.203 NA
HETATM   16  C   UNL     1     -47.641  63.052 -47.429  1.00  0.00     0.135 C 
HETATM   17  C   UNL     1     -47.630  64.118 -46.311  1.00  0.00     0.250 C 
HETATM   18  N   UNL     1     -46.688  63.721 -45.176  1.00  0.00    -0.073 N 
HETATM   19  H   UNL     1     -47.066  62.866 -44.747  1.00  0.00     0.279 HD
HETATM   20  C   UNL     1     -46.640  64.771 -44.103  1.00  0.00     0.269 C 
HETATM   21  C   UNL     1     -45.290  63.389 -45.694  1.00  0.00     0.250 C 
HETATM   22  C   UNL     1     -45.381  62.279 -46.752  1.00  0.00     0.135 C 
ENDBRANCH  12  15
ENDBRANCH   9  12
ENDBRANCH   5   6
BRANCH   1  23
HETATM   23  C   UNL     1     -42.389  57.927 -51.326  1.00  0.00     0.128 C 
HETATM   24  C   UNL     1     -43.789  57.339 -51.387  1.00  0.00     0.027 C 
ENDBRANCH   1  23
BRANCH   2  25
HETATM   25  S   UNL     1     -40.653  56.847 -53.832  1.00  0.00    -0.081 SA
BRANCH  25  26
HETATM   26  C   UNL     1     -42.067  55.786 -54.241  1.00  0.00     0.185 C 
BRANCH  26  27
HETATM   27  C   UNL     1     -41.964  54.430 -53.556  1.00  0.00     0.231 C 
HETATM   28  N   UNL     1     -40.713  53.853 -53.690  1.00  0.00    -0.327 N 
HETATM   29  H   UNL     1     -39.967  54.477 -53.998  1.00  0.00     0.169 HD
HETATM   30  O   UNL     1     -42.928  53.944 -52.969  1.00  0.00    -0.272 OA
BRANCH  28  31
HETATM   31  C   UNL     1     -40.309  52.557 -53.319  1.00  0.00     0.034 A 
HETATM   32  C   UNL     1     -40.344  51.573 -54.318  1.00  0.00     0.032 A 
HETATM   33  C   UNL     1     -39.999  50.249 -54.031  1.00  0.00     0.039 A 
HETATM   34  C   UNL     1     -39.612  49.913 -52.741  1.00  0.00     0.065 A 
HETATM   35  C   UNL     1     -39.562  50.877 -51.741  1.00  0.00     0.039 A 
HETATM   36  C   UNL     1     -39.915  52.199 -52.029  1.00  0.00     0.032 A 
BRANCH  34  37
HETATM   37  O   UNL     1     -39.276  48.634 -52.409  1.00  0.00    -0.361 OA
HETATM   38  H   UNL     1     -40.032  48.055 -52.595  1.00  0.00     0.217 HD
ENDBRANCH  34  37
ENDBRANCH  28  31
ENDBRANCH  26  27
ENDBRANCH  25  26
ENDBRANCH   2  25
TORSDOF 9
ENDMDL
MODEL 5
REMARK VINA RESULT:      -7.7      2.312      2.861
REMARK  9 active torsions:
REMARK  status: ('A' for Active; 'I' for Inactive)
REMARK    1  A    between atoms: C_2  and  N_3 
REMARK    2  A    between atoms: C_4  and  S_5 
REMARK    3  A    between atoms: S_5  and  C_6 
REMARK    4  A    between atoms: C_6  and  C_7 
REMARK       I    between atoms: C_7  and  N_8 
REMARK    5  A    between atoms: N_8  and  C_9 
REMARK    6  A    between atoms: C_12  and  O_13 
REMARK    7  A    between atoms: C_19  and  C_20 
REMARK    8  A    between atoms: C_23  and  S_24 
REMARK    9  A    between atoms: S_24  and  N_25 
ROOT
HETATM    1  N   UNL     1     -42.091  57.551 -53.263  1.00  0.00    -0.308 N 
HETATM    2  C   UNL     1     -42.171  56.898 -52.061  1.00  0.00     0.192 A 
HETATM    3  N   UNL     1     -43.135  56.010 -52.098  1.00  0.00    -0.122 NA
HETATM    4  N   UNL     1     -43.673  56.033 -53.355  1.00  0.00    -0.128 NA
HETATM    5  C   UNL     1     -43.033  56.943 -54.072  1.00  0.00     0.164 A 
ENDROOT
BRANCH   5   6
HETATM    6  C   UNL     1     -43.352  57.267 -55.462  1.00  0.00     0.012 A 
HETATM    7  C   UNL     1     -42.477  56.849 -56.476  1.00  0.00     0.017 A 
HETATM    8  C   UNL     1     -42.734  57.153 -57.814  1.00  0.00     0.026 A 
HETATM    9  C   UNL     1     -43.869  57.898 -58.142  1.00  0.00     0.074 A 
HETATM   10  C   UNL     1     -44.741  58.343 -57.146  1.00  0.00     0.026 A 
HETATM   11  C   UNL     1     -44.476  58.029 -55.809  1.00  0.00     0.017 A 
BRANCH   9  12
HETATM   12  S   UNL     1     -44.186  58.295 -59.835  1.00  0.00     0.243 S 
HETATM   13  O   UNL     1     -43.116  57.747 -60.633  1.00  0.00    -0.206 OA
HETATM   14  O   UNL     1     -45.574  58.018 -60.140  1.00  0.00    -0.206 OA
BRANCH  12  15
HETATM   15  N   UNL     1     -44.048  60.004 -59.885  1.00  0.00    -0.203 NA
HETATM   16  C   UNL     1     -44.970  60.713 -60.828  1.00  0.00     0.135 C 
HETATM   17  C   UNL     1     -44.468  60.697 -62.289  1.00  0.00     0.250 C 
HETATM   18  N   UNL     1     -43.017  61.164 -62.381  1.00  0.00    -0.073 N 
HETATM   19  H   UNL     1     -42.991  62.148 -62.085  1.00  0.00     0.279 HD
HETATM   20  C   UNL     1     -42.507  61.113 -63.794  1.00  0.00     0.269 C 
HETATM   21  C   UNL     1     -42.111  60.379 -61.434  1.00  0.00     0.250 C 
HETATM   22  C   UNL     1     -42.640  60.499 -59.996  1.00  0.00     0.135 C 
ENDBRANCH  12  15
ENDBRANCH   9  12
ENDBRANCH   5   6
BRANCH   1  23
HETATM   23  C   UNL     1     -41.310  58.736 -53.561  1.00  0.00     0.128 C 
HETATM   24  C   UNL     1     -42.106  60.030 -53.493  1.00  0.00     0.027 C 
ENDBRANCH   1  23
BRANCH   2  25
HETATM   25  S   UNL     1     -41.141  57.216 -50.711  1.00  0.00    -0.081 SA
BRANCH  25  26
HETATM   26  C   UNL     1     -41.343  55.700 -49.733  1.00  0.00     0.185 C 
BRANCH  26  27
HETATM   27  C   UNL     1     -40.444  54.583 -50.243  1.00  0.00     0.231 C 
HETATM   28  N   UNL     1     -40.953  53.953 -51.367  1.00  0.00    -0.327 N 
HETATM   29  H   UNL     1     -41.704  54.446 -51.849  1.00  0.00     0.169 HD
HETATM   30  O   UNL     1     -39.393  54.305 -49.671  1.00  0.00    -0.272 OA
BRANCH  28  31
HETATM   31  C   UNL     1     -40.472  52.797 -52.009  1.00  0.00     0.034 A 
HETATM   32  C   UNL     1     -40.615  52.742 -53.403  1.00  0.00     0.032 A 
HETATM   33  C   UNL     1     -40.203  51.615 -54.120  1.00  0.00     0.039 A 
HETATM   34  C   UNL     1     -39.642  50.543 -53.438  1.00  0.00     0.065 A 
HETATM   35  C   UNL     1     -39.484  50.585 -52.058  1.00  0.00     0.039 A 
HETATM   36  C   UNL     1     -39.904  51.710 -51.342  1.00  0.00     0.032 A 
BRANCH  34  37
HETATM   37  O   UNL     1     -39.234  49.419 -54.092  1.00  0.00    -0.361 OA
HETATM   38  H   UNL     1     -38.301  49.522 -54.337  1.00  0.00     0.217 HD
ENDBRANCH  34  37
ENDBRANCH  28  31
ENDBRANCH  26  27
ENDBRANCH  25  26
ENDBRANCH   2  25
TORSDOF 9
ENDMDL
MODEL 6
REMARK VINA RESULT:      -7.4      6.409     11.695
REMARK  9 active torsions:
REMARK  status: ('A' for Active; 'I' for Inactive)
REMARK    1  A    between atoms: C_2  and  N_3 
REMARK    2  A    between atoms: C_4  and  S_5 
REMARK    3  A    between atoms: S_5  and  C_6 
REMARK    4  A    between atoms: C_6  and  C_7 
REMARK       I    between atoms: C_7  and  N_8 
REMARK    5  A    between atoms: N_8  and  C_9 
REMARK    6  A    between atoms: C_12  and  O_13 
REMARK    7  A    between atoms: C_19  and  C_20 
REMARK    8  A    between atoms: C_23  and  S_24 
REMARK    9  A    between atoms: S_24  and  N_25 
ROOT
HETATM    1  N   UNL     1     -46.400  62.261 -50.371  1.00  0.00    -0.308 N 
HETATM    2  C   UNL     1     -47.067  62.913 -49.368  1.00  0.00     0.192 A 
HETATM    3  N   UNL     1     -46.935  62.255 -48.241  1.00  0.00    -0.122 NA
HETATM    4  N   UNL     1     -46.127  61.177 -48.483  1.00  0.00    -0.128 NA
HETATM    5  C   UNL     1     -45.781  61.186 -49.760  1.00  0.00     0.164 A 
ENDROOT
BRANCH   5   6
HETATM    6  C   UNL     1     -44.939  60.170 -50.389  1.00  0.00     0.012 A 
HETATM    7  C   UNL     1     -45.496  58.919 -50.695  1.00  0.00     0.017 A 
HETATM    8  C   UNL     1     -44.722  57.914 -51.280  1.00  0.00     0.026 A 
HETATM    9  C   UNL     1     -43.372  58.156 -51.545  1.00  0.00     0.074 A 
HETATM   10  C   UNL     1     -42.793  59.386 -51.228  1.00  0.00     0.026 A 
HETATM   11  C   UNL     1     -43.578  60.387 -50.647  1.00  0.00     0.017 A 
BRANCH   9  12
HETATM   12  S   UNL     1     -42.390  56.879 -52.272  1.00  0.00     0.243 S 
HETATM   13  O   UNL     1     -42.699  56.819 -53.680  1.00  0.00    -0.206 OA
HETATM   14  O   UNL     1     -41.026  56.999 -51.803  1.00  0.00    -0.206 OA
BRANCH  12  15
HETATM   15  N   UNL     1     -42.988  55.443 -51.549  1.00  0.00    -0.203 NA
HETATM   16  C   UNL     1     -42.397  55.076 -50.223  1.00  0.00     0.135 C 
HETATM   17  C   UNL     1     -41.033  54.363 -50.349  1.00  0.00     0.250 C 
HETATM   18  N   UNL     1     -41.105  53.198 -51.333  1.00  0.00    -0.073 N 
HETATM   19  H   UNL     1     -41.751  52.502 -50.940  1.00  0.00     0.279 HD
HETATM   20  C   UNL     1     -39.771  52.523 -51.492  1.00  0.00     0.269 C 
HETATM   21  C   UNL     1     -41.672  53.635 -52.683  1.00  0.00     0.250 C 
HETATM   22  C   UNL     1     -43.055  54.273 -52.479  1.00  0.00     0.135 C 
ENDBRANCH  12  15
ENDBRANCH   9  12
ENDBRANCH   5   6
BRANCH   1  23
HETATM   23  C   UNL     1     -46.474  62.541 -51.792  1.00  0.00     0.128 C 
HETATM   24  C   UNL     1     -47.401  61.608 -52.554  1.00  0.00     0.027 C 
ENDBRANCH   1  23
BRANCH   2  25
HETATM   25  S   UNL     1     -47.945  64.386 -49.579  1.00  0.00    -0.081 SA
BRANCH  25  26
HETATM   26  C   UNL     1     -49.652  63.779 -49.700  1.00  0.00     0.185 C 
BRANCH  26  27
HETATM   27  C   UNL     1     -50.128  63.738 -51.146  1.00  0.00     0.231 C 
HETATM   28  N   UNL     1     -51.294  63.009 -51.307  1.00  0.00    -0.327 N 
HETATM   29  H   UNL     1     -51.811  62.805 -50.452  1.00  0.00     0.169 HD
HETATM   30  O   UNL     1     -49.498  64.303 -52.036  1.00  0.00    -0.272 OA
BRANCH  28  31
HETATM   31  C   UNL     1     -51.929  62.638 -52.507  1.00  0.00     0.034 A 
HETATM   32  C   UNL     1     -52.968  63.467 -52.955  1.00  0.00     0.032 A 
HETATM   33  C   UNL     1     -53.682  63.155 -54.116  1.00  0.00     0.039 A 
HETATM   34  C   UNL     1     -53.350  62.011 -54.830  1.00  0.00     0.065 A 
HETATM   35  C   UNL     1     -52.317  61.184 -54.406  1.00  0.00     0.039 A 
HETATM   36  C   UNL     1     -51.609  61.495 -53.241  1.00  0.00     0.032 A 
BRANCH  34  37
HETATM   37  O   UNL     1     -54.024  61.659 -55.962  1.00  0.00    -0.361 OA
HETATM   38  H   UNL     1     -54.440  62.452 -56.337  1.00  0.00     0.217 HD
ENDBRANCH  34  37
ENDBRANCH  28  31
ENDBRANCH  26  27
ENDBRANCH  25  26
ENDBRANCH   2  25
TORSDOF 9
ENDMDL
MODEL 7
REMARK VINA RESULT:      -7.3      5.410      6.557
REMARK  9 active torsions:
REMARK  status: ('A' for Active; 'I' for Inactive)
REMARK    1  A    between atoms: C_2  and  N_3 
REMARK    2  A    between atoms: C_4  and  S_5 
REMARK    3  A    between atoms: S_5  and  C_6 
REMARK    4  A    between atoms: C_6  and  C_7 
REMARK       I    between atoms: C_7  and  N_8 
REMARK    5  A    between atoms: N_8  and  C_9 
REMARK    6  A    between atoms: C_12  and  O_13 
REMARK    7  A    between atoms: C_19  and  C_20 
REMARK    8  A    between atoms: C_23  and  S_24 
REMARK    9  A    between atoms: S_24  and  N_25 
ROOT
HETATM    1  N   UNL     1     -43.706  59.056 -52.579  1.00  0.00    -0.308 N 
HETATM    2  C   UNL     1     -42.341  58.947 -52.643  1.00  0.00     0.192 A 
HETATM    3  N   UNL     1     -41.818  60.094 -53.004  1.00  0.00    -0.122 NA
HETATM    4  N   UNL     1     -42.840  60.994 -53.134  1.00  0.00    -0.128 NA
HETATM    5  C   UNL     1     -43.980  60.383 -52.857  1.00  0.00     0.164 A 
ENDROOT
BRANCH   5   6
HETATM    6  C   UNL     1     -45.292  61.025 -52.915  1.00  0.00     0.012 A 
HETATM    7  C   UNL     1     -45.797  61.429 -54.161  1.00  0.00     0.017 A 
HETATM    8  C   UNL     1     -47.038  62.063 -54.258  1.00  0.00     0.026 A 
HETATM    9  C   UNL     1     -47.774  62.312 -53.098  1.00  0.00     0.074 A 
HETATM   10  C   UNL     1     -47.279  61.938 -51.846  1.00  0.00     0.026 A 
HETATM   11  C   UNL     1     -46.037  61.300 -51.760  1.00  0.00     0.017 A 
BRANCH   9  12
HETATM   12  S   UNL     1     -49.337  63.128 -53.221  1.00  0.00     0.243 S 
HETATM   13  O   UNL     1     -49.722  63.565 -51.900  1.00  0.00    -0.206 OA
HETATM   14  O   UNL     1     -49.313  64.043 -54.341  1.00  0.00    -0.206 OA
BRANCH  12  15
HETATM   15  N   UNL     1     -50.414  61.876 -53.685  1.00  0.00    -0.203 NA
HETATM   16  C   UNL     1     -50.729  61.786 -55.146  1.00  0.00     0.135 C 
HETATM   17  C   UNL     1     -51.813  62.792 -55.593  1.00  0.00     0.250 C 
HETATM   18  N   UNL     1     -53.044  62.715 -54.693  1.00  0.00    -0.073 N 
HETATM   19  H   UNL     1     -53.458  61.782 -54.816  1.00  0.00     0.279 HD
HETATM   20  C   UNL     1     -54.088  63.718 -55.095  1.00  0.00     0.269 C 
HETATM   21  C   UNL     1     -52.674  62.858 -53.217  1.00  0.00     0.250 C 
HETATM   22  C   UNL     1     -51.644  61.783 -52.838  1.00  0.00     0.135 C 
ENDBRANCH  12  15
ENDBRANCH   9  12
ENDBRANCH   5   6
BRANCH   1  23
HETATM   23  C   UNL     1     -44.660  57.974 -52.428  1.00  0.00     0.128 C 
HETATM   24  C   UNL     1     -45.111  57.748 -50.994  1.00  0.00     0.027 C 
ENDBRANCH   1  23
BRANCH   2  25
HETATM   25  S   UNL     1     -41.463  57.502 -52.293  1.00  0.00    -0.081 SA
BRANCH  25  26
HETATM   26  C   UNL     1     -41.708  56.547 -53.816  1.00  0.00     0.185 C 
BRANCH  26  27
HETATM   27  C   UNL     1     -41.836  55.058 -53.527  1.00  0.00     0.231 C 
HETATM   28  N   UNL     1     -40.610  54.425 -53.411  1.00  0.00    -0.327 N 
HETATM   29  H   UNL     1     -39.804  55.038 -53.288  1.00  0.00     0.169 HD
HETATM   30  O   UNL     1     -42.939  54.525 -53.427  1.00  0.00    -0.272 OA
BRANCH  28  31
HETATM   31  C   UNL     1     -40.350  53.047 -53.298  1.00  0.00     0.034 A 
HETATM   32  C   UNL     1     -39.861  52.594 -52.063  1.00  0.00     0.032 A 
HETATM   33  C   UNL     1     -39.537  51.248 -51.872  1.00  0.00     0.039 A 
HETATM   34  C   UNL     1     -39.708  50.353 -52.920  1.00  0.00     0.065 A 
HETATM   35  C   UNL     1     -40.200  50.782 -54.146  1.00  0.00     0.039 A 
HETATM   36  C   UNL     1     -40.517  52.130 -54.337  1.00  0.00     0.032 A 
BRANCH  34  37
HETATM   37  O   UNL     1     -39.397  49.032 -52.786  1.00  0.00    -0.361 OA
HETATM   38  H   UNL     1     -38.459  48.956 -52.545  1.00  0.00     0.217 HD
ENDBRANCH  34  37
ENDBRANCH  28  31
ENDBRANCH  26  27
ENDBRANCH  25  26
ENDBRANCH   2  25
TORSDOF 9
ENDMDL
MODEL 8
REMARK VINA RESULT:      -7.3      5.241      9.078
REMARK  9 active torsions:
REMARK  status: ('A' for Active; 'I' for Inactive)
REMARK    1  A    between atoms: C_2  and  N_3 
REMARK    2  A    between atoms: C_4  and  S_5 
REMARK    3  A    between atoms: S_5  and  C_6 
REMARK    4  A    between atoms: C_6  and  C_7 
REMARK       I    between atoms: C_7  and  N_8 
REMARK    5  A    between atoms: N_8  and  C_9 
REMARK    6  A    between atoms: C_12  and  O_13 
REMARK    7  A    between atoms: C_19  and  C_20 
REMARK    8  A    between atoms: C_23  and  S_24 
REMARK    9  A    between atoms: S_24  and  N_25 
ROOT
HETATM    1  N   UNL     1     -43.022  58.153 -53.969  1.00  0.00    -0.308 N 
HETATM    2  C   UNL     1     -43.120  56.897 -54.509  1.00  0.00     0.192 A 
HETATM    3  N   UNL     1     -44.126  56.255 -53.966  1.00  0.00    -0.122 NA
HETATM    4  N   UNL     1     -44.740  57.108 -53.090  1.00  0.00    -0.128 NA
HETATM    5  C   UNL     1     -44.094  58.263 -53.103  1.00  0.00     0.164 A 
ENDROOT
BRANCH   5   6
HETATM    6  C   UNL     1     -44.450  59.412 -52.271  1.00  0.00     0.012 A 
HETATM    7  C   UNL     1     -43.723  59.652 -51.095  1.00  0.00     0.017 A 
HETATM    8  C   UNL     1     -44.043  60.727 -50.263  1.00  0.00     0.026 A 
HETATM    9  C   UNL     1     -45.111  61.561 -50.600  1.00  0.00     0.074 A 
HETATM   10  C   UNL     1     -45.862  61.326 -51.754  1.00  0.00     0.026 A 
HETATM   11  C   UNL     1     -45.531  60.248 -52.583  1.00  0.00     0.017 A 
BRANCH   9  12
HETATM   12  S   UNL     1     -45.525  62.912 -49.539  1.00  0.00     0.243 S 
HETATM   13  O   UNL     1     -44.394  63.170 -48.678  1.00  0.00    -0.206 OA
HETATM   14  O   UNL     1     -46.134  63.967 -50.321  1.00  0.00    -0.206 OA
BRANCH  12  15
HETATM   15  N   UNL     1     -46.788  62.291 -48.560  1.00  0.00    -0.203 NA
HETATM   16  C   UNL     1     -47.899  63.241 -48.236  1.00  0.00     0.135 C 
HETATM   17  C   UNL     1     -47.556  64.193 -47.068  1.00  0.00     0.250 C 
HETATM   18  N   UNL     1     -47.034  63.422 -45.859  1.00  0.00    -0.073 N 
HETATM   19  H   UNL     1     -47.800  62.826 -45.520  1.00  0.00     0.279 HD
HETATM   20  C   UNL     1     -46.660  64.344 -44.733  1.00  0.00     0.269 C 
HETATM   21  C   UNL     1     -45.874  62.502 -46.235  1.00  0.00     0.250 C 
HETATM   22  C   UNL     1     -46.315  61.545 -47.353  1.00  0.00     0.135 C 
ENDBRANCH  12  15
ENDBRANCH   9  12
ENDBRANCH   5   6
BRANCH   1  23
HETATM   23  C   UNL     1     -41.930  59.092 -54.139  1.00  0.00     0.128 C 
HETATM   24  C   UNL     1     -40.754  58.842 -53.209  1.00  0.00     0.027 C 
ENDBRANCH   1  23
BRANCH   2  25
HETATM   25  S   UNL     1     -42.063  56.276 -55.725  1.00  0.00    -0.081 SA
BRANCH  25  26
HETATM   26  C   UNL     1     -41.981  54.519 -55.276  1.00  0.00     0.185 C 
BRANCH  26  27
HETATM   27  C   UNL     1     -41.211  54.310 -53.979  1.00  0.00     0.231 C 
HETATM   28  N   UNL     1     -42.030  54.296 -52.863  1.00  0.00    -0.327 N 
HETATM   29  H   UNL     1     -43.027  54.180 -53.046  1.00  0.00     0.169 HD
HETATM   30  O   UNL     1     -39.989  54.183 -53.983  1.00  0.00    -0.272 OA
BRANCH  28  31
HETATM   31  C   UNL     1     -41.653  54.276 -51.508  1.00  0.00     0.034 A 
HETATM   32  C   UNL     1     -41.895  55.441 -50.766  1.00  0.00     0.032 A 
HETATM   33  C   UNL     1     -41.516  55.526 -49.423  1.00  0.00     0.039 A 
HETATM   34  C   UNL     1     -40.898  54.438 -48.822  1.00  0.00     0.065 A 
HETATM   35  C   UNL     1     -40.659  53.272 -49.539  1.00  0.00     0.039 A 
HETATM   36  C   UNL     1     -41.032  53.192 -50.884  1.00  0.00     0.032 A 
BRANCH  34  37
HETATM   37  O   UNL     1     -40.502  54.476 -47.518  1.00  0.00    -0.361 OA
HETATM   38  H   UNL     1     -40.061  53.639 -47.302  1.00  0.00     0.217 HD
ENDBRANCH  34  37
ENDBRANCH  28  31
ENDBRANCH  26  27
ENDBRANCH  25  26
ENDBRANCH   2  25
TORSDOF 9
ENDMDL
MODEL 9
REMARK VINA RESULT:      -7.2      2.008      2.979
REMARK  9 active torsions:
REMARK  status: ('A' for Active; 'I' for Inactive)
REMARK    1  A    between atoms: C_2  and  N_3 
REMARK    2  A    between atoms: C_4  and  S_5 
REMARK    3  A    between atoms: S_5  and  C_6 
REMARK    4  A    between atoms: C_6  and  C_7 
REMARK       I    between atoms: C_7  and  N_8 
REMARK    5  A    between atoms: N_8  and  C_9 
REMARK    6  A    between atoms: C_12  and  O_13 
REMARK    7  A    between atoms: C_19  and  C_20 
REMARK    8  A    between atoms: C_23  and  S_24 
REMARK    9  A    between atoms: S_24  and  N_25 
ROOT
HETATM    1  N   UNL     1     -42.163  57.783 -52.782  1.00  0.00    -0.308 N 
HETATM    2  C   UNL     1     -41.662  57.923 -51.514  1.00  0.00     0.192 A 
HETATM    3  N   UNL     1     -42.066  59.058 -50.997  1.00  0.00    -0.122 NA
HETATM    4  N   UNL     1     -42.888  59.660 -51.909  1.00  0.00    -0.128 NA
HETATM    5  C   UNL     1     -42.971  58.887 -52.980  1.00  0.00     0.164 A 
ENDROOT
BRANCH   5   6
HETATM    6  C   UNL     1     -43.744  59.220 -54.175  1.00  0.00     0.012 A 
HETATM    7  C   UNL     1     -44.934  58.521 -54.432  1.00  0.00     0.017 A 
HETATM    8  C   UNL     1     -45.692  58.795 -55.573  1.00  0.00     0.026 A 
HETATM    9  C   UNL     1     -45.248  59.764 -56.475  1.00  0.00     0.074 A 
HETATM   10  C   UNL     1     -44.055  60.454 -56.249  1.00  0.00     0.026 A 
HETATM   11  C   UNL     1     -43.305  60.176 -55.102  1.00  0.00     0.017 A 
BRANCH   9  12
HETATM   12  S   UNL     1     -46.201  60.099 -57.925  1.00  0.00     0.243 S 
HETATM   13  O   UNL     1     -47.421  59.332 -57.849  1.00  0.00    -0.206 OA
HETATM   14  O   UNL     1     -46.221  61.526 -58.166  1.00  0.00    -0.206 OA
BRANCH  12  15
HETATM   15  N   UNL     1     -45.255  59.442 -59.196  1.00  0.00    -0.203 NA
HETATM   16  C   UNL     1     -45.679  59.799 -60.587  1.00  0.00     0.135 C 
HETATM   17  C   UNL     1     -46.849  58.932 -61.102  1.00  0.00     0.250 C 
HETATM   18  N   UNL     1     -46.563  57.445 -60.909  1.00  0.00    -0.073 N 
HETATM   19  H   UNL     1     -45.756  57.207 -61.500  1.00  0.00     0.279 HD
HETATM   20  C   UNL     1     -47.714  56.595 -61.370  1.00  0.00     0.269 C 
HETATM   21  C   UNL     1     -46.180  57.127 -59.465  1.00  0.00     0.250 C 
HETATM   22  C   UNL     1     -44.971  57.980 -59.052  1.00  0.00     0.135 C 
ENDBRANCH  12  15
ENDBRANCH   9  12
ENDBRANCH   5   6
BRANCH   1  23
HETATM   23  C   UNL     1     -41.784  56.784 -53.763  1.00  0.00     0.128 C 
HETATM   24  C   UNL     1     -42.834  55.706 -53.979  1.00  0.00     0.027 C 
ENDBRANCH   1  23
BRANCH   2  25
HETATM   25  S   UNL     1     -40.650  56.761 -50.734  1.00  0.00    -0.081 SA
BRANCH  25  26
HETATM   26  C   UNL     1     -41.876  55.634 -50.012  1.00  0.00     0.185 C 
BRANCH  26  27
HETATM   27  C   UNL     1     -41.946  54.321 -50.778  1.00  0.00     0.231 C 
HETATM   28  N   UNL     1     -40.706  53.887 -51.217  1.00  0.00    -0.327 N 
HETATM   29  H   UNL     1     -39.900  54.338 -50.785  1.00  0.00     0.169 HD
HETATM   30  O   UNL     1     -43.020  53.754 -50.967  1.00  0.00    -0.272 OA
BRANCH  28  31
HETATM   31  C   UNL     1     -40.414  52.808 -52.072  1.00  0.00     0.034 A 
HETATM   32  C   UNL     1     -39.817  51.681 -51.488  1.00  0.00     0.032 A 
HETATM   33  C   UNL     1     -39.455  50.578 -52.267  1.00  0.00     0.039 A 
HETATM   34  C   UNL     1     -39.697  50.605 -53.635  1.00  0.00     0.065 A 
HETATM   35  C   UNL     1     -40.297  51.709 -54.228  1.00  0.00     0.039 A 
HETATM   36  C   UNL     1     -40.651  52.813 -53.447  1.00  0.00     0.032 A 
BRANCH  34  37
HETATM   37  O   UNL     1     -39.353  49.558 -54.438  1.00  0.00    -0.361 OA
HETATM   38  H   UNL     1     -39.857  48.776 -54.163  1.00  0.00     0.217 HD
ENDBRANCH  34  37
ENDBRANCH  28  31
ENDBRANCH  26  27
ENDBRANCH  25  26
ENDBRANCH   2  25
TORSDOF 9
ENDMDL
MODEL 10
REMARK VINA RESULT:      -7.1      7.602     11.299
REMARK  9 active torsions:
REMARK  status: ('A' for Active; 'I' for Inactive)
REMARK    1  A    between atoms: C_2  and  N_3 
REMARK    2  A    between atoms: C_4  and  S_5 
REMARK    3  A    between atoms: S_5  and  C_6 
REMARK    4  A    between atoms: C_6  and  C_7 
REMARK       I    between atoms: C_7  and  N_8 
REMARK    5  A    between atoms: N_8  and  C_9 
REMARK    6  A    between atoms: C_12  and  O_13 
REMARK    7  A    between atoms: C_19  and  C_20 
REMARK    8  A    between atoms: C_23  and  S_24 
REMARK    9  A    between atoms: S_24  and  N_25 
ROOT
HETATM    1  N   UNL     1     -44.702  62.690 -49.547  1.00  0.00    -0.308 N 
HETATM    2  C   UNL     1     -45.136  63.106 -48.315  1.00  0.00     0.192 A 
HETATM    3  N   UNL     1     -45.089  62.109 -47.465  1.00  0.00    -0.122 NA
HETATM    4  N   UNL     1     -44.571  61.026 -48.122  1.00  0.00    -0.128 NA
HETATM    5  C   UNL     1     -44.313  61.375 -49.373  1.00  0.00     0.164 A 
ENDROOT
BRANCH   5   6
HETATM    6  C   UNL     1     -43.772  60.467 -50.383  1.00  0.00     0.012 A 
HETATM    7  C   UNL     1     -44.658  59.673 -51.129  1.00  0.00     0.017 A 
HETATM    8  C   UNL     1     -44.181  58.779 -52.090  1.00  0.00     0.026 A 
HETATM    9  C   UNL     1     -42.805  58.664 -52.296  1.00  0.00     0.074 A 
HETATM   10  C   UNL     1     -41.906  59.428 -51.550  1.00  0.00     0.026 A 
HETATM   11  C   UNL     1     -42.394  60.324 -50.592  1.00  0.00     0.017 A 
BRANCH   9  12
HETATM   12  S   UNL     1     -42.202  57.522 -53.503  1.00  0.00     0.243 S 
HETATM   13  O   UNL     1     -42.458  58.074 -54.812  1.00  0.00    -0.206 OA
HETATM   14  O   UNL     1     -40.881  57.072 -53.119  1.00  0.00    -0.206 OA
BRANCH  12  15
HETATM   15  N   UNL     1     -43.217  56.153 -53.312  1.00  0.00    -0.203 NA
HETATM   16  C   UNL     1     -42.870  55.227 -52.188  1.00  0.00     0.135 C 
HETATM   17  C   UNL     1     -41.731  54.246 -52.545  1.00  0.00     0.250 C 
HETATM   18  N   UNL     1     -42.007  53.533 -53.867  1.00  0.00    -0.073 N 
HETATM   19  H   UNL     1     -42.846  52.954 -53.734  1.00  0.00     0.279 HD
HETATM   20  C   UNL     1     -40.885  52.607 -54.242  1.00  0.00     0.269 C 
HETATM   21  C   UNL     1     -42.311  54.524 -54.989  1.00  0.00     0.250 C 
HETATM   22  C   UNL     1     -43.495  55.416 -54.584  1.00  0.00     0.135 C 
ENDBRANCH  12  15
ENDBRANCH   9  12
ENDBRANCH   5   6
BRANCH   1  23
HETATM   23  C   UNL     1     -44.799  63.419 -50.797  1.00  0.00     0.128 C 
HETATM   24  C   UNL     1     -43.501  64.083 -51.225  1.00  0.00     0.027 C 
ENDBRANCH   1  23
BRANCH   2  25
HETATM   25  S   UNL     1     -45.659  64.713 -47.959  1.00  0.00    -0.081 SA
BRANCH  25  26
HETATM   26  C   UNL     1     -47.297  64.413 -47.239  1.00  0.00     0.185 C 
BRANCH  26  27
HETATM   27  C   UNL     1     -47.222  64.256 -45.727  1.00  0.00     0.231 C 
HETATM   28  N   UNL     1     -45.937  64.412 -45.233  1.00  0.00    -0.327 N 
HETATM   29  H   UNL     1     -45.267  64.842 -45.870  1.00  0.00     0.169 HD
HETATM   30  O   UNL     1     -48.227  64.006 -45.066  1.00  0.00    -0.272 OA
BRANCH  28  31
HETATM   31  C   UNL     1     -45.476  64.189 -43.923  1.00  0.00     0.034 A 
HETATM   32  C   UNL     1     -44.407  63.294 -43.771  1.00  0.00     0.032 A 
HETATM   33  C   UNL     1     -43.910  62.980 -42.503  1.00  0.00     0.039 A 
HETATM   34  C   UNL     1     -44.483  63.570 -41.384  1.00  0.00     0.065 A 
HETATM   35  C   UNL     1     -45.536  64.467 -41.516  1.00  0.00     0.039 A 
HETATM   36  C   UNL     1     -46.037  64.773 -42.785  1.00  0.00     0.032 A 
BRANCH  34  37
HETATM   37  O   UNL     1     -44.040  63.289 -40.126  1.00  0.00    -0.361 OA
HETATM   38  H   UNL     1     -44.290  62.378 -39.904  1.00  0.00     0.217 HD
ENDBRANCH  34  37
ENDBRANCH  28  31
ENDBRANCH  26  27
ENDBRANCH  25  26
ENDBRANCH   2  25
TORSDOF 9
ENDMDL
