MODEL 1
REMARK VINA RESULT:      -7.9      0.000      0.000
REMARK  6 active torsions:
REMARK  status: ('A' for Active; 'I' for Inactive)
REMARK    1  A    between atoms: C_7  and  C_8 
REMARK    2  A    between atoms: C_8  and  N_9 
REMARK       I    between atoms: N_9  and  C_10 
REMARK       I    between atoms: C_10  and  N_11 
REMARK    3  A    between atoms: N_11  and  C_12 
REMARK    4  A    between atoms: C_14  and  C_15 
REMARK    5  A    between atoms: C_15  and  O_16 
REMARK    6  A    between atoms: O_16  and  C_17 
ROOT
HETATM    1  C   UNL     1     -41.334  57.285 -50.536  1.00  0.00     0.036 A 
HETATM    2  C   UNL     1     -42.186  57.406 -51.639  1.00  0.00     0.038 A 
HETATM    3  C   UNL     1     -41.968  58.400 -52.611  1.00  0.00    -0.032 A 
HETATM    4  C   UNL     1     -40.875  59.267 -52.471  1.00  0.00     0.009 A 
HETATM    5  C   UNL     1     -40.005  59.135 -51.394  1.00  0.00     0.003 A 
HETATM    6  C   UNL     1     -40.233  58.147 -50.437  1.00  0.00     0.029 A 
ENDROOT
BRANCH   1   7
HETATM    7  N   UNL     1     -41.461  56.324 -49.517  1.00  0.00    -0.309 N 
HETATM    8  C   UNL     1     -41.065  55.033 -49.380  1.00  0.00     0.320 C 
HETATM    9  N   UNL     1     -40.631  54.368 -50.480  1.00  0.00    -0.339 N 
HETATM   10  O   UNL     1     -41.155  54.501 -48.274  1.00  0.00    -0.247 OA
HETATM   11  H   UNL     1     -41.079  54.649 -51.339  1.00  0.00     0.164 HD
HETATM   12  H   UNL     1     -41.909  56.641 -48.665  1.00  0.00     0.170 HD
BRANCH   9  13
HETATM   13  C   UNL     1     -40.302  52.968 -50.370  1.00  0.00     0.166 C 
BRANCH  13  14
HETATM   14  C   UNL     1     -40.102  52.405 -51.728  1.00  0.00     0.003 A 
HETATM   15  C   UNL     1     -39.725  51.117 -52.085  1.00  0.00     0.035 A 
HETATM   16  C   UNL     1     -39.374  49.946 -51.241  1.00  0.00     0.070 C 
HETATM   17  N   UNL     1     -39.765  51.084 -53.457  1.00  0.00    -0.278 N 
HETATM   18  C   UNL     1     -39.544  49.957 -54.332  1.00  0.00     0.179 C 
HETATM   19  N   UNL     1     -40.079  52.270 -54.009  1.00  0.00    -0.185 NA
HETATM   20  C   UNL     1     -40.302  53.062 -52.961  1.00  0.00     0.149 A 
ENDBRANCH  13  14
ENDBRANCH   9  13
ENDBRANCH   1   7
BRANCH   3  21
HETATM   21  C   UNL     1     -42.911  58.565 -53.777  1.00  0.00     0.206 C 
BRANCH  21  22
HETATM   22  O   UNL     1     -42.507  57.694 -54.831  1.00  0.00    -0.381 OA
BRANCH  22  23
HETATM   23  C   UNL     1     -43.608  57.096 -55.523  1.00  0.00     0.121 C 
HETATM   24  C   UNL     1     -43.100  56.237 -56.689  1.00  0.00     0.032 C 
HETATM   25  C   UNL     1     -42.290  55.032 -56.211  1.00  0.00     0.002 C 
HETATM   26  C   UNL     1     -43.070  54.189 -55.207  1.00  0.00     0.000 C 
HETATM   27  C   UNL     1     -43.571  55.031 -54.037  1.00  0.00     0.002 C 
HETATM   28  C   UNL     1     -44.380  56.236 -54.516  1.00  0.00     0.032 C 
ENDBRANCH  22  23
ENDBRANCH  21  22
ENDBRANCH   3  21
TORSDOF 6
ENDMDL
MODEL 2
REMARK VINA RESULT:      -7.8      1.922      5.741
REMARK  6 active torsions:
REMARK  status: ('A' for Active; 'I' for Inactive)
REMARK    1  A    between atoms: C_7  and  C_8 
REMARK    2  A    between atoms: C_8  and  N_9 
REMARK       I    between atoms: N_9  and  C_10 
REMARK       I    between atoms: C_10  and  N_11 
REMARK    3  A    between atoms: N_11  and  C_12 
REMARK    4  A    between atoms: C_14  and  C_15 
REMARK    5  A    between atoms: C_15  and  O_16 
REMARK    6  A    between atoms: O_16  and  C_17 
ROOT
HETATM    1  C   UNL     1     -40.315  53.353 -51.455  1.00  0.00     0.036 A 
HETATM    2  C   UNL     1     -40.527  53.891 -52.729  1.00  0.00     0.038 A 
HETATM    3  C   UNL     1     -40.242  53.139 -53.884  1.00  0.00    -0.032 A 
HETATM    4  C   UNL     1     -39.753  51.833 -53.748  1.00  0.00     0.009 A 
HETATM    5  C   UNL     1     -39.569  51.278 -52.486  1.00  0.00     0.003 A 
HETATM    6  C   UNL     1     -39.853  52.034 -51.349  1.00  0.00     0.029 A 
ENDROOT
BRANCH   1   7
HETATM    7  N   UNL     1     -40.574  54.016 -50.243  1.00  0.00    -0.309 N 
HETATM    8  C   UNL     1     -40.900  55.293 -49.913  1.00  0.00     0.320 C 
HETATM    9  N   UNL     1     -40.769  56.258 -50.857  1.00  0.00    -0.339 N 
HETATM   10  O   UNL     1     -41.259  55.533 -48.762  1.00  0.00    -0.247 OA
HETATM   11  H   UNL     1     -40.014  56.103 -51.508  1.00  0.00     0.164 HD
HETATM   12  H   UNL     1     -40.562  53.437 -49.411  1.00  0.00     0.170 HD
BRANCH   9  13
HETATM   13  C   UNL     1     -41.014  57.633 -50.494  1.00  0.00     0.166 C 
BRANCH  13  14
HETATM   14  C   UNL     1     -41.228  58.433 -51.725  1.00  0.00     0.003 A 
HETATM   15  C   UNL     1     -42.341  59.179 -52.090  1.00  0.00     0.035 A 
HETATM   16  C   UNL     1     -43.643  59.369 -51.401  1.00  0.00     0.070 C 
HETATM   17  N   UNL     1     -42.007  59.792 -53.272  1.00  0.00    -0.278 N 
HETATM   18  C   UNL     1     -42.776  60.747 -54.034  1.00  0.00     0.179 C 
HETATM   19  N   UNL     1     -40.787  59.448 -53.723  1.00  0.00    -0.185 NA
HETATM   20  C   UNL     1     -40.310  58.641 -52.777  1.00  0.00     0.149 A 
ENDBRANCH  13  14
ENDBRANCH   9  13
ENDBRANCH   1   7
BRANCH   3  21
HETATM   21  C   UNL     1     -40.424  53.732 -55.259  1.00  0.00     0.206 C 
BRANCH  21  22
HETATM   22  O   UNL     1     -41.220  54.911 -55.158  1.00  0.00    -0.381 OA
BRANCH  22  23
HETATM   23  C   UNL     1     -42.504  54.780 -55.777  1.00  0.00     0.121 C 
HETATM   24  C   UNL     1     -43.604  54.709 -54.709  1.00  0.00     0.032 C 
HETATM   25  C   UNL     1     -43.728  56.012 -53.918  1.00  0.00     0.002 C 
HETATM   26  C   UNL     1     -43.930  57.212 -54.837  1.00  0.00     0.000 C 
HETATM   27  C   UNL     1     -42.835  57.299 -55.896  1.00  0.00     0.002 C 
HETATM   28  C   UNL     1     -42.712  55.996 -56.685  1.00  0.00     0.032 C 
ENDBRANCH  22  23
ENDBRANCH  21  22
ENDBRANCH   3  21
TORSDOF 6
ENDMDL
MODEL 3
REMARK VINA RESULT:      -7.2      2.823      6.496
REMARK  6 active torsions:
REMARK  status: ('A' for Active; 'I' for Inactive)
REMARK    1  A    between atoms: C_7  and  C_8 
REMARK    2  A    between atoms: C_8  and  N_9 
REMARK       I    between atoms: N_9  and  C_10 
REMARK       I    between atoms: C_10  and  N_11 
REMARK    3  A    between atoms: N_11  and  C_12 
REMARK    4  A    between atoms: C_14  and  C_15 
REMARK    5  A    between atoms: C_15  and  O_16 
REMARK    6  A    between atoms: O_16  and  C_17 
ROOT
HETATM    1  C   UNL     1     -41.861  56.954 -51.663  1.00  0.00     0.036 A 
HETATM    2  C   UNL     1     -41.180  55.758 -51.413  1.00  0.00     0.038 A 
HETATM    3  C   UNL     1     -41.843  54.660 -50.834  1.00  0.00    -0.032 A 
HETATM    4  C   UNL     1     -43.204  54.770 -50.520  1.00  0.00     0.009 A 
HETATM    5  C   UNL     1     -43.897  55.945 -50.793  1.00  0.00     0.003 A 
HETATM    6  C   UNL     1     -43.229  57.026 -51.365  1.00  0.00     0.029 A 
ENDROOT
BRANCH   1   7
HETATM    7  N   UNL     1     -41.293  58.103 -52.243  1.00  0.00    -0.309 N 
HETATM    8  C   UNL     1     -41.444  58.734 -53.435  1.00  0.00     0.320 C 
HETATM    9  N   UNL     1     -42.100  58.088 -54.431  1.00  0.00    -0.339 N 
HETATM   10  O   UNL     1     -40.943  59.848 -53.582  1.00  0.00    -0.247 OA
HETATM   11  H   UNL     1     -41.983  57.086 -54.425  1.00  0.00     0.164 HD
HETATM   12  H   UNL     1     -40.652  58.623 -51.655  1.00  0.00     0.170 HD
BRANCH   9  13
HETATM   13  C   UNL     1     -42.180  58.703 -55.734  1.00  0.00     0.166 C 
BRANCH  13  14
HETATM   14  C   UNL     1     -42.528  57.671 -56.741  1.00  0.00     0.003 A 
HETATM   15  C   UNL     1     -42.476  57.760 -58.126  1.00  0.00     0.035 A 
HETATM   16  C   UNL     1     -42.109  58.899 -59.006  1.00  0.00     0.070 C 
HETATM   17  N   UNL     1     -42.815  56.515 -58.593  1.00  0.00    -0.278 N 
HETATM   18  C   UNL     1     -42.832  56.043 -59.957  1.00  0.00     0.179 C 
HETATM   19  N   UNL     1     -43.138  55.650 -57.614  1.00  0.00    -0.185 NA
HETATM   20  C   UNL     1     -42.945  56.345 -56.495  1.00  0.00     0.149 A 
ENDBRANCH  13  14
ENDBRANCH   9  13
ENDBRANCH   1   7
BRANCH   3  21
HETATM   21  C   UNL     1     -41.101  53.385 -50.518  1.00  0.00     0.206 C 
BRANCH  21  22
HETATM   22  O   UNL     1     -41.089  52.552 -51.676  1.00  0.00    -0.381 OA
BRANCH  22  23
HETATM   23  C   UNL     1     -39.832  52.553 -52.358  1.00  0.00     0.121 C 
HETATM   24  C   UNL     1     -39.056  51.266 -52.046  1.00  0.00     0.032 C 
HETATM   25  C   UNL     1     -39.753  50.021 -52.597  1.00  0.00     0.002 C 
HETATM   26  C   UNL     1     -40.032  50.146 -54.091  1.00  0.00     0.000 C 
HETATM   27  C   UNL     1     -40.813  51.417 -54.413  1.00  0.00     0.002 C 
HETATM   28  C   UNL     1     -40.116  52.660 -53.861  1.00  0.00     0.032 C 
ENDBRANCH  22  23
ENDBRANCH  21  22
ENDBRANCH   3  21
TORSDOF 6
ENDMDL
MODEL 4
REMARK VINA RESULT:      -7.2      3.732      7.232
REMARK  6 active torsions:
REMARK  status: ('A' for Active; 'I' for Inactive)
REMARK    1  A    between atoms: C_7  and  C_8 
REMARK    2  A    between atoms: C_8  and  N_9 
REMARK       I    between atoms: N_9  and  C_10 
REMARK       I    between atoms: C_10  and  N_11 
REMARK    3  A    between atoms: N_11  and  C_12 
REMARK    4  A    between atoms: C_14  and  C_15 
REMARK    5  A    between atoms: C_15  and  O_16 
REMARK    6  A    between atoms: O_16  and  C_17 
ROOT
HETATM    1  C   UNL     1     -42.310  57.941 -53.937  1.00  0.00     0.036 A 
HETATM    2  C   UNL     1     -42.362  56.566 -54.190  1.00  0.00     0.038 A 
HETATM    3  C   UNL     1     -42.903  55.680 -53.239  1.00  0.00    -0.032 A 
HETATM    4  C   UNL     1     -43.405  56.190 -52.034  1.00  0.00     0.009 A 
HETATM    5  C   UNL     1     -43.385  57.559 -51.787  1.00  0.00     0.003 A 
HETATM    6  C   UNL     1     -42.845  58.426 -52.736  1.00  0.00     0.029 A 
ENDROOT
BRANCH   1   7
HETATM    7  N   UNL     1     -41.798  58.907 -54.821  1.00  0.00    -0.309 N 
HETATM    8  C   UNL     1     -42.173  59.365 -56.044  1.00  0.00     0.320 C 
HETATM    9  N   UNL     1     -43.102  58.663 -56.740  1.00  0.00    -0.339 N 
HETATM   10  O   UNL     1     -41.626  60.371 -56.492  1.00  0.00    -0.247 OA
HETATM   11  H   UNL     1     -43.075  57.668 -56.583  1.00  0.00     0.164 HD
HETATM   12  H   UNL     1     -40.992  59.426 -54.491  1.00  0.00     0.170 HD
BRANCH   9  13
HETATM   13  C   UNL     1     -43.436  59.080 -58.081  1.00  0.00     0.166 C 
BRANCH  13  14
HETATM   14  C   UNL     1     -43.522  57.885 -58.956  1.00  0.00     0.003 A 
HETATM   15  C   UNL     1     -44.652  57.185 -59.357  1.00  0.00     0.035 A 
HETATM   16  C   UNL     1     -46.083  57.384 -59.010  1.00  0.00     0.070 C 
HETATM   17  N   UNL     1     -44.205  56.220 -60.225  1.00  0.00    -0.278 N 
HETATM   18  C   UNL     1     -44.982  55.277 -60.994  1.00  0.00     0.179 C 
HETATM   19  N   UNL     1     -42.867  56.209 -60.364  1.00  0.00    -0.185 NA
HETATM   20  C   UNL     1     -42.457  57.229 -59.610  1.00  0.00     0.149 A 
ENDBRANCH  13  14
ENDBRANCH   9  13
ENDBRANCH   1   7
BRANCH   3  21
HETATM   21  C   UNL     1     -42.918  54.192 -53.487  1.00  0.00     0.206 C 
BRANCH  21  22
HETATM   22  O   UNL     1     -42.047  53.555 -52.554  1.00  0.00    -0.381 OA
BRANCH  22  23
HETATM   23  C   UNL     1     -40.662  53.797 -52.819  1.00  0.00     0.121 C 
HETATM   24  C   UNL     1     -39.792  53.153 -51.731  1.00  0.00     0.032 C 
HETATM   25  C   UNL     1     -39.888  51.627 -51.740  1.00  0.00     0.002 C 
HETATM   26  C   UNL     1     -39.566  51.050 -53.115  1.00  0.00     0.000 C 
HETATM   27  C   UNL     1     -40.433  51.675 -54.204  1.00  0.00     0.002 C 
HETATM   28  C   UNL     1     -40.336  53.201 -54.193  1.00  0.00     0.032 C 
ENDBRANCH  22  23
ENDBRANCH  21  22
ENDBRANCH   3  21
TORSDOF 6
ENDMDL
MODEL 5
REMARK VINA RESULT:      -7.2      4.078      7.581
REMARK  6 active torsions:
REMARK  status: ('A' for Active; 'I' for Inactive)
REMARK    1  A    between atoms: C_7  and  C_8 
REMARK    2  A    between atoms: C_8  and  N_9 
REMARK       I    between atoms: N_9  and  C_10 
REMARK       I    between atoms: C_10  and  N_11 
REMARK    3  A    between atoms: N_11  and  C_12 
REMARK    4  A    between atoms: C_14  and  C_15 
REMARK    5  A    between atoms: C_15  and  O_16 
REMARK    6  A    between atoms: O_16  and  C_17 
ROOT
HETATM    1  C   UNL     1     -42.592  58.171 -55.246  1.00  0.00     0.036 A 
HETATM    2  C   UNL     1     -41.779  57.472 -54.348  1.00  0.00     0.038 A 
HETATM    3  C   UNL     1     -42.305  56.966 -53.145  1.00  0.00    -0.032 A 
HETATM    4  C   UNL     1     -43.664  57.157 -52.857  1.00  0.00     0.009 A 
HETATM    5  C   UNL     1     -44.487  57.824 -53.759  1.00  0.00     0.003 A 
HETATM    6  C   UNL     1     -43.953  58.323 -54.946  1.00  0.00     0.029 A 
ENDROOT
BRANCH   1   7
HETATM    7  N   UNL     1     -42.166  58.708 -56.474  1.00  0.00    -0.309 N 
HETATM    8  C   UNL     1     -42.209  58.278 -57.761  1.00  0.00     0.320 C 
HETATM    9  N   UNL     1     -42.518  56.979 -57.999  1.00  0.00    -0.339 N 
HETATM   10  O   UNL     1     -41.924  59.069 -58.659  1.00  0.00    -0.247 OA
HETATM   11  H   UNL     1     -42.206  56.339 -57.285  1.00  0.00     0.164 HD
HETATM   12  H   UNL     1     -41.768  59.639 -56.434  1.00  0.00     0.170 HD
BRANCH   9  13
HETATM   13  C   UNL     1     -42.469  56.482 -59.353  1.00  0.00     0.166 C 
BRANCH  13  14
HETATM   14  C   UNL     1     -43.832  56.071 -59.772  1.00  0.00     0.003 A 
HETATM   15  C   UNL     1     -44.899  56.872 -60.155  1.00  0.00     0.035 A 
HETATM   16  C   UNL     1     -45.018  58.352 -60.223  1.00  0.00     0.070 C 
HETATM   17  N   UNL     1     -45.900  56.009 -60.526  1.00  0.00    -0.278 N 
HETATM   18  C   UNL     1     -47.193  56.324 -61.086  1.00  0.00     0.179 C 
HETATM   19  N   UNL     1     -45.577  54.714 -60.352  1.00  0.00    -0.185 NA
HETATM   20  C   UNL     1     -44.319  54.754 -59.914  1.00  0.00     0.149 A 
ENDBRANCH  13  14
ENDBRANCH   9  13
ENDBRANCH   1   7
BRANCH   3  21
HETATM   21  C   UNL     1     -41.422  56.254 -52.151  1.00  0.00     0.206 C 
BRANCH  21  22
HETATM   22  O   UNL     1     -40.845  55.109 -52.775  1.00  0.00    -0.381 OA
BRANCH  22  23
HETATM   23  C   UNL     1     -41.676  53.946 -52.700  1.00  0.00     0.121 C 
HETATM   24  C   UNL     1     -41.613  53.160 -54.017  1.00  0.00     0.032 C 
HETATM   25  C   UNL     1     -40.223  52.580 -54.279  1.00  0.00     0.002 C 
HETATM   26  C   UNL     1     -39.736  51.732 -53.108  1.00  0.00     0.000 C 
HETATM   27  C   UNL     1     -39.784  52.507 -51.795  1.00  0.00     0.002 C 
HETATM   28  C   UNL     1     -41.174  53.086 -51.535  1.00  0.00     0.032 C 
ENDBRANCH  22  23
ENDBRANCH  21  22
ENDBRANCH   3  21
TORSDOF 6
ENDMDL
MODEL 6
REMARK VINA RESULT:      -7.1      5.047      8.949
REMARK  6 active torsions:
REMARK  status: ('A' for Active; 'I' for Inactive)
REMARK    1  A    between atoms: C_7  and  C_8 
REMARK    2  A    between atoms: C_8  and  N_9 
REMARK       I    between atoms: N_9  and  C_10 
REMARK       I    between atoms: C_10  and  N_11 
REMARK    3  A    between atoms: N_11  and  C_12 
REMARK    4  A    between atoms: C_14  and  C_15 
REMARK    5  A    between atoms: C_15  and  O_16 
REMARK    6  A    between atoms: O_16  and  C_17 
ROOT
HETATM    1  C   UNL     1     -42.754  56.162 -56.595  1.00  0.00     0.036 A 
HETATM    2  C   UNL     1     -42.915  55.198 -55.594  1.00  0.00     0.038 A 
HETATM    3  C   UNL     1     -43.109  55.580 -54.253  1.00  0.00    -0.032 A 
HETATM    4  C   UNL     1     -43.152  56.942 -53.928  1.00  0.00     0.009 A 
HETATM    5  C   UNL     1     -43.023  57.907 -54.921  1.00  0.00     0.003 A 
HETATM    6  C   UNL     1     -42.830  57.517 -56.245  1.00  0.00     0.029 A 
ENDROOT
BRANCH   1   7
HETATM    7  N   UNL     1     -42.564  55.885 -57.961  1.00  0.00    -0.309 N 
HETATM    8  C   UNL     1     -43.369  55.917 -59.054  1.00  0.00     0.320 C 
HETATM    9  N   UNL     1     -44.708  56.023 -58.869  1.00  0.00    -0.339 N 
HETATM   10  O   UNL     1     -42.858  55.805 -60.168  1.00  0.00    -0.247 OA
HETATM   11  H   UNL     1     -45.048  55.579 -58.030  1.00  0.00     0.164 HD
HETATM   12  H   UNL     1     -41.619  55.641 -58.235  1.00  0.00     0.170 HD
BRANCH   9  13
HETATM   13  C   UNL     1     -45.583  55.957 -60.015  1.00  0.00     0.166 C 
BRANCH  13  14
HETATM   14  C   UNL     1     -46.262  57.265 -60.187  1.00  0.00     0.003 A 
HETATM   15  C   UNL     1     -47.358  57.573 -60.981  1.00  0.00     0.035 A 
HETATM   16  C   UNL     1     -48.144  56.723 -61.912  1.00  0.00     0.070 C 
HETATM   17  N   UNL     1     -47.647  58.890 -60.723  1.00  0.00    -0.278 N 
HETATM   18  C   UNL     1     -48.747  59.681 -61.223  1.00  0.00     0.179 C 
HETATM   19  N   UNL     1     -46.782  59.467 -59.869  1.00  0.00    -0.185 NA
HETATM   20  C   UNL     1     -45.956  58.477 -59.531  1.00  0.00     0.149 A 
ENDBRANCH  13  14
ENDBRANCH   9  13
ENDBRANCH   1   7
BRANCH   3  21
HETATM   21  C   UNL     1     -43.235  54.545 -53.163  1.00  0.00     0.206 C 
BRANCH  21  22
HETATM   22  O   UNL     1     -42.276  53.513 -53.386  1.00  0.00    -0.381 OA
BRANCH  22  23
HETATM   23  C   UNL     1     -40.923  53.973 -53.311  1.00  0.00     0.121 C 
HETATM   24  C   UNL     1     -40.377  53.791 -51.888  1.00  0.00     0.032 C 
HETATM   25  C   UNL     1     -40.268  52.318 -51.493  1.00  0.00     0.002 C 
HETATM   26  C   UNL     1     -39.446  51.523 -52.503  1.00  0.00     0.000 C 
HETATM   27  C   UNL     1     -39.987  51.687 -53.920  1.00  0.00     0.002 C 
HETATM   28  C   UNL     1     -40.096  53.160 -54.313  1.00  0.00     0.032 C 
ENDBRANCH  22  23
ENDBRANCH  21  22
ENDBRANCH   3  21
TORSDOF 6
ENDMDL
MODEL 7
REMARK VINA RESULT:      -7.0      2.561      4.259
REMARK  6 active torsions:
REMARK  status: ('A' for Active; 'I' for Inactive)
REMARK    1  A    between atoms: C_7  and  C_8 
REMARK    2  A    between atoms: C_8  and  N_9 
REMARK       I    between atoms: N_9  and  C_10 
REMARK       I    between atoms: C_10  and  N_11 
REMARK    3  A    between atoms: N_11  and  C_12 
REMARK    4  A    between atoms: C_14  and  C_15 
REMARK    5  A    between atoms: C_15  and  O_16 
REMARK    6  A    between atoms: O_16  and  C_17 
ROOT
HETATM    1  C   UNL     1     -43.729  55.815 -53.919  1.00  0.00     0.036 A 
HETATM    2  C   UNL     1     -43.352  55.389 -55.197  1.00  0.00     0.038 A 
HETATM    3  C   UNL     1     -43.359  56.281 -56.285  1.00  0.00    -0.032 A 
HETATM    4  C   UNL     1     -43.737  57.615 -56.075  1.00  0.00     0.009 A 
HETATM    5  C   UNL     1     -44.083  58.056 -54.802  1.00  0.00     0.003 A 
HETATM    6  C   UNL     1     -44.074  57.161 -53.733  1.00  0.00     0.029 A 
ENDROOT
BRANCH   1   7
HETATM    7  N   UNL     1     -43.748  55.007 -52.769  1.00  0.00    -0.309 N 
HETATM    8  C   UNL     1     -42.792  54.528 -51.932  1.00  0.00     0.320 C 
HETATM    9  N   UNL     1     -41.494  54.617 -52.315  1.00  0.00    -0.339 N 
HETATM   10  O   UNL     1     -43.140  53.994 -50.880  1.00  0.00    -0.247 OA
HETATM   11  H   UNL     1     -41.348  54.543 -53.310  1.00  0.00     0.164 HD
HETATM   12  H   UNL     1     -44.666  54.731 -52.439  1.00  0.00     0.170 HD
BRANCH   9  13
HETATM   13  C   UNL     1     -40.475  54.023 -51.483  1.00  0.00     0.166 C 
BRANCH  13  14
HETATM   14  C   UNL     1     -40.174  52.657 -51.980  1.00  0.00     0.003 A 
HETATM   15  C   UNL     1     -40.100  52.211 -53.293  1.00  0.00     0.035 A 
HETATM   16  C   UNL     1     -40.335  52.930 -54.571  1.00  0.00     0.070 C 
HETATM   17  N   UNL     1     -39.711  50.897 -53.218  1.00  0.00    -0.278 N 
HETATM   18  C   UNL     1     -39.403  49.990 -54.298  1.00  0.00     0.179 C 
HETATM   19  N   UNL     1     -39.587  50.450 -51.955  1.00  0.00    -0.185 NA
HETATM   20  C   UNL     1     -39.849  51.521 -51.208  1.00  0.00     0.149 A 
ENDBRANCH  13  14
ENDBRANCH   9  13
ENDBRANCH   1   7
BRANCH   3  21
HETATM   21  C   UNL     1     -43.000  55.814 -57.674  1.00  0.00     0.206 C 
BRANCH  21  22
HETATM   22  O   UNL     1     -42.389  56.889 -58.385  1.00  0.00    -0.381 OA
BRANCH  22  23
HETATM   23  C   UNL     1     -42.492  56.757 -59.806  1.00  0.00     0.121 C 
HETATM   24  C   UNL     1     -43.963  56.627 -60.223  1.00  0.00     0.032 C 
HETATM   25  C   UNL     1     -44.763  57.897 -59.931  1.00  0.00     0.002 C 
HETATM   26  C   UNL     1     -44.119  59.127 -60.563  1.00  0.00     0.000 C 
HETATM   27  C   UNL     1     -42.658  59.273 -60.147  1.00  0.00     0.002 C 
HETATM   28  C   UNL     1     -41.861  58.002 -60.439  1.00  0.00     0.032 C 
ENDBRANCH  22  23
ENDBRANCH  21  22
ENDBRANCH   3  21
TORSDOF 6
ENDMDL
MODEL 8
REMARK VINA RESULT:      -6.9      2.443      3.554
REMARK  6 active torsions:
REMARK  status: ('A' for Active; 'I' for Inactive)
REMARK    1  A    between atoms: C_7  and  C_8 
REMARK    2  A    between atoms: C_8  and  N_9 
REMARK       I    between atoms: N_9  and  C_10 
REMARK       I    between atoms: C_10  and  N_11 
REMARK    3  A    between atoms: N_11  and  C_12 
REMARK    4  A    between atoms: C_14  and  C_15 
REMARK    5  A    between atoms: C_15  and  O_16 
REMARK    6  A    between atoms: O_16  and  C_17 
ROOT
HETATM    1  C   UNL     1     -44.058  56.741 -53.578  1.00  0.00     0.036 A 
HETATM    2  C   UNL     1     -44.064  56.870 -54.971  1.00  0.00     0.038 A 
HETATM    3  C   UNL     1     -44.081  58.141 -55.576  1.00  0.00    -0.032 A 
HETATM    4  C   UNL     1     -44.079  59.285 -54.766  1.00  0.00     0.009 A 
HETATM    5  C   UNL     1     -44.043  59.166 -53.380  1.00  0.00     0.003 A 
HETATM    6  C   UNL     1     -44.028  57.902 -52.794  1.00  0.00     0.029 A 
ENDROOT
BRANCH   1   7
HETATM    7  N   UNL     1     -44.034  55.521 -52.879  1.00  0.00    -0.309 N 
HETATM    8  C   UNL     1     -43.065  54.814 -52.244  1.00  0.00     0.320 C 
HETATM    9  N   UNL     1     -41.770  55.165 -52.445  1.00  0.00    -0.339 N 
HETATM   10  O   UNL     1     -43.393  53.856 -51.546  1.00  0.00    -0.247 OA
HETATM   11  H   UNL     1     -41.577  55.534 -53.363  1.00  0.00     0.164 HD
HETATM   12  H   UNL     1     -44.928  55.055 -52.772  1.00  0.00     0.170 HD
BRANCH   9  13
HETATM   13  C   UNL     1     -40.725  54.361 -51.857  1.00  0.00     0.166 C 
BRANCH  13  14
HETATM   14  C   UNL     1     -40.394  53.244 -52.776  1.00  0.00     0.003 A 
HETATM   15  C   UNL     1     -40.012  51.947 -52.460  1.00  0.00     0.035 A 
HETATM   16  C   UNL     1     -39.781  51.305 -51.140  1.00  0.00     0.070 C 
HETATM   17  N   UNL     1     -39.904  51.287 -53.658  1.00  0.00    -0.278 N 
HETATM   18  C   UNL     1     -39.618  49.891 -53.890  1.00  0.00     0.179 C 
HETATM   19  N   UNL     1     -40.130  52.079 -54.723  1.00  0.00    -0.185 NA
HETATM   20  C   UNL     1     -40.445  53.256 -54.186  1.00  0.00     0.149 A 
ENDBRANCH  13  14
ENDBRANCH   9  13
ENDBRANCH   1   7
BRANCH   3  21
HETATM   21  C   UNL     1     -44.135  58.286 -57.076  1.00  0.00     0.206 C 
BRANCH  21  22
HETATM   22  O   UNL     1     -43.874  57.019 -57.677  1.00  0.00    -0.381 OA
BRANCH  22  23
HETATM   23  C   UNL     1     -43.537  57.111 -59.065  1.00  0.00     0.121 C 
HETATM   24  C   UNL     1     -43.075  55.746 -59.592  1.00  0.00     0.032 C 
HETATM   25  C   UNL     1     -44.198  54.708 -59.573  1.00  0.00     0.002 C 
HETATM   26  C   UNL     1     -45.432  55.198 -60.323  1.00  0.00     0.000 C 
HETATM   27  C   UNL     1     -45.907  56.551 -59.800  1.00  0.00     0.002 C 
HETATM   28  C   UNL     1     -44.783  57.587 -59.819  1.00  0.00     0.032 C 
ENDBRANCH  22  23
ENDBRANCH  21  22
ENDBRANCH   3  21
TORSDOF 6
ENDMDL
MODEL 9
REMARK VINA RESULT:      -6.8      4.449      8.349
REMARK  6 active torsions:
REMARK  status: ('A' for Active; 'I' for Inactive)
REMARK    1  A    between atoms: C_7  and  C_8 
REMARK    2  A    between atoms: C_8  and  N_9 
REMARK       I    between atoms: N_9  and  C_10 
REMARK       I    between atoms: C_10  and  N_11 
REMARK    3  A    between atoms: N_11  and  C_12 
REMARK    4  A    between atoms: C_14  and  C_15 
REMARK    5  A    between atoms: C_15  and  O_16 
REMARK    6  A    between atoms: O_16  and  C_17 
ROOT
HETATM    1  C   UNL     1     -42.465  55.285 -55.820  1.00  0.00     0.036 A 
HETATM    2  C   UNL     1     -42.841  55.907 -54.625  1.00  0.00     0.038 A 
HETATM    3  C   UNL     1     -41.973  55.923 -53.518  1.00  0.00    -0.032 A 
HETATM    4  C   UNL     1     -40.713  55.318 -53.626  1.00  0.00     0.009 A 
HETATM    5  C   UNL     1     -40.318  54.724 -54.821  1.00  0.00     0.003 A 
HETATM    6  C   UNL     1     -41.188  54.713 -55.910  1.00  0.00     0.029 A 
ENDROOT
BRANCH   1   7
HETATM    7  N   UNL     1     -43.254  55.221 -56.983  1.00  0.00    -0.309 N 
HETATM    8  C   UNL     1     -43.275  55.912 -58.152  1.00  0.00     0.320 C 
HETATM    9  N   UNL     1     -42.564  57.064 -58.235  1.00  0.00    -0.339 N 
HETATM   10  O   UNL     1     -43.971  55.491 -59.075  1.00  0.00    -0.247 OA
HETATM   11  H   UNL     1     -42.502  57.578 -57.370  1.00  0.00     0.164 HD
HETATM   12  H   UNL     1     -43.947  54.483 -57.005  1.00  0.00     0.170 HD
BRANCH   9  13
HETATM   13  C   UNL     1     -42.657  57.861 -59.435  1.00  0.00     0.166 C 
BRANCH  13  14
HETATM   14  C   UNL     1     -42.069  59.199 -59.179  1.00  0.00     0.003 A 
HETATM   15  C   UNL     1     -41.881  60.247 -60.071  1.00  0.00     0.035 A 
HETATM   16  C   UNL     1     -42.163  60.337 -61.526  1.00  0.00     0.070 C 
HETATM   17  N   UNL     1     -41.384  61.286 -59.325  1.00  0.00    -0.278 N 
HETATM   18  C   UNL     1     -41.095  62.635 -59.749  1.00  0.00     0.179 C 
HETATM   19  N   UNL     1     -41.181  60.965 -58.034  1.00  0.00    -0.185 NA
HETATM   20  C   UNL     1     -41.614  59.708 -57.944  1.00  0.00     0.149 A 
ENDBRANCH  13  14
ENDBRANCH   9  13
ENDBRANCH   1   7
BRANCH   3  21
HETATM   21  C   UNL     1     -42.393  56.550 -52.212  1.00  0.00     0.206 C 
BRANCH  21  22
HETATM   22  O   UNL     1     -41.473  56.166 -51.192  1.00  0.00    -0.381 OA
BRANCH  22  23
HETATM   23  C   UNL     1     -42.081  55.420 -50.133  1.00  0.00     0.121 C 
HETATM   24  C   UNL     1     -42.579  54.065 -50.655  1.00  0.00     0.032 C 
HETATM   25  C   UNL     1     -41.431  53.161 -51.105  1.00  0.00     0.002 C 
HETATM   26  C   UNL     1     -40.391  52.978 -50.004  1.00  0.00     0.000 C 
HETATM   27  C   UNL     1     -39.881  54.319 -49.485  1.00  0.00     0.002 C 
HETATM   28  C   UNL     1     -41.029  55.222 -49.036  1.00  0.00     0.032 C 
ENDBRANCH  22  23
ENDBRANCH  21  22
ENDBRANCH   3  21
TORSDOF 6
ENDMDL
MODEL 10
REMARK VINA RESULT:      -6.8      3.110      7.646
REMARK  6 active torsions:
REMARK  status: ('A' for Active; 'I' for Inactive)
REMARK    1  A    between atoms: C_7  and  C_8 
REMARK    2  A    between atoms: C_8  and  N_9 
REMARK       I    between atoms: N_9  and  C_10 
REMARK       I    between atoms: C_10  and  N_11 
REMARK    3  A    between atoms: N_11  and  C_12 
REMARK    4  A    between atoms: C_14  and  C_15 
REMARK    5  A    between atoms: C_15  and  O_16 
REMARK    6  A    between atoms: O_16  and  C_17 
ROOT
HETATM    1  C   UNL     1     -41.709  56.522 -54.711  1.00  0.00     0.036 A 
HETATM    2  C   UNL     1     -40.966  55.554 -54.029  1.00  0.00     0.038 A 
HETATM    3  C   UNL     1     -41.238  54.184 -54.201  1.00  0.00    -0.032 A 
HETATM    4  C   UNL     1     -42.259  53.793 -55.079  1.00  0.00     0.009 A 
HETATM    5  C   UNL     1     -42.983  54.748 -55.785  1.00  0.00     0.003 A 
HETATM    6  C   UNL     1     -42.705  56.102 -55.603  1.00  0.00     0.029 A 
ENDROOT
BRANCH   1   7
HETATM    7  N   UNL     1     -41.512  57.911 -54.614  1.00  0.00    -0.309 N 
HETATM    8  C   UNL     1     -41.665  58.821 -53.618  1.00  0.00     0.320 C 
HETATM    9  N   UNL     1     -42.345  58.453 -52.503  1.00  0.00    -0.339 N 
HETATM   10  O   UNL     1     -41.221  59.957 -53.781  1.00  0.00    -0.247 OA
HETATM   11  H   UNL     1     -43.084  57.787 -52.668  1.00  0.00     0.164 HD
HETATM   12  H   UNL     1     -41.136  58.362 -55.440  1.00  0.00     0.170 HD
BRANCH   9  13
HETATM   13  C   UNL     1     -42.603  59.438 -51.481  1.00  0.00     0.166 C 
BRANCH  13  14
HETATM   14  C   UNL     1     -44.053  59.753 -51.461  1.00  0.00     0.003 A 
HETATM   15  C   UNL     1     -44.726  60.777 -52.114  1.00  0.00     0.035 A 
HETATM   16  C   UNL     1     -44.212  61.872 -52.977  1.00  0.00     0.070 C 
HETATM   17  N   UNL     1     -46.057  60.583 -51.840  1.00  0.00    -0.278 N 
HETATM   18  C   UNL     1     -47.192  61.317 -52.346  1.00  0.00     0.179 C 
HETATM   19  N   UNL     1     -46.283  59.547 -51.012  1.00  0.00    -0.185 NA
HETATM   20  C   UNL     1     -45.072  59.035 -50.799  1.00  0.00     0.149 A 
ENDBRANCH  13  14
ENDBRANCH   9  13
ENDBRANCH   1   7
BRANCH   3  21
HETATM   21  C   UNL     1     -40.471  53.138 -53.432  1.00  0.00     0.206 C 
BRANCH  21  22
HETATM   22  O   UNL     1     -40.214  53.622 -52.115  1.00  0.00    -0.381 OA
BRANCH  22  23
HETATM   23  C   UNL     1     -41.080  53.056 -51.126  1.00  0.00     0.121 C 
HETATM   24  C   UNL     1     -40.335  52.896 -49.794  1.00  0.00     0.032 C 
HETATM   25  C   UNL     1     -39.941  54.242 -49.185  1.00  0.00     0.002 C 
HETATM   26  C   UNL     1     -41.145  55.167 -49.034  1.00  0.00     0.000 C 
HETATM   27  C   UNL     1     -41.888  55.342 -50.355  1.00  0.00     0.002 C 
HETATM   28  C   UNL     1     -42.280  53.996 -50.963  1.00  0.00     0.032 C 
ENDBRANCH  22  23
ENDBRANCH  21  22
ENDBRANCH   3  21
TORSDOF 6
ENDMDL
