MODEL 1
REMARK VINA RESULT:      -9.1      0.000      0.000
REMARK  6 active torsions:
REMARK  status: ('A' for Active; 'I' for Inactive)
REMARK    1  A    between atoms: C_7  and  C_8 
REMARK    2  A    between atoms: C_8  and  O_9 
REMARK    3  A    between atoms: O_9  and  C_10 
REMARK    4  A    between atoms: C_10  and  C_11 
REMARK       I    between atoms: C_11  and  N_12 
REMARK    5  A    between atoms: N_12  and  N_13 
REMARK    6  A    between atoms: C_17  and  C_18 
ROOT
HETATM    1  C   UNL     1     -43.201  58.182 -53.087  1.00  0.00     0.261 C 
HETATM    2  N   UNL     1     -44.113  57.580 -53.927  1.00  0.00    -0.255 N 
HETATM    3  O   UNL     1     -42.238  58.837 -53.480  1.00  0.00    -0.269 OA
HETATM    4  H   UNL     1     -44.998  57.222 -53.567  1.00  0.00     0.191 HD
ENDROOT
BRANCH   1   5
HETATM    5  C   UNL     1     -43.516  58.006 -51.599  1.00  0.00     0.283 C 
BRANCH   5   6
HETATM    6  O   UNL     1     -43.036  56.790 -51.021  1.00  0.00    -0.308 OA
BRANCH   6   7
HETATM    7  C   UNL     1     -41.713  56.758 -50.736  1.00  0.00     0.293 C 
HETATM    8  O   UNL     1     -41.084  57.678 -50.233  1.00  0.00    -0.259 OA
BRANCH   7   9
HETATM    9  C   UNL     1     -41.133  55.421 -51.031  1.00  0.00     0.040 A 
HETATM   10  C   UNL     1     -40.712  54.638 -49.951  1.00  0.00     0.020 A 
HETATM   11  C   UNL     1     -40.205  53.350 -50.146  1.00  0.00     0.031 A 
HETATM   12  C   UNL     1     -40.136  52.875 -51.460  1.00  0.00     0.043 A 
HETATM   13  C   UNL     1     -40.525  53.632 -52.563  1.00  0.00    -0.001 A 
HETATM   14  N   UNL     1     -39.715  51.656 -51.935  1.00  0.00    -0.359 N 
HETATM   15  C   UNL     1     -40.309  52.832 -53.731  1.00  0.00    -0.027 A 
HETATM   16  C   UNL     1     -41.029  54.932 -52.344  1.00  0.00     0.032 A 
HETATM   17  C   UNL     1     -40.569  53.226 -55.144  1.00  0.00     0.051 C 
HETATM   18  C   UNL     1     -39.831  51.605 -53.301  1.00  0.00     0.012 A 
HETATM   19  C   UNL     1     -39.479  50.382 -54.069  1.00  0.00     0.068 C 
HETATM   20  H   UNL     1     -39.389  50.899 -51.351  1.00  0.00     0.166 HD
ENDBRANCH   7   9
ENDBRANCH   6   7
ENDBRANCH   5   6
ENDBRANCH   1   5
BRANCH   2  21
HETATM   21  N   UNL     1     -44.039  57.851 -55.277  1.00  0.00    -0.167 N 
HETATM   22  C   UNL     1     -44.606  58.944 -55.873  1.00  0.00     0.345 A 
HETATM   23  O   UNL     1     -45.240  59.852 -55.361  1.00  0.00    -0.245 OA
HETATM   24  N   UNL     1     -44.285  58.897 -57.216  1.00  0.00    -0.319 N 
HETATM   25  C   UNL     1     -43.457  57.751 -57.558  1.00  0.00     0.141 A 
HETATM   26  H   UNL     1     -44.589  59.620 -57.854  1.00  0.00     0.166 HD
HETATM   27  C   UNL     1     -43.278  57.120 -56.152  1.00  0.00     0.279 A 
HETATM   28  C   UNL     1     -42.102  58.246 -58.072  1.00  0.00     0.055 C 
HETATM   29  O   UNL     1     -42.553  56.171 -55.871  1.00  0.00    -0.268 OA
BRANCH  25  30
HETATM   30  C   UNL     1     -44.135  56.788 -58.527  1.00  0.00    -0.021 A 
HETATM   31  C   UNL     1     -43.576  55.544 -58.869  1.00  0.00     0.010 A 
HETATM   32  C   UNL     1     -44.221  54.684 -59.763  1.00  0.00     0.001 A 
HETATM   33  C   UNL     1     -45.434  55.052 -60.337  1.00  0.00     0.000 A 
HETATM   34  C   UNL     1     -46.003  56.280 -60.020  1.00  0.00     0.001 A 
HETATM   35  C   UNL     1     -45.361  57.139 -59.126  1.00  0.00     0.010 A 
ENDBRANCH  25  30
ENDBRANCH   2  21
TORSDOF 6
ENDMDL
MODEL 2
REMARK VINA RESULT:      -9.0      2.990      4.864
REMARK  6 active torsions:
REMARK  status: ('A' for Active; 'I' for Inactive)
REMARK    1  A    between atoms: C_7  and  C_8 
REMARK    2  A    between atoms: C_8  and  O_9 
REMARK    3  A    between atoms: O_9  and  C_10 
REMARK    4  A    between atoms: C_10  and  C_11 
REMARK       I    between atoms: C_11  and  N_12 
REMARK    5  A    between atoms: N_12  and  N_13 
REMARK    6  A    between atoms: C_17  and  C_18 
ROOT
HETATM    1  C   UNL     1     -43.217  56.644 -57.291  1.00  0.00     0.261 C 
HETATM    2  N   UNL     1     -42.108  57.411 -57.579  1.00  0.00    -0.255 N 
HETATM    3  O   UNL     1     -44.301  56.769 -57.858  1.00  0.00    -0.269 OA
HETATM    4  H   UNL     1     -41.185  57.144 -57.234  1.00  0.00     0.191 HD
ENDROOT
BRANCH   1   5
HETATM    5  C   UNL     1     -42.973  55.573 -56.223  1.00  0.00     0.283 C 
BRANCH   5   6
HETATM    6  O   UNL     1     -41.626  55.486 -55.755  1.00  0.00    -0.308 OA
BRANCH   6   7
HETATM    7  C   UNL     1     -41.379  56.082 -54.564  1.00  0.00     0.293 C 
HETATM    8  O   UNL     1     -41.507  57.278 -54.341  1.00  0.00    -0.259 OA
BRANCH   7   9
HETATM    9  C   UNL     1     -41.017  55.081 -53.528  1.00  0.00     0.040 A 
HETATM   10  C   UNL     1     -41.169  55.443 -52.185  1.00  0.00     0.020 A 
HETATM   11  C   UNL     1     -40.899  54.537 -51.156  1.00  0.00     0.031 A 
HETATM   12  C   UNL     1     -40.471  53.256 -51.519  1.00  0.00     0.043 A 
HETATM   13  C   UNL     1     -40.286  52.863 -52.844  1.00  0.00    -0.001 A 
HETATM   14  N   UNL     1     -40.167  52.172 -50.732  1.00  0.00    -0.359 N 
HETATM   15  C   UNL     1     -39.841  51.502 -52.831  1.00  0.00    -0.027 A 
HETATM   16  C   UNL     1     -40.561  53.796 -53.867  1.00  0.00     0.032 A 
HETATM   17  C   UNL     1     -39.504  50.662 -54.013  1.00  0.00     0.051 C 
HETATM   18  C   UNL     1     -39.804  51.099 -51.505  1.00  0.00     0.012 A 
HETATM   19  C   UNL     1     -39.461  49.784 -50.905  1.00  0.00     0.068 C 
HETATM   20  H   UNL     1     -40.227  52.166 -49.723  1.00  0.00     0.166 HD
ENDBRANCH   7   9
ENDBRANCH   6   7
ENDBRANCH   5   6
ENDBRANCH   1   5
BRANCH   2  21
HETATM   21  N   UNL     1     -42.162  58.258 -58.664  1.00  0.00    -0.167 N 
HETATM   22  C   UNL     1     -41.955  57.864 -59.957  1.00  0.00     0.345 A 
HETATM   23  O   UNL     1     -41.711  56.749 -60.388  1.00  0.00    -0.245 OA
HETATM   24  N   UNL     1     -42.133  58.973 -60.763  1.00  0.00    -0.319 N 
HETATM   25  C   UNL     1     -42.491  60.165 -60.010  1.00  0.00     0.141 A 
HETATM   26  H   UNL     1     -42.042  58.912 -61.768  1.00  0.00     0.166 HD
HETATM   27  C   UNL     1     -42.556  59.569 -58.579  1.00  0.00     0.279 A 
HETATM   28  C   UNL     1     -43.887  60.627 -60.435  1.00  0.00     0.055 C 
HETATM   29  O   UNL     1     -42.934  60.152 -57.567  1.00  0.00    -0.268 OA
BRANCH  25  30
HETATM   30  C   UNL     1     -41.450  61.275 -60.112  1.00  0.00    -0.021 A 
HETATM   31  C   UNL     1     -41.101  61.872 -61.337  1.00  0.00     0.010 A 
HETATM   32  C   UNL     1     -40.141  62.887 -61.398  1.00  0.00     0.001 A 
HETATM   33  C   UNL     1     -39.508  63.323 -60.238  1.00  0.00     0.000 A 
HETATM   34  C   UNL     1     -39.832  62.744 -59.016  1.00  0.00     0.001 A 
HETATM   35  C   UNL     1     -40.791  61.731 -58.954  1.00  0.00     0.010 A 
ENDBRANCH  25  30
ENDBRANCH   2  21
TORSDOF 6
ENDMDL
MODEL 3
REMARK VINA RESULT:      -8.9      5.104      9.284
REMARK  6 active torsions:
REMARK  status: ('A' for Active; 'I' for Inactive)
REMARK    1  A    between atoms: C_7  and  C_8 
REMARK    2  A    between atoms: C_8  and  O_9 
REMARK    3  A    between atoms: O_9  and  C_10 
REMARK    4  A    between atoms: C_10  and  C_11 
REMARK       I    between atoms: C_11  and  N_12 
REMARK    5  A    between atoms: N_12  and  N_13 
REMARK    6  A    between atoms: C_17  and  C_18 
ROOT
HETATM    1  C   UNL     1     -43.362  58.728 -51.486  1.00  0.00     0.261 C 
HETATM    2  N   UNL     1     -42.676  57.665 -50.938  1.00  0.00    -0.255 N 
HETATM    3  O   UNL     1     -43.998  58.664 -52.537  1.00  0.00    -0.269 OA
HETATM    4  H   UNL     1     -42.336  57.702 -49.977  1.00  0.00     0.191 HD
ENDROOT
BRANCH   1   5
HETATM    5  C   UNL     1     -43.310  60.004 -50.640  1.00  0.00     0.283 C 
BRANCH   5   6
HETATM    6  O   UNL     1     -44.531  60.743 -50.589  1.00  0.00    -0.308 OA
BRANCH   6   7
HETATM    7  C   UNL     1     -45.404  60.368 -49.625  1.00  0.00     0.293 C 
HETATM    8  O   UNL     1     -45.915  59.260 -49.537  1.00  0.00    -0.259 OA
BRANCH   7   9
HETATM    9  C   UNL     1     -45.598  61.450 -48.624  1.00  0.00     0.040 A 
HETATM   10  C   UNL     1     -46.347  62.568 -49.006  1.00  0.00     0.020 A 
HETATM   11  C   UNL     1     -46.615  63.601 -48.103  1.00  0.00     0.031 A 
HETATM   12  C   UNL     1     -46.106  63.475 -46.806  1.00  0.00     0.043 A 
HETATM   13  C   UNL     1     -45.338  62.387 -46.394  1.00  0.00    -0.001 A 
HETATM   14  N   UNL     1     -46.238  64.309 -45.723  1.00  0.00    -0.359 N 
HETATM   15  C   UNL     1     -44.992  62.601 -45.021  1.00  0.00    -0.027 A 
HETATM   16  C   UNL     1     -45.075  61.357 -47.324  1.00  0.00     0.032 A 
HETATM   17  C   UNL     1     -44.168  61.709 -44.159  1.00  0.00     0.051 C 
HETATM   18  C   UNL     1     -45.588  63.790 -44.632  1.00  0.00     0.012 A 
HETATM   19  C   UNL     1     -45.605  64.476 -43.314  1.00  0.00     0.068 C 
HETATM   20  H   UNL     1     -46.760  65.174 -45.730  1.00  0.00     0.166 HD
ENDBRANCH   7   9
ENDBRANCH   6   7
ENDBRANCH   5   6
ENDBRANCH   1   5
BRANCH   2  21
HETATM   21  N   UNL     1     -42.832  56.421 -51.511  1.00  0.00    -0.167 N 
HETATM   22  C   UNL     1     -43.792  55.521 -51.141  1.00  0.00     0.345 A 
HETATM   23  O   UNL     1     -44.663  55.634 -50.293  1.00  0.00    -0.245 OA
HETATM   24  N   UNL     1     -43.663  54.416 -51.961  1.00  0.00    -0.319 N 
HETATM   25  C   UNL     1     -42.596  54.561 -52.939  1.00  0.00     0.141 A 
HETATM   26  H   UNL     1     -44.285  53.623 -51.876  1.00  0.00     0.166 HD
HETATM   27  C   UNL     1     -42.119  55.999 -52.604  1.00  0.00     0.279 A 
HETATM   28  C   UNL     1     -43.197  54.538 -54.347  1.00  0.00     0.055 C 
HETATM   29  O   UNL     1     -41.290  56.652 -53.230  1.00  0.00    -0.268 OA
BRANCH  25  30
HETATM   30  C   UNL     1     -41.477  53.540 -52.763  1.00  0.00    -0.021 A 
HETATM   31  C   UNL     1     -40.974  52.780 -53.835  1.00  0.00     0.010 A 
HETATM   32  C   UNL     1     -39.948  51.850 -53.641  1.00  0.00     0.001 A 
HETATM   33  C   UNL     1     -39.409  51.656 -52.373  1.00  0.00     0.000 A 
HETATM   34  C   UNL     1     -39.894  52.390 -51.297  1.00  0.00     0.001 A 
HETATM   35  C   UNL     1     -40.917  53.321 -51.490  1.00  0.00     0.010 A 
ENDBRANCH  25  30
ENDBRANCH   2  21
TORSDOF 6
ENDMDL
MODEL 4
REMARK VINA RESULT:      -8.9      4.451      8.727
REMARK  6 active torsions:
REMARK  status: ('A' for Active; 'I' for Inactive)
REMARK    1  A    between atoms: C_7  and  C_8 
REMARK    2  A    between atoms: C_8  and  O_9 
REMARK    3  A    between atoms: O_9  and  C_10 
REMARK    4  A    between atoms: C_10  and  C_11 
REMARK       I    between atoms: C_11  and  N_12 
REMARK    5  A    between atoms: N_12  and  N_13 
REMARK    6  A    between atoms: C_17  and  C_18 
ROOT
HETATM    1  C   UNL     1     -41.347  58.131 -50.965  1.00  0.00     0.261 C 
HETATM    2  N   UNL     1     -42.439  57.904 -51.776  1.00  0.00    -0.255 N 
HETATM    3  O   UNL     1     -40.680  57.236 -50.450  1.00  0.00    -0.269 OA
HETATM    4  H   UNL     1     -42.836  58.657 -52.339  1.00  0.00     0.191 HD
ENDROOT
BRANCH   1   5
HETATM    5  C   UNL     1     -40.997  59.612 -50.793  1.00  0.00     0.283 C 
BRANCH   5   6
HETATM    6  O   UNL     1     -41.905  60.355 -49.977  1.00  0.00    -0.308 OA
BRANCH   6   7
HETATM    7  C   UNL     1     -42.767  61.159 -50.642  1.00  0.00     0.293 C 
HETATM    8  O   UNL     1     -42.944  61.147 -51.853  1.00  0.00    -0.259 OA
BRANCH   7   9
HETATM    9  C   UNL     1     -43.547  62.005 -49.701  1.00  0.00     0.040 A 
HETATM   10  C   UNL     1     -43.451  63.394 -49.835  1.00  0.00     0.020 A 
HETATM   11  C   UNL     1     -44.194  64.253 -49.021  1.00  0.00     0.031 A 
HETATM   12  C   UNL     1     -45.037  63.671 -48.067  1.00  0.00     0.043 A 
HETATM   13  C   UNL     1     -45.144  62.292 -47.888  1.00  0.00    -0.001 A 
HETATM   14  N   UNL     1     -45.891  64.261 -47.168  1.00  0.00    -0.359 N 
HETATM   15  C   UNL     1     -46.085  62.068 -46.832  1.00  0.00    -0.027 A 
HETATM   16  C   UNL     1     -44.380  61.444 -48.719  1.00  0.00     0.032 A 
HETATM   17  C   UNL     1     -46.512  60.752 -46.282  1.00  0.00     0.051 C 
HETATM   18  C   UNL     1     -46.546  63.311 -46.427  1.00  0.00     0.012 A 
HETATM   19  C   UNL     1     -47.559  63.679 -45.405  1.00  0.00     0.068 C 
HETATM   20  H   UNL     1     -46.029  65.259 -47.085  1.00  0.00     0.166 HD
ENDBRANCH   7   9
ENDBRANCH   6   7
ENDBRANCH   5   6
ENDBRANCH   1   5
BRANCH   2  21
HETATM   21  N   UNL     1     -42.710  56.609 -52.161  1.00  0.00    -0.167 N 
HETATM   22  C   UNL     1     -43.642  55.809 -51.559  1.00  0.00     0.345 A 
HETATM   23  O   UNL     1     -44.387  56.067 -50.628  1.00  0.00    -0.245 OA
HETATM   24  N   UNL     1     -43.659  54.607 -52.241  1.00  0.00    -0.319 N 
HETATM   25  C   UNL     1     -42.728  54.580 -53.358  1.00  0.00     0.141 A 
HETATM   26  H   UNL     1     -44.289  53.862 -51.977  1.00  0.00     0.166 HD
HETATM   27  C   UNL     1     -42.164  56.022 -53.273  1.00  0.00     0.279 A 
HETATM   28  C   UNL     1     -43.513  54.414 -54.663  1.00  0.00     0.055 C 
HETATM   29  O   UNL     1     -41.405  56.553 -54.078  1.00  0.00    -0.268 OA
BRANCH  25  30
HETATM   30  C   UNL     1     -41.630  53.533 -53.200  1.00  0.00    -0.021 A 
HETATM   31  C   UNL     1     -40.933  53.348 -51.993  1.00  0.00     0.010 A 
HETATM   32  C   UNL     1     -39.929  52.381 -51.879  1.00  0.00     0.001 A 
HETATM   33  C   UNL     1     -39.598  51.584 -52.971  1.00  0.00     0.000 A 
HETATM   34  C   UNL     1     -40.268  51.753 -54.177  1.00  0.00     0.001 A 
HETATM   35  C   UNL     1     -41.272  52.717 -54.291  1.00  0.00     0.010 A 
ENDBRANCH  25  30
ENDBRANCH   2  21
TORSDOF 6
ENDMDL
MODEL 5
REMARK VINA RESULT:      -8.8      1.881      7.010
REMARK  6 active torsions:
REMARK  status: ('A' for Active; 'I' for Inactive)
REMARK    1  A    between atoms: C_7  and  C_8 
REMARK    2  A    between atoms: C_8  and  O_9 
REMARK    3  A    between atoms: O_9  and  C_10 
REMARK    4  A    between atoms: C_10  and  C_11 
REMARK       I    between atoms: C_11  and  N_12 
REMARK    5  A    between atoms: N_12  and  N_13 
REMARK    6  A    between atoms: C_17  and  C_18 
ROOT
HETATM    1  C   UNL     1     -41.834  59.484 -53.441  1.00  0.00     0.261 C 
HETATM    2  N   UNL     1     -42.544  58.846 -52.446  1.00  0.00    -0.255 N 
HETATM    3  O   UNL     1     -40.746  59.096 -53.861  1.00  0.00    -0.269 OA
HETATM    4  H   UNL     1     -43.522  59.080 -52.270  1.00  0.00     0.191 HD
ENDROOT
BRANCH   1   5
HETATM    5  C   UNL     1     -42.545  60.709 -54.025  1.00  0.00     0.283 C 
BRANCH   5   6
HETATM    6  O   UNL     1     -43.238  60.474 -55.252  1.00  0.00    -0.308 OA
BRANCH   6   7
HETATM    7  C   UNL     1     -44.198  59.520 -55.210  1.00  0.00     0.293 C 
HETATM    8  O   UNL     1     -45.156  59.524 -54.450  1.00  0.00    -0.259 OA
BRANCH   7   9
HETATM    9  C   UNL     1     -43.990  58.504 -56.275  1.00  0.00     0.040 A 
HETATM   10  C   UNL     1     -42.868  57.675 -56.179  1.00  0.00     0.020 A 
HETATM   11  C   UNL     1     -42.634  56.662 -57.114  1.00  0.00     0.031 A 
HETATM   12  C   UNL     1     -43.565  56.510 -58.148  1.00  0.00     0.043 A 
HETATM   13  C   UNL     1     -44.683  57.329 -58.290  1.00  0.00    -0.001 A 
HETATM   14  N   UNL     1     -43.603  55.594 -59.172  1.00  0.00    -0.359 N 
HETATM   15  C   UNL     1     -45.395  56.887 -59.452  1.00  0.00    -0.027 A 
HETATM   16  C   UNL     1     -44.897  58.349 -57.337  1.00  0.00     0.032 A 
HETATM   17  C   UNL     1     -46.649  57.469 -60.005  1.00  0.00     0.051 C 
HETATM   18  C   UNL     1     -44.709  55.794 -59.957  1.00  0.00     0.012 A 
HETATM   19  C   UNL     1     -45.013  54.915 -61.115  1.00  0.00     0.068 C 
HETATM   20  H   UNL     1     -42.918  54.864 -59.308  1.00  0.00     0.166 HD
ENDBRANCH   7   9
ENDBRANCH   6   7
ENDBRANCH   5   6
ENDBRANCH   1   5
BRANCH   2  21
HETATM   21  N   UNL     1     -42.092  57.622 -52.002  1.00  0.00    -0.167 N 
HETATM   22  C   UNL     1     -41.095  57.462 -51.079  1.00  0.00     0.345 A 
HETATM   23  O   UNL     1     -40.454  58.315 -50.487  1.00  0.00    -0.245 OA
HETATM   24  N   UNL     1     -40.950  56.106 -50.856  1.00  0.00    -0.319 N 
HETATM   25  C   UNL     1     -41.885  55.305 -51.631  1.00  0.00     0.141 A 
HETATM   26  H   UNL     1     -40.273  55.751 -50.194  1.00  0.00     0.166 HD
HETATM   27  C   UNL     1     -42.679  56.431 -52.342  1.00  0.00     0.279 A 
HETATM   28  C   UNL     1     -42.813  54.550 -50.675  1.00  0.00     0.055 C 
HETATM   29  O   UNL     1     -43.677  56.285 -53.041  1.00  0.00    -0.268 OA
BRANCH  25  30
HETATM   30  C   UNL     1     -41.198  54.381 -52.632  1.00  0.00    -0.021 A 
HETATM   31  C   UNL     1     -40.931  54.768 -53.957  1.00  0.00     0.010 A 
HETATM   32  C   UNL     1     -40.302  53.897 -54.851  1.00  0.00     0.001 A 
HETATM   33  C   UNL     1     -39.932  52.620 -54.441  1.00  0.00     0.000 A 
HETATM   34  C   UNL     1     -40.192  52.211 -53.138  1.00  0.00     0.001 A 
HETATM   35  C   UNL     1     -40.818  53.081 -52.244  1.00  0.00     0.010 A 
ENDBRANCH  25  30
ENDBRANCH   2  21
TORSDOF 6
ENDMDL
MODEL 6
REMARK VINA RESULT:      -8.5      1.569      2.522
REMARK  6 active torsions:
REMARK  status: ('A' for Active; 'I' for Inactive)
REMARK    1  A    between atoms: C_7  and  C_8 
REMARK    2  A    between atoms: C_8  and  O_9 
REMARK    3  A    between atoms: O_9  and  C_10 
REMARK    4  A    between atoms: C_10  and  C_11 
REMARK       I    between atoms: C_11  and  N_12 
REMARK    5  A    between atoms: N_12  and  N_13 
REMARK    6  A    between atoms: C_17  and  C_18 
ROOT
HETATM    1  C   UNL     1     -42.979  58.909 -54.620  1.00  0.00     0.261 C 
HETATM    2  N   UNL     1     -42.034  59.029 -55.617  1.00  0.00    -0.255 N 
HETATM    3  O   UNL     1     -44.192  58.900 -54.825  1.00  0.00    -0.269 OA
HETATM    4  H   UNL     1     -41.050  58.831 -55.430  1.00  0.00     0.191 HD
ENDROOT
BRANCH   1   5
HETATM    5  C   UNL     1     -42.387  58.735 -53.219  1.00  0.00     0.283 C 
BRANCH   5   6
HETATM    6  O   UNL     1     -41.291  57.823 -53.137  1.00  0.00    -0.308 OA
BRANCH   6   7
HETATM    7  C   UNL     1     -41.432  56.813 -52.247  1.00  0.00     0.293 C 
HETATM    8  O   UNL     1     -41.833  56.944 -51.099  1.00  0.00    -0.259 OA
BRANCH   7   9
HETATM    9  C   UNL     1     -41.124  55.500 -52.871  1.00  0.00     0.040 A 
HETATM   10  C   UNL     1     -41.142  55.418 -54.267  1.00  0.00     0.020 A 
HETATM   11  C   UNL     1     -40.811  54.231 -54.927  1.00  0.00     0.031 A 
HETATM   12  C   UNL     1     -40.462  53.129 -54.138  1.00  0.00     0.043 A 
HETATM   13  C   UNL     1     -40.453  53.164 -52.745  1.00  0.00    -0.001 A 
HETATM   14  N   UNL     1     -40.070  51.867 -54.512  1.00  0.00    -0.359 N 
HETATM   15  C   UNL     1     -40.057  51.868 -52.285  1.00  0.00    -0.027 A 
HETATM   16  C   UNL     1     -40.795  54.373 -52.099  1.00  0.00     0.032 A 
HETATM   17  C   UNL     1     -39.916  51.427 -50.869  1.00  0.00     0.051 C 
HETATM   18  C   UNL     1     -39.803  51.097 -53.408  1.00  0.00     0.012 A 
HETATM   19  C   UNL     1     -39.321  49.697 -53.531  1.00  0.00     0.068 C 
HETATM   20  H   UNL     1     -39.973  51.561 -55.470  1.00  0.00     0.166 HD
ENDBRANCH   7   9
ENDBRANCH   6   7
ENDBRANCH   5   6
ENDBRANCH   1   5
BRANCH   2  21
HETATM   21  N   UNL     1     -42.455  58.982 -56.928  1.00  0.00    -0.167 N 
HETATM   22  C   UNL     1     -42.696  60.087 -57.697  1.00  0.00     0.345 A 
HETATM   23  O   UNL     1     -42.579  61.266 -57.403  1.00  0.00    -0.245 OA
HETATM   24  N   UNL     1     -43.057  59.646 -58.956  1.00  0.00    -0.319 N 
HETATM   25  C   UNL     1     -43.049  58.196 -59.068  1.00  0.00     0.141 A 
HETATM   26  H   UNL     1     -43.269  60.297 -59.700  1.00  0.00     0.166 HD
HETATM   27  C   UNL     1     -42.558  57.819 -57.646  1.00  0.00     0.279 A 
HETATM   28  C   UNL     1     -41.997  57.778 -60.100  1.00  0.00     0.055 C 
HETATM   29  O   UNL     1     -42.270  56.693 -57.253  1.00  0.00    -0.268 OA
BRANCH  25  30
HETATM   30  C   UNL     1     -44.425  57.609 -59.365  1.00  0.00    -0.021 A 
HETATM   31  C   UNL     1     -45.606  58.140 -58.817  1.00  0.00     0.010 A 
HETATM   32  C   UNL     1     -46.853  57.577 -59.107  1.00  0.00     0.001 A 
HETATM   33  C   UNL     1     -46.944  56.469 -59.944  1.00  0.00     0.000 A 
HETATM   34  C   UNL     1     -45.790  55.922 -60.492  1.00  0.00     0.001 A 
HETATM   35  C   UNL     1     -44.544  56.485 -60.205  1.00  0.00     0.010 A 
ENDBRANCH  25  30
ENDBRANCH   2  21
TORSDOF 6
ENDMDL
MODEL 7
REMARK VINA RESULT:      -8.5      1.433      1.887
REMARK  6 active torsions:
REMARK  status: ('A' for Active; 'I' for Inactive)
REMARK    1  A    between atoms: C_7  and  C_8 
REMARK    2  A    between atoms: C_8  and  O_9 
REMARK    3  A    between atoms: O_9  and  C_10 
REMARK    4  A    between atoms: C_10  and  C_11 
REMARK       I    between atoms: C_11  and  N_12 
REMARK    5  A    between atoms: N_12  and  N_13 
REMARK    6  A    between atoms: C_17  and  C_18 
ROOT
HETATM    1  C   UNL     1     -44.176  58.324 -54.832  1.00  0.00     0.261 C 
HETATM    2  N   UNL     1     -43.083  58.722 -55.572  1.00  0.00    -0.255 N 
HETATM    3  O   UNL     1     -45.274  58.063 -55.320  1.00  0.00    -0.269 OA
HETATM    4  H   UNL     1     -42.149  58.732 -55.161  1.00  0.00     0.191 HD
ENDROOT
BRANCH   1   5
HETATM    5  C   UNL     1     -43.894  58.184 -53.333  1.00  0.00     0.283 C 
BRANCH   5   6
HETATM    6  O   UNL     1     -43.240  56.972 -52.954  1.00  0.00    -0.308 OA
BRANCH   6   7
HETATM    7  C   UNL     1     -41.915  57.076 -52.696  1.00  0.00     0.293 C 
HETATM    8  O   UNL     1     -41.240  58.076 -52.897  1.00  0.00    -0.259 OA
BRANCH   7   9
HETATM    9  C   UNL     1     -41.397  55.844 -52.047  1.00  0.00     0.040 A 
HETATM   10  C   UNL     1     -41.337  55.815 -50.649  1.00  0.00     0.020 A 
HETATM   11  C   UNL     1     -40.910  54.673 -49.966  1.00  0.00     0.031 A 
HETATM   12  C   UNL     1     -40.545  53.560 -50.733  1.00  0.00     0.043 A 
HETATM   13  C   UNL     1     -40.570  53.557 -52.126  1.00  0.00    -0.001 A 
HETATM   14  N   UNL     1     -40.124  52.315 -50.334  1.00  0.00    -0.359 N 
HETATM   15  C   UNL     1     -40.130  52.265 -52.561  1.00  0.00    -0.027 A 
HETATM   16  C   UNL     1     -41.000  54.723 -52.795  1.00  0.00     0.032 A 
HETATM   17  C   UNL     1     -39.982  51.799 -53.967  1.00  0.00     0.051 C 
HETATM   18  C   UNL     1     -39.886  51.514 -51.422  1.00  0.00     0.012 A 
HETATM   19  C   UNL     1     -39.456  50.100 -51.271  1.00  0.00     0.068 C 
HETATM   20  H   UNL     1     -40.025  52.029 -49.370  1.00  0.00     0.166 HD
ENDBRANCH   7   9
ENDBRANCH   6   7
ENDBRANCH   5   6
ENDBRANCH   1   5
BRANCH   2  21
HETATM   21  N   UNL     1     -43.173  58.678 -56.947  1.00  0.00    -0.167 N 
HETATM   22  C   UNL     1     -43.373  59.775 -57.739  1.00  0.00     0.345 A 
HETATM   23  O   UNL     1     -43.490  60.945 -57.411  1.00  0.00    -0.245 OA
HETATM   24  N   UNL     1     -43.364  59.347 -59.052  1.00  0.00    -0.319 N 
HETATM   25  C   UNL     1     -43.132  57.916 -59.176  1.00  0.00     0.141 A 
HETATM   26  H   UNL     1     -43.481  59.996 -59.818  1.00  0.00     0.166 HD
HETATM   27  C   UNL     1     -42.944  57.544 -57.682  1.00  0.00     0.279 A 
HETATM   28  C   UNL     1     -41.820  57.683 -59.930  1.00  0.00     0.055 C 
HETATM   29  O   UNL     1     -42.607  56.448 -57.245  1.00  0.00    -0.268 OA
BRANCH  25  30
HETATM   30  C   UNL     1     -44.306  57.169 -59.800  1.00  0.00    -0.021 A 
HETATM   31  C   UNL     1     -44.155  55.929 -60.446  1.00  0.00     0.010 A 
HETATM   32  C   UNL     1     -45.251  55.270 -61.010  1.00  0.00     0.001 A 
HETATM   33  C   UNL     1     -46.519  55.839 -60.946  1.00  0.00     0.000 A 
HETATM   34  C   UNL     1     -46.694  57.067 -60.319  1.00  0.00     0.001 A 
HETATM   35  C   UNL     1     -45.600  57.725 -59.753  1.00  0.00     0.010 A 
ENDBRANCH  25  30
ENDBRANCH   2  21
TORSDOF 6
ENDMDL
MODEL 8
REMARK VINA RESULT:      -8.5      1.617      2.405
REMARK  6 active torsions:
REMARK  status: ('A' for Active; 'I' for Inactive)
REMARK    1  A    between atoms: C_7  and  C_8 
REMARK    2  A    between atoms: C_8  and  O_9 
REMARK    3  A    between atoms: O_9  and  C_10 
REMARK    4  A    between atoms: C_10  and  C_11 
REMARK       I    between atoms: C_11  and  N_12 
REMARK    5  A    between atoms: N_12  and  N_13 
REMARK    6  A    between atoms: C_17  and  C_18 
ROOT
HETATM    1  C   UNL     1     -42.126  59.210 -54.456  1.00  0.00     0.261 C 
HETATM    2  N   UNL     1     -42.346  58.077 -55.211  1.00  0.00    -0.255 N 
HETATM    3  O   UNL     1     -42.810  60.228 -54.535  1.00  0.00    -0.269 OA
HETATM    4  H   UNL     1     -41.891  57.195 -54.975  1.00  0.00     0.191 HD
ENDROOT
BRANCH   1   5
HETATM    5  C   UNL     1     -40.972  59.076 -53.457  1.00  0.00     0.283 C 
BRANCH   5   6
HETATM    6  O   UNL     1     -40.436  57.758 -53.329  1.00  0.00    -0.308 OA
BRANCH   6   7
HETATM    7  C   UNL     1     -41.239  56.855 -52.718  1.00  0.00     0.293 C 
HETATM    8  O   UNL     1     -42.141  57.134 -51.940  1.00  0.00    -0.259 OA
BRANCH   7   9
HETATM    9  C   UNL     1     -40.946  55.475 -53.184  1.00  0.00     0.040 A 
HETATM   10  C   UNL     1     -40.852  55.254 -54.562  1.00  0.00     0.020 A 
HETATM   11  C   UNL     1     -40.527  53.995 -55.073  1.00  0.00     0.031 A 
HETATM   12  C   UNL     1     -40.299  52.964 -54.155  1.00  0.00     0.043 A 
HETATM   13  C   UNL     1     -40.404  53.138 -52.776  1.00  0.00    -0.001 A 
HETATM   14  N   UNL     1     -39.941  51.655 -54.370  1.00  0.00    -0.359 N 
HETATM   15  C   UNL     1     -40.112  51.878 -52.161  1.00  0.00    -0.027 A 
HETATM   16  C   UNL     1     -40.738  54.417 -52.282  1.00  0.00     0.032 A 
HETATM   17  C   UNL     1     -40.111  51.576 -50.703  1.00  0.00     0.051 C 
HETATM   18  C   UNL     1     -39.805  50.989 -53.179  1.00  0.00     0.012 A 
HETATM   19  C   UNL     1     -39.384  49.565 -53.124  1.00  0.00     0.068 C 
HETATM   20  H   UNL     1     -39.780  51.251 -55.283  1.00  0.00     0.166 HD
ENDBRANCH   7   9
ENDBRANCH   6   7
ENDBRANCH   5   6
ENDBRANCH   1   5
BRANCH   2  21
HETATM   21  N   UNL     1     -43.483  58.020 -55.988  1.00  0.00    -0.167 N 
HETATM   22  C   UNL     1     -44.728  57.725 -55.505  1.00  0.00     0.345 A 
HETATM   23  O   UNL     1     -45.068  57.484 -54.358  1.00  0.00    -0.245 OA
HETATM   24  N   UNL     1     -45.613  57.803 -56.563  1.00  0.00    -0.319 N 
HETATM   25  C   UNL     1     -44.967  58.180 -57.811  1.00  0.00     0.141 A 
HETATM   26  H   UNL     1     -46.602  57.637 -56.435  1.00  0.00     0.166 HD
HETATM   27  C   UNL     1     -43.512  58.376 -57.312  1.00  0.00     0.279 A 
HETATM   28  C   UNL     1     -45.530  59.524 -58.282  1.00  0.00     0.055 C 
HETATM   29  O   UNL     1     -42.572  58.813 -57.969  1.00  0.00    -0.268 OA
BRANCH  25  30
HETATM   30  C   UNL     1     -45.056  57.100 -58.884  1.00  0.00    -0.021 A 
HETATM   31  C   UNL     1     -44.049  56.136 -59.069  1.00  0.00     0.010 A 
HETATM   32  C   UNL     1     -44.158  55.159 -60.063  1.00  0.00     0.001 A 
HETATM   33  C   UNL     1     -45.273  55.129 -60.896  1.00  0.00     0.000 A 
HETATM   34  C   UNL     1     -46.278  56.076 -60.737  1.00  0.00     0.001 A 
HETATM   35  C   UNL     1     -46.171  57.051 -59.743  1.00  0.00     0.010 A 
ENDBRANCH  25  30
ENDBRANCH   2  21
TORSDOF 6
ENDMDL
MODEL 9
REMARK VINA RESULT:      -8.3      2.246      8.025
REMARK  6 active torsions:
REMARK  status: ('A' for Active; 'I' for Inactive)
REMARK    1  A    between atoms: C_7  and  C_8 
REMARK    2  A    between atoms: C_8  and  O_9 
REMARK    3  A    between atoms: O_9  and  C_10 
REMARK    4  A    between atoms: C_10  and  C_11 
REMARK       I    between atoms: C_11  and  N_12 
REMARK    5  A    between atoms: N_12  and  N_13 
REMARK    6  A    between atoms: C_17  and  C_18 
ROOT
HETATM    1  C   UNL     1     -42.344  58.966 -54.078  1.00  0.00     0.261 C 
HETATM    2  N   UNL     1     -42.415  57.829 -54.854  1.00  0.00    -0.255 N 
HETATM    3  O   UNL     1     -42.542  58.980 -52.865  1.00  0.00    -0.269 OA
HETATM    4  H   UNL     1     -42.050  57.823 -55.807  1.00  0.00     0.191 HD
ENDROOT
BRANCH   1   5
HETATM    5  C   UNL     1     -41.942  60.224 -54.854  1.00  0.00     0.283 C 
BRANCH   5   6
HETATM    6  O   UNL     1     -42.713  60.478 -56.029  1.00  0.00    -0.308 OA
BRANCH   6   7
HETATM    7  C   UNL     1     -42.045  60.374 -57.203  1.00  0.00     0.293 C 
HETATM    8  O   UNL     1     -40.938  60.846 -57.421  1.00  0.00    -0.259 OA
BRANCH   7   9
HETATM    9  C   UNL     1     -42.792  59.531 -58.172  1.00  0.00     0.040 A 
HETATM   10  C   UNL     1     -42.104  59.059 -59.295  1.00  0.00     0.020 A 
HETATM   11  C   UNL     1     -42.724  58.218 -60.223  1.00  0.00     0.031 A 
HETATM   12  C   UNL     1     -44.058  57.866 -59.987  1.00  0.00     0.043 A 
HETATM   13  C   UNL     1     -44.784  58.334 -58.892  1.00  0.00    -0.001 A 
HETATM   14  N   UNL     1     -44.893  57.045 -60.704  1.00  0.00    -0.359 N 
HETATM   15  C   UNL     1     -46.100  57.777 -58.981  1.00  0.00    -0.027 A 
HETATM   16  C   UNL     1     -44.138  59.186 -57.970  1.00  0.00     0.032 A 
HETATM   17  C   UNL     1     -47.230  58.004 -58.038  1.00  0.00     0.051 C 
HETATM   18  C   UNL     1     -46.124  56.964 -60.103  1.00  0.00     0.012 A 
HETATM   19  C   UNL     1     -47.206  56.108 -60.653  1.00  0.00     0.068 C 
HETATM   20  H   UNL     1     -44.625  56.555 -61.546  1.00  0.00     0.166 HD
ENDBRANCH   7   9
ENDBRANCH   6   7
ENDBRANCH   5   6
ENDBRANCH   1   5
BRANCH   2  21
HETATM   21  N   UNL     1     -42.563  56.613 -54.222  1.00  0.00    -0.167 N 
HETATM   22  C   UNL     1     -43.771  56.051 -53.913  1.00  0.00     0.345 A 
HETATM   23  O   UNL     1     -44.893  56.477 -54.134  1.00  0.00    -0.245 OA
HETATM   24  N   UNL     1     -43.521  54.824 -53.329  1.00  0.00    -0.319 N 
HETATM   25  C   UNL     1     -42.101  54.518 -53.248  1.00  0.00     0.141 A 
HETATM   26  H   UNL     1     -44.275  54.221 -53.030  1.00  0.00     0.166 HD
HETATM   27  C   UNL     1     -41.515  55.773 -53.946  1.00  0.00     0.279 A 
HETATM   28  C   UNL     1     -41.806  53.277 -54.095  1.00  0.00     0.055 C 
HETATM   29  O   UNL     1     -40.338  55.957 -54.239  1.00  0.00    -0.268 OA
BRANCH  25  30
HETATM   30  C   UNL     1     -41.597  54.382 -51.815  1.00  0.00    -0.021 A 
HETATM   31  C   UNL     1     -41.798  55.381 -50.846  1.00  0.00     0.010 A 
HETATM   32  C   UNL     1     -41.321  55.228 -49.541  1.00  0.00     0.001 A 
HETATM   33  C   UNL     1     -40.629  54.076 -49.179  1.00  0.00     0.000 A 
HETATM   34  C   UNL     1     -40.412  53.077 -50.121  1.00  0.00     0.001 A 
HETATM   35  C   UNL     1     -40.890  53.228 -51.424  1.00  0.00     0.010 A 
ENDBRANCH  25  30
ENDBRANCH   2  21
TORSDOF 6
ENDMDL
MODEL 10
REMARK VINA RESULT:      -8.2      4.364      9.152
REMARK  6 active torsions:
REMARK  status: ('A' for Active; 'I' for Inactive)
REMARK    1  A    between atoms: C_7  and  C_8 
REMARK    2  A    between atoms: C_8  and  O_9 
REMARK    3  A    between atoms: O_9  and  C_10 
REMARK    4  A    between atoms: C_10  and  C_11 
REMARK       I    between atoms: C_11  and  N_12 
REMARK    5  A    between atoms: N_12  and  N_13 
REMARK    6  A    between atoms: C_17  and  C_18 
ROOT
HETATM    1  C   UNL     1     -43.949  57.456 -51.806  1.00  0.00     0.261 C 
HETATM    2  N   UNL     1     -43.426  57.092 -50.584  1.00  0.00    -0.255 N 
HETATM    3  O   UNL     1     -43.421  57.188 -52.883  1.00  0.00    -0.269 OA
HETATM    4  H   UNL     1     -43.989  57.155 -49.735  1.00  0.00     0.191 HD
ENDROOT
BRANCH   1   5
HETATM    5  C   UNL     1     -45.289  58.193 -51.714  1.00  0.00     0.283 C 
BRANCH   5   6
HETATM    6  O   UNL     1     -45.224  59.596 -51.976  1.00  0.00    -0.308 OA
BRANCH   6   7
HETATM    7  C   UNL     1     -44.429  60.311 -51.146  1.00  0.00     0.293 C 
HETATM    8  O   UNL     1     -43.206  60.298 -51.166  1.00  0.00    -0.259 OA
BRANCH   7   9
HETATM    9  C   UNL     1     -45.233  61.192 -50.259  1.00  0.00     0.040 A 
HETATM   10  C   UNL     1     -46.221  61.988 -50.848  1.00  0.00     0.020 A 
HETATM   11  C   UNL     1     -47.051  62.802 -50.073  1.00  0.00     0.031 A 
HETATM   12  C   UNL     1     -46.857  62.791 -48.688  1.00  0.00     0.043 A 
HETATM   13  C   UNL     1     -45.869  62.029 -48.065  1.00  0.00    -0.001 A 
HETATM   14  N   UNL     1     -47.535  63.459 -47.697  1.00  0.00    -0.359 N 
HETATM   15  C   UNL     1     -45.963  62.273 -46.657  1.00  0.00    -0.027 A 
HETATM   16  C   UNL     1     -45.039  61.218 -48.868  1.00  0.00     0.032 A 
HETATM   17  C   UNL     1     -45.104  61.686 -45.591  1.00  0.00     0.051 C 
HETATM   18  C   UNL     1     -47.023  63.144 -46.464  1.00  0.00     0.012 A 
HETATM   19  C   UNL     1     -47.601  63.700 -45.214  1.00  0.00     0.068 C 
HETATM   20  H   UNL     1     -48.318  64.078 -47.860  1.00  0.00     0.166 HD
ENDBRANCH   7   9
ENDBRANCH   6   7
ENDBRANCH   5   6
ENDBRANCH   1   5
BRANCH   2  21
HETATM   21  N   UNL     1     -42.336  56.248 -50.564  1.00  0.00    -0.167 N 
HETATM   22  C   UNL     1     -41.039  56.673 -50.476  1.00  0.00     0.345 A 
HETATM   23  O   UNL     1     -40.610  57.812 -50.387  1.00  0.00    -0.245 OA
HETATM   24  N   UNL     1     -40.236  55.549 -50.440  1.00  0.00    -0.319 N 
HETATM   25  C   UNL     1     -40.998  54.311 -50.486  1.00  0.00     0.141 A 
HETATM   26  H   UNL     1     -39.231  55.623 -50.362  1.00  0.00     0.166 HD
HETATM   27  C   UNL     1     -42.440  54.883 -50.502  1.00  0.00     0.279 A 
HETATM   28  C   UNL     1     -40.771  53.533 -49.187  1.00  0.00     0.055 C 
HETATM   29  O   UNL     1     -43.478  54.234 -50.426  1.00  0.00    -0.268 OA
BRANCH  25  30
HETATM   30  C   UNL     1     -40.709  53.473 -51.728  1.00  0.00    -0.021 A 
HETATM   31  C   UNL     1     -39.941  52.296 -51.682  1.00  0.00     0.010 A 
HETATM   32  C   UNL     1     -39.692  51.551 -52.838  1.00  0.00     0.001 A 
HETATM   33  C   UNL     1     -40.202  51.969 -54.064  1.00  0.00     0.000 A 
HETATM   34  C   UNL     1     -40.959  53.133 -54.136  1.00  0.00     0.001 A 
HETATM   35  C   UNL     1     -41.209  53.877 -52.981  1.00  0.00     0.010 A 
ENDBRANCH  25  30
ENDBRANCH   2  21
TORSDOF 6
ENDMDL
