MODEL 1
REMARK VINA RESULT:      -9.0      0.000      0.000
REMARK  7 active torsions:
REMARK  status: ('A' for Active; 'I' for Inactive)
REMARK       I    between atoms: C_2  and  N_3 
REMARK    1  A    between atoms: N_3  and  C_4 
REMARK    2  A    between atoms: C_6  and  N_7 
REMARK       I    between atoms: N_7  and  C_8 
REMARK       I    between atoms: C_8  and  N_9 
REMARK    3  A    between atoms: N_9  and  C_10 
REMARK    4  A    between atoms: C_10  and  C_11 
REMARK    5  A    between atoms: C_11  and  C_12 
REMARK    6  A    between atoms: N_14  and  C_16 
REMARK    7  A    between atoms: C_16  and  C_17 
ROOT
HETATM    1  N   UNL     1     -44.559  57.266 -53.726  1.00  0.00    -0.309 N 
HETATM    2  C   UNL     1     -44.079  57.726 -52.542  1.00  0.00     0.320 C 
HETATM    3  N   UNL     1     -42.735  57.902 -52.436  1.00  0.00    -0.343 N 
HETATM    4  O   UNL     1     -44.857  58.024 -51.637  1.00  0.00    -0.247 OA
HETATM    5  H   UNL     1     -45.560  57.411 -53.813  1.00  0.00     0.170 HD
HETATM    6  H   UNL     1     -42.227  57.999 -53.307  1.00  0.00     0.164 HD
ENDROOT
BRANCH   3   7
HETATM    7  C   UNL     1     -42.056  58.181 -51.191  1.00  0.00     0.125 C 
BRANCH   7   8
HETATM    8  C   UNL     1     -41.169  57.050 -50.655  1.00  0.00     0.026 C 
BRANCH   8   9
HETATM    9  C   UNL     1     -41.888  55.799 -50.107  1.00  0.00     0.014 C 
HETATM   10  C   UNL     1     -42.166  54.711 -51.146  1.00  0.00     0.240 C 
HETATM   11  N   UNL     1     -40.990  53.753 -51.067  1.00  0.00    -0.067 N 
HETATM   12  H   UNL     1     -41.396  52.836 -50.847  1.00  0.00     0.280 HD
HETATM   13  C   UNL     1     -40.132  54.170 -49.904  1.00  0.00     0.235 C 
HETATM   14  C   UNL     1     -41.041  55.058 -49.074  1.00  0.00     0.034 C 
BRANCH  11  15
HETATM   15  C   UNL     1     -40.233  53.572 -52.356  1.00  0.00     0.273 C 
BRANCH  15  16
HETATM   16  C   UNL     1     -40.017  52.126 -52.715  1.00  0.00    -0.033 A 
HETATM   17  C   UNL     1     -40.246  51.677 -54.027  1.00  0.00     0.009 A 
HETATM   18  C   UNL     1     -40.100  50.328 -54.351  1.00  0.00     0.001 A 
HETATM   19  C   UNL     1     -39.716  49.414 -53.373  1.00  0.00     0.000 A 
HETATM   20  C   UNL     1     -39.474  49.848 -52.071  1.00  0.00     0.001 A 
HETATM   21  C   UNL     1     -39.624  51.196 -51.740  1.00  0.00     0.009 A 
ENDBRANCH  15  16
ENDBRANCH  11  15
ENDBRANCH   8   9
ENDBRANCH   7   8
ENDBRANCH   3   7
BRANCH   1  22
HETATM   22  C   UNL     1     -43.988  56.416 -54.694  1.00  0.00     0.038 A 
HETATM   23  C   UNL     1     -43.579  56.839 -55.968  1.00  0.00     0.059 A 
HETATM   24  C   UNL     1     -42.944  55.957 -56.850  1.00  0.00     0.036 A 
HETATM   25  C   UNL     1     -42.679  54.652 -56.424  1.00  0.00     0.029 A 
HETATM   26  C   UNL     1     -43.072  54.222 -55.158  1.00  0.00     0.004 A 
HETATM   27  C   UNL     1     -43.724  55.101 -54.298  1.00  0.00     0.029 A 
BRANCH  24  28
HETATM   28  N   UNL     1     -42.478  56.305 -58.131  1.00  0.00    -0.327 N 
HETATM   29  C   UNL     1     -42.930  56.051 -59.391  1.00  0.00     0.218 C 
HETATM   30  C   UNL     1     -44.025  55.054 -59.642  1.00  0.00     0.117 C 
HETATM   31  O   UNL     1     -42.390  56.628 -60.338  1.00  0.00    -0.274 OA
HETATM   32  H   UNL     1     -41.629  56.860 -58.164  1.00  0.00     0.169 HD
ENDBRANCH  24  28
ENDBRANCH   1  22
TORSDOF 7
ENDMDL
MODEL 2
REMARK VINA RESULT:      -8.4      2.400      3.339
REMARK  7 active torsions:
REMARK  status: ('A' for Active; 'I' for Inactive)
REMARK       I    between atoms: C_2  and  N_3 
REMARK    1  A    between atoms: N_3  and  C_4 
REMARK    2  A    between atoms: C_6  and  N_7 
REMARK       I    between atoms: N_7  and  C_8 
REMARK       I    between atoms: C_8  and  N_9 
REMARK    3  A    between atoms: N_9  and  C_10 
REMARK    4  A    between atoms: C_10  and  C_11 
REMARK    5  A    between atoms: C_11  and  C_12 
REMARK    6  A    between atoms: N_14  and  C_16 
REMARK    7  A    between atoms: C_16  and  C_17 
ROOT
HETATM    1  N   UNL     1     -42.995  59.458 -57.196  1.00  0.00    -0.309 N 
HETATM    2  C   UNL     1     -42.305  59.082 -56.088  1.00  0.00     0.320 C 
HETATM    3  N   UNL     1     -42.227  57.751 -55.819  1.00  0.00    -0.343 N 
HETATM    4  O   UNL     1     -41.730  59.928 -55.406  1.00  0.00    -0.247 OA
HETATM    5  H   UNL     1     -42.788  60.414 -57.467  1.00  0.00     0.170 HD
HETATM    6  H   UNL     1     -42.388  57.127 -56.601  1.00  0.00     0.164 HD
ENDROOT
BRANCH   3   7
HETATM    7  C   UNL     1     -41.715  57.210 -54.581  1.00  0.00     0.125 C 
BRANCH   7   8
HETATM    8  C   UNL     1     -42.674  57.275 -53.386  1.00  0.00     0.026 C 
BRANCH   8   9
HETATM    9  C   UNL     1     -43.520  56.017 -53.099  1.00  0.00     0.014 C 
HETATM   10  C   UNL     1     -43.062  54.754 -53.830  1.00  0.00     0.240 C 
HETATM   11  N   UNL     1     -42.133  54.033 -52.868  1.00  0.00    -0.067 N 
HETATM   12  H   UNL     1     -42.547  53.104 -52.729  1.00  0.00     0.280 HD
HETATM   13  C   UNL     1     -42.176  54.761 -51.552  1.00  0.00     0.235 C 
HETATM   14  C   UNL     1     -43.441  55.595 -51.633  1.00  0.00     0.034 C 
BRANCH  11  15
HETATM   15  C   UNL     1     -40.742  53.791 -53.392  1.00  0.00     0.273 C 
BRANCH  15  16
HETATM   16  C   UNL     1     -40.299  52.360 -53.252  1.00  0.00    -0.033 A 
HETATM   17  C   UNL     1     -40.393  51.476 -54.340  1.00  0.00     0.009 A 
HETATM   18  C   UNL     1     -40.035  50.136 -54.199  1.00  0.00     0.001 A 
HETATM   19  C   UNL     1     -39.571  49.663 -52.973  1.00  0.00     0.000 A 
HETATM   20  C   UNL     1     -39.461  50.532 -51.889  1.00  0.00     0.001 A 
HETATM   21  C   UNL     1     -39.823  51.874 -52.024  1.00  0.00     0.009 A 
ENDBRANCH  15  16
ENDBRANCH  11  15
ENDBRANCH   8   9
ENDBRANCH   7   8
ENDBRANCH   3   7
BRANCH   1  22
HETATM   22  C   UNL     1     -44.101  58.873 -57.847  1.00  0.00     0.038 A 
HETATM   23  C   UNL     1     -44.005  58.081 -59.000  1.00  0.00     0.059 A 
HETATM   24  C   UNL     1     -45.136  57.465 -59.547  1.00  0.00     0.036 A 
HETATM   25  C   UNL     1     -46.365  57.613 -58.895  1.00  0.00     0.029 A 
HETATM   26  C   UNL     1     -46.472  58.390 -57.744  1.00  0.00     0.004 A 
HETATM   27  C   UNL     1     -45.344  59.017 -57.223  1.00  0.00     0.029 A 
BRANCH  24  28
HETATM   28  N   UNL     1     -45.126  56.633 -60.682  1.00  0.00    -0.327 N 
HETATM   29  C   UNL     1     -44.919  55.299 -60.860  1.00  0.00     0.218 C 
HETATM   30  C   UNL     1     -44.396  54.434 -59.750  1.00  0.00     0.117 C 
HETATM   31  O   UNL     1     -45.129  54.814 -61.975  1.00  0.00    -0.274 OA
HETATM   32  H   UNL     1     -45.306  57.087 -61.572  1.00  0.00     0.169 HD
ENDBRANCH  24  28
ENDBRANCH   1  22
TORSDOF 7
ENDMDL
MODEL 3
REMARK VINA RESULT:      -7.9      2.316      3.437
REMARK  7 active torsions:
REMARK  status: ('A' for Active; 'I' for Inactive)
REMARK       I    between atoms: C_2  and  N_3 
REMARK    1  A    between atoms: N_3  and  C_4 
REMARK    2  A    between atoms: C_6  and  N_7 
REMARK       I    between atoms: N_7  and  C_8 
REMARK       I    between atoms: C_8  and  N_9 
REMARK    3  A    between atoms: N_9  and  C_10 
REMARK    4  A    between atoms: C_10  and  C_11 
REMARK    5  A    between atoms: C_11  and  C_12 
REMARK    6  A    between atoms: N_14  and  C_16 
REMARK    7  A    between atoms: C_16  and  C_17 
ROOT
HETATM    1  N   UNL     1     -43.223  59.497 -56.725  1.00  0.00    -0.309 N 
HETATM    2  C   UNL     1     -42.904  59.666 -55.415  1.00  0.00     0.320 C 
HETATM    3  N   UNL     1     -41.756  59.088 -54.969  1.00  0.00    -0.343 N 
HETATM    4  O   UNL     1     -43.611  60.370 -54.697  1.00  0.00    -0.247 OA
HETATM    5  H   UNL     1     -43.928  60.158 -57.033  1.00  0.00     0.170 HD
HETATM    6  H   UNL     1     -41.065  58.864 -55.675  1.00  0.00     0.164 HD
ENDROOT
BRANCH   3   7
HETATM    7  C   UNL     1     -41.390  58.999 -53.574  1.00  0.00     0.125 C 
BRANCH   7   8
HETATM    8  C   UNL     1     -41.526  57.608 -52.944  1.00  0.00     0.026 C 
BRANCH   8   9
HETATM    9  C   UNL     1     -42.190  57.533 -51.552  1.00  0.00     0.014 C 
HETATM   10  C   UNL     1     -43.425  56.635 -51.476  1.00  0.00     0.240 C 
HETATM   11  N   UNL     1     -42.920  55.275 -51.022  1.00  0.00    -0.067 N 
HETATM   12  H   UNL     1     -43.429  55.067 -50.155  1.00  0.00     0.280 HD
HETATM   13  C   UNL     1     -41.461  55.415 -50.680  1.00  0.00     0.235 C 
HETATM   14  C   UNL     1     -41.264  56.910 -50.508  1.00  0.00     0.034 C 
BRANCH  11  15
HETATM   15  C   UNL     1     -43.225  54.140 -51.964  1.00  0.00     0.273 C 
BRANCH  15  16
HETATM   16  C   UNL     1     -42.267  54.060 -53.122  1.00  0.00    -0.033 A 
HETATM   17  C   UNL     1     -42.573  54.685 -54.343  1.00  0.00     0.009 A 
HETATM   18  C   UNL     1     -41.713  54.568 -55.435  1.00  0.00     0.001 A 
HETATM   19  C   UNL     1     -40.536  53.834 -55.320  1.00  0.00     0.000 A 
HETATM   20  C   UNL     1     -40.214  53.220 -54.111  1.00  0.00     0.001 A 
HETATM   21  C   UNL     1     -41.073  53.330 -53.016  1.00  0.00     0.009 A 
ENDBRANCH  15  16
ENDBRANCH  11  15
ENDBRANCH   8   9
ENDBRANCH   7   8
ENDBRANCH   3   7
BRANCH   1  22
HETATM   22  C   UNL     1     -42.958  58.439 -57.618  1.00  0.00     0.038 A 
HETATM   23  C   UNL     1     -43.592  57.188 -57.563  1.00  0.00     0.059 A 
HETATM   24  C   UNL     1     -43.339  56.210 -58.532  1.00  0.00     0.036 A 
HETATM   25  C   UNL     1     -42.477  56.516 -59.590  1.00  0.00     0.029 A 
HETATM   26  C   UNL     1     -41.848  57.758 -59.661  1.00  0.00     0.004 A 
HETATM   27  C   UNL     1     -42.088  58.714 -58.678  1.00  0.00     0.029 A 
BRANCH  24  28
HETATM   28  N   UNL     1     -43.950  54.944 -58.569  1.00  0.00    -0.327 N 
HETATM   29  C   UNL     1     -44.614  54.254 -59.539  1.00  0.00     0.218 C 
HETATM   30  C   UNL     1     -45.030  54.915 -60.822  1.00  0.00     0.117 C 
HETATM   31  O   UNL     1     -44.909  53.076 -59.326  1.00  0.00    -0.274 OA
HETATM   32  H   UNL     1     -43.908  54.401 -57.713  1.00  0.00     0.169 HD
ENDBRANCH  24  28
ENDBRANCH   1  22
TORSDOF 7
ENDMDL
MODEL 4
REMARK VINA RESULT:      -7.8      2.328      3.428
REMARK  7 active torsions:
REMARK  status: ('A' for Active; 'I' for Inactive)
REMARK       I    between atoms: C_2  and  N_3 
REMARK    1  A    between atoms: N_3  and  C_4 
REMARK    2  A    between atoms: C_6  and  N_7 
REMARK       I    between atoms: N_7  and  C_8 
REMARK       I    between atoms: C_8  and  N_9 
REMARK    3  A    between atoms: N_9  and  C_10 
REMARK    4  A    between atoms: C_10  and  C_11 
REMARK    5  A    between atoms: C_11  and  C_12 
REMARK    6  A    between atoms: N_14  and  C_16 
REMARK    7  A    between atoms: C_16  and  C_17 
ROOT
HETATM    1  N   UNL     1     -42.614  55.965 -57.307  1.00  0.00    -0.309 N 
HETATM    2  C   UNL     1     -42.774  56.380 -56.024  1.00  0.00     0.320 C 
HETATM    3  N   UNL     1     -44.013  56.261 -55.476  1.00  0.00    -0.343 N 
HETATM    4  O   UNL     1     -41.806  56.787 -55.385  1.00  0.00    -0.247 OA
HETATM    5  H   UNL     1     -41.636  55.842 -57.548  1.00  0.00     0.170 HD
HETATM    6  H   UNL     1     -44.633  55.591 -55.915  1.00  0.00     0.164 HD
ENDROOT
BRANCH   3   7
HETATM    7  C   UNL     1     -44.391  56.843 -54.209  1.00  0.00     0.125 C 
BRANCH   7   8
HETATM    8  C   UNL     1     -43.307  56.822 -53.123  1.00  0.00     0.026 C 
BRANCH   8   9
HETATM    9  C   UNL     1     -43.463  55.775 -52.000  1.00  0.00     0.014 C 
HETATM   10  C   UNL     1     -43.084  54.348 -52.395  1.00  0.00     0.240 C 
HETATM   11  N   UNL     1     -41.628  54.181 -51.994  1.00  0.00    -0.067 N 
HETATM   12  H   UNL     1     -41.611  53.387 -51.342  1.00  0.00     0.280 HD
HETATM   13  C   UNL     1     -41.214  55.413 -51.235  1.00  0.00     0.235 C 
HETATM   14  C   UNL     1     -42.527  56.052 -50.825  1.00  0.00     0.034 C 
BRANCH  11  15
HETATM   15  C   UNL     1     -40.699  53.811 -53.120  1.00  0.00     0.273 C 
BRANCH  15  16
HETATM   16  C   UNL     1     -40.280  52.365 -53.089  1.00  0.00    -0.033 A 
HETATM   17  C   UNL     1     -40.311  51.590 -54.260  1.00  0.00     0.009 A 
HETATM   18  C   UNL     1     -39.976  50.237 -54.225  1.00  0.00     0.001 A 
HETATM   19  C   UNL     1     -39.599  49.643 -53.023  1.00  0.00     0.000 A 
HETATM   20  C   UNL     1     -39.552  50.404 -51.856  1.00  0.00     0.001 A 
HETATM   21  C   UNL     1     -39.891  51.758 -51.885  1.00  0.00     0.009 A 
ENDBRANCH  15  16
ENDBRANCH  11  15
ENDBRANCH   8   9
ENDBRANCH   7   8
ENDBRANCH   3   7
BRANCH   1  22
HETATM   22  C   UNL     1     -43.510  55.939 -58.395  1.00  0.00     0.038 A 
HETATM   23  C   UNL     1     -44.018  57.087 -59.022  1.00  0.00     0.059 A 
HETATM   24  C   UNL     1     -44.841  56.987 -60.150  1.00  0.00     0.036 A 
HETATM   25  C   UNL     1     -45.113  55.720 -60.676  1.00  0.00     0.029 A 
HETATM   26  C   UNL     1     -44.607  54.572 -60.068  1.00  0.00     0.004 A 
HETATM   27  C   UNL     1     -43.809  54.683 -58.933  1.00  0.00     0.029 A 
BRANCH  24  28
HETATM   28  N   UNL     1     -45.369  58.084 -60.854  1.00  0.00    -0.327 N 
HETATM   29  C   UNL     1     -46.252  59.068 -60.525  1.00  0.00     0.218 C 
HETATM   30  C   UNL     1     -47.060  59.003 -59.261  1.00  0.00     0.117 C 
HETATM   31  O   UNL     1     -46.411  60.004 -61.314  1.00  0.00    -0.274 OA
HETATM   32  H   UNL     1     -45.050  58.198 -61.811  1.00  0.00     0.169 HD
ENDBRANCH  24  28
ENDBRANCH   1  22
TORSDOF 7
ENDMDL
MODEL 5
REMARK VINA RESULT:      -7.8      2.300      3.356
REMARK  7 active torsions:
REMARK  status: ('A' for Active; 'I' for Inactive)
REMARK       I    between atoms: C_2  and  N_3 
REMARK    1  A    between atoms: N_3  and  C_4 
REMARK    2  A    between atoms: C_6  and  N_7 
REMARK       I    between atoms: N_7  and  C_8 
REMARK       I    between atoms: C_8  and  N_9 
REMARK    3  A    between atoms: N_9  and  C_10 
REMARK    4  A    between atoms: C_10  and  C_11 
REMARK    5  A    between atoms: C_11  and  C_12 
REMARK    6  A    between atoms: N_14  and  C_16 
REMARK    7  A    between atoms: C_16  and  C_17 
ROOT
HETATM    1  N   UNL     1     -43.534  59.790 -56.786  1.00  0.00    -0.309 N 
HETATM    2  C   UNL     1     -43.082  59.856 -55.507  1.00  0.00     0.320 C 
HETATM    3  N   UNL     1     -41.886  59.271 -55.233  1.00  0.00    -0.343 N 
HETATM    4  O   UNL     1     -43.721  60.481 -54.661  1.00  0.00    -0.247 OA
HETATM    5  H   UNL     1     -44.278  60.457 -56.962  1.00  0.00     0.170 HD
HETATM    6  H   UNL     1     -41.269  59.123 -56.023  1.00  0.00     0.164 HD
ENDROOT
BRANCH   3   7
HETATM    7  C   UNL     1     -41.373  59.076 -53.896  1.00  0.00     0.125 C 
BRANCH   7   8
HETATM    8  C   UNL     1     -41.308  57.619 -53.421  1.00  0.00     0.026 C 
BRANCH   8   9
HETATM    9  C   UNL     1     -41.830  56.542 -54.397  1.00  0.00     0.014 C 
HETATM   10  C   UNL     1     -40.935  55.310 -54.533  1.00  0.00     0.240 C 
HETATM   11  N   UNL     1     -41.471  54.297 -53.536  1.00  0.00    -0.067 N 
HETATM   12  H   UNL     1     -41.713  53.466 -54.090  1.00  0.00     0.280 HD
HETATM   13  C   UNL     1     -42.742  54.852 -52.953  1.00  0.00     0.235 C 
HETATM   14  C   UNL     1     -43.153  55.938 -53.929  1.00  0.00     0.034 C 
BRANCH  11  15
HETATM   15  C   UNL     1     -40.474  53.832 -52.507  1.00  0.00     0.273 C 
BRANCH  15  16
HETATM   16  C   UNL     1     -40.127  52.373 -52.639  1.00  0.00    -0.033 A 
HETATM   17  C   UNL     1     -40.161  51.745 -53.895  1.00  0.00     0.009 A 
HETATM   18  C   UNL     1     -39.893  50.381 -54.014  1.00  0.00     0.001 A 
HETATM   19  C   UNL     1     -39.580  49.631 -52.883  1.00  0.00     0.000 A 
HETATM   20  C   UNL     1     -39.531  50.244 -51.633  1.00  0.00     0.001 A 
HETATM   21  C   UNL     1     -39.803  51.608 -51.508  1.00  0.00     0.009 A 
ENDBRANCH  15  16
ENDBRANCH  11  15
ENDBRANCH   8   9
ENDBRANCH   7   8
ENDBRANCH   3   7
BRANCH   1  22
HETATM   22  C   UNL     1     -43.349  58.816 -57.788  1.00  0.00     0.038 A 
HETATM   23  C   UNL     1     -43.828  57.500 -57.703  1.00  0.00     0.059 A 
HETATM   24  C   UNL     1     -43.678  56.609 -58.772  1.00  0.00     0.036 A 
HETATM   25  C   UNL     1     -43.082  57.066 -59.953  1.00  0.00     0.029 A 
HETATM   26  C   UNL     1     -42.611  58.373 -60.053  1.00  0.00     0.004 A 
HETATM   27  C   UNL     1     -42.744  59.244 -58.975  1.00  0.00     0.029 A 
BRANCH  24  28
HETATM   28  N   UNL     1     -44.151  55.284 -58.782  1.00  0.00    -0.327 N 
HETATM   29  C   UNL     1     -44.740  54.510 -59.736  1.00  0.00     0.218 C 
HETATM   30  C   UNL     1     -45.226  55.097 -61.029  1.00  0.00     0.117 C 
HETATM   31  O   UNL     1     -44.909  53.311 -59.499  1.00  0.00    -0.274 OA
HETATM   32  H   UNL     1     -44.050  54.766 -57.915  1.00  0.00     0.169 HD
ENDBRANCH  24  28
ENDBRANCH   1  22
TORSDOF 7
ENDMDL
MODEL 6
REMARK VINA RESULT:      -7.7      1.642      2.782
REMARK  7 active torsions:
REMARK  status: ('A' for Active; 'I' for Inactive)
REMARK       I    between atoms: C_2  and  N_3 
REMARK    1  A    between atoms: N_3  and  C_4 
REMARK    2  A    between atoms: C_6  and  N_7 
REMARK       I    between atoms: N_7  and  C_8 
REMARK       I    between atoms: C_8  and  N_9 
REMARK    3  A    between atoms: N_9  and  C_10 
REMARK    4  A    between atoms: C_10  and  C_11 
REMARK    5  A    between atoms: C_11  and  C_12 
REMARK    6  A    between atoms: N_14  and  C_16 
REMARK    7  A    between atoms: C_16  and  C_17 
ROOT
HETATM    1  N   UNL     1     -45.300  58.356 -54.585  1.00  0.00    -0.309 N 
HETATM    2  C   UNL     1     -44.995  59.311 -53.668  1.00  0.00     0.320 C 
HETATM    3  N   UNL     1     -43.722  59.788 -53.658  1.00  0.00    -0.343 N 
HETATM    4  O   UNL     1     -45.872  59.753 -52.927  1.00  0.00    -0.247 OA
HETATM    5  H   UNL     1     -46.302  58.247 -54.702  1.00  0.00     0.170 HD
HETATM    6  H   UNL     1     -43.191  59.660 -54.511  1.00  0.00     0.164 HD
ENDROOT
BRANCH   3   7
HETATM    7  C   UNL     1     -43.192  60.642 -52.620  1.00  0.00     0.125 C 
BRANCH   7   8
HETATM    8  C   UNL     1     -42.705  59.921 -51.357  1.00  0.00     0.026 C 
BRANCH   8   9
HETATM    9  C   UNL     1     -41.209  59.548 -51.298  1.00  0.00     0.014 C 
HETATM   10  C   UNL     1     -40.894  58.268 -50.525  1.00  0.00     0.240 C 
HETATM   11  N   UNL     1     -40.865  57.156 -51.560  1.00  0.00    -0.067 N 
HETATM   12  H   UNL     1     -39.929  56.739 -51.490  1.00  0.00     0.280 HD
HETATM   13  C   UNL     1     -40.990  57.788 -52.920  1.00  0.00     0.235 C 
HETATM   14  C   UNL     1     -40.639  59.245 -52.683  1.00  0.00     0.034 C 
BRANCH  11  15
HETATM   15  C   UNL     1     -41.838  56.033 -51.311  1.00  0.00     0.273 C 
BRANCH  15  16
HETATM   16  C   UNL     1     -41.181  54.679 -51.279  1.00  0.00    -0.033 A 
HETATM   17  C   UNL     1     -40.808  54.041 -52.474  1.00  0.00     0.009 A 
HETATM   18  C   UNL     1     -40.248  52.764 -52.451  1.00  0.00     0.001 A 
HETATM   19  C   UNL     1     -40.047  52.112 -51.237  1.00  0.00     0.000 A 
HETATM   20  C   UNL     1     -40.401  52.739 -50.044  1.00  0.00     0.001 A 
HETATM   21  C   UNL     1     -40.966  54.015 -50.061  1.00  0.00     0.009 A 
ENDBRANCH  15  16
ENDBRANCH  11  15
ENDBRANCH   8   9
ENDBRANCH   7   8
ENDBRANCH   3   7
BRANCH   1  22
HETATM   22  C   UNL     1     -44.512  57.347 -55.174  1.00  0.00     0.038 A 
HETATM   23  C   UNL     1     -43.957  57.434 -56.460  1.00  0.00     0.059 A 
HETATM   24  C   UNL     1     -43.117  56.428 -56.951  1.00  0.00     0.036 A 
HETATM   25  C   UNL     1     -42.796  55.351 -56.118  1.00  0.00     0.029 A 
HETATM   26  C   UNL     1     -43.333  55.258 -54.836  1.00  0.00     0.004 A 
HETATM   27  C   UNL     1     -44.187  56.252 -54.367  1.00  0.00     0.029 A 
BRANCH  24  28
HETATM   28  N   UNL     1     -42.498  56.449 -58.214  1.00  0.00    -0.327 N 
HETATM   29  C   UNL     1     -42.865  55.986 -59.442  1.00  0.00     0.218 C 
HETATM   30  C   UNL     1     -44.050  55.080 -59.613  1.00  0.00     0.117 C 
HETATM   31  O   UNL     1     -42.173  56.292 -60.417  1.00  0.00    -0.274 OA
HETATM   32  H   UNL     1     -41.586  56.893 -58.259  1.00  0.00     0.169 HD
ENDBRANCH  24  28
ENDBRANCH   1  22
TORSDOF 7
ENDMDL
MODEL 7
REMARK VINA RESULT:      -7.6      2.674      3.644
REMARK  7 active torsions:
REMARK  status: ('A' for Active; 'I' for Inactive)
REMARK       I    between atoms: C_2  and  N_3 
REMARK    1  A    between atoms: N_3  and  C_4 
REMARK    2  A    between atoms: C_6  and  N_7 
REMARK       I    between atoms: N_7  and  C_8 
REMARK       I    between atoms: C_8  and  N_9 
REMARK    3  A    between atoms: N_9  and  C_10 
REMARK    4  A    between atoms: C_10  and  C_11 
REMARK    5  A    between atoms: C_11  and  C_12 
REMARK    6  A    between atoms: N_14  and  C_16 
REMARK    7  A    between atoms: C_16  and  C_17 
ROOT
HETATM    1  N   UNL     1     -43.596  55.859 -57.066  1.00  0.00    -0.309 N 
HETATM    2  C   UNL     1     -42.964  55.445 -55.937  1.00  0.00     0.320 C 
HETATM    3  N   UNL     1     -42.109  56.318 -55.341  1.00  0.00    -0.343 N 
HETATM    4  O   UNL     1     -43.219  54.341 -55.459  1.00  0.00    -0.247 OA
HETATM    5  H   UNL     1     -44.392  55.271 -57.293  1.00  0.00     0.170 HD
HETATM    6  H   UNL     1     -42.242  57.297 -55.565  1.00  0.00     0.164 HD
ENDROOT
BRANCH   3   7
HETATM    7  C   UNL     1     -41.212  55.959 -54.267  1.00  0.00     0.125 C 
BRANCH   7   8
HETATM    8  C   UNL     1     -41.656  56.391 -52.864  1.00  0.00     0.026 C 
BRANCH   8   9
HETATM    9  C   UNL     1     -42.538  55.400 -52.075  1.00  0.00     0.014 C 
HETATM   10  C   UNL     1     -42.105  53.937 -52.169  1.00  0.00     0.240 C 
HETATM   11  N   UNL     1     -41.207  53.693 -50.968  1.00  0.00    -0.067 N 
HETATM   12  H   UNL     1     -41.647  52.926 -50.446  1.00  0.00     0.280 HD
HETATM   13  C   UNL     1     -41.247  54.924 -50.104  1.00  0.00     0.235 C 
HETATM   14  C   UNL     1     -42.489  55.661 -50.570  1.00  0.00     0.034 C 
BRANCH  11  15
HETATM   15  C   UNL     1     -39.816  53.221 -51.302  1.00  0.00     0.273 C 
BRANCH  15  16
HETATM   16  C   UNL     1     -39.802  51.954 -52.114  1.00  0.00    -0.033 A 
HETATM   17  C   UNL     1     -39.677  50.706 -51.482  1.00  0.00     0.009 A 
HETATM   18  C   UNL     1     -39.609  49.533 -52.234  1.00  0.00     0.001 A 
HETATM   19  C   UNL     1     -39.673  49.591 -53.624  1.00  0.00     0.000 A 
HETATM   20  C   UNL     1     -39.810  50.822 -54.263  1.00  0.00     0.001 A 
HETATM   21  C   UNL     1     -39.873  51.999 -53.515  1.00  0.00     0.009 A 
ENDBRANCH  15  16
ENDBRANCH  11  15
ENDBRANCH   8   9
ENDBRANCH   7   8
ENDBRANCH   3   7
BRANCH   1  22
HETATM   22  C   UNL     1     -43.199  56.753 -58.080  1.00  0.00     0.038 A 
HETATM   23  C   UNL     1     -43.307  58.149 -57.982  1.00  0.00     0.059 A 
HETATM   24  C   UNL     1     -42.818  58.981 -58.996  1.00  0.00     0.036 A 
HETATM   25  C   UNL     1     -42.173  58.401 -60.093  1.00  0.00     0.029 A 
HETATM   26  C   UNL     1     -42.051  57.017 -60.197  1.00  0.00     0.004 A 
HETATM   27  C   UNL     1     -42.563  56.197 -59.195  1.00  0.00     0.029 A 
BRANCH  24  28
HETATM   28  N   UNL     1     -42.859  60.387 -58.966  1.00  0.00    -0.327 N 
HETATM   29  C   UNL     1     -43.853  61.297 -59.170  1.00  0.00     0.218 C 
HETATM   30  C   UNL     1     -45.182  60.889 -59.736  1.00  0.00     0.117 C 
HETATM   31  O   UNL     1     -43.625  62.483 -58.919  1.00  0.00    -0.274 OA
HETATM   32  H   UNL     1     -41.985  60.857 -58.752  1.00  0.00     0.169 HD
ENDBRANCH  24  28
ENDBRANCH   1  22
TORSDOF 7
ENDMDL
MODEL 8
REMARK VINA RESULT:      -7.6     14.536     16.484
REMARK  7 active torsions:
REMARK  status: ('A' for Active; 'I' for Inactive)
REMARK       I    between atoms: C_2  and  N_3 
REMARK    1  A    between atoms: N_3  and  C_4 
REMARK    2  A    between atoms: C_6  and  N_7 
REMARK       I    between atoms: N_7  and  C_8 
REMARK       I    between atoms: C_8  and  N_9 
REMARK    3  A    between atoms: N_9  and  C_10 
REMARK    4  A    between atoms: C_10  and  C_11 
REMARK    5  A    between atoms: C_11  and  C_12 
REMARK    6  A    between atoms: N_14  and  C_16 
REMARK    7  A    between atoms: C_16  and  C_17 
ROOT
HETATM    1  N   UNL     1     -37.862  41.534 -53.912  1.00  0.00    -0.309 N 
HETATM    2  C   UNL     1     -37.849  40.819 -52.757  1.00  0.00     0.320 C 
HETATM    3  N   UNL     1     -36.640  40.421 -52.278  1.00  0.00    -0.343 N 
HETATM    4  O   UNL     1     -38.900  40.607 -52.154  1.00  0.00    -0.247 OA
HETATM    5  H   UNL     1     -38.748  42.007 -54.057  1.00  0.00     0.170 HD
HETATM    6  H   UNL     1     -35.836  40.942 -52.607  1.00  0.00     0.164 HD
ENDROOT
BRANCH   3   7
HETATM    7  C   UNL     1     -36.475  39.487 -51.188  1.00  0.00     0.125 C 
BRANCH   7   8
HETATM    8  C   UNL     1     -35.484  39.914 -50.098  1.00  0.00     0.026 C 
BRANCH   8   9
HETATM    9  C   UNL     1     -34.166  39.117 -50.000  1.00  0.00     0.014 C 
HETATM   10  C   UNL     1     -33.793  38.335 -51.260  1.00  0.00     0.240 C 
HETATM   11  N   UNL     1     -32.878  39.249 -52.058  1.00  0.00    -0.067 N 
HETATM   12  H   UNL     1     -32.001  38.728 -52.175  1.00  0.00     0.280 HD
HETATM   13  C   UNL     1     -32.588  40.461 -51.216  1.00  0.00     0.235 C 
HETATM   14  C   UNL     1     -32.956  40.030 -49.808  1.00  0.00     0.034 C 
BRANCH  11  15
HETATM   15  C   UNL     1     -33.359  39.567 -53.450  1.00  0.00     0.273 C 
BRANCH  15  16
HETATM   16  C   UNL     1     -32.293  39.385 -54.497  1.00  0.00    -0.033 A 
HETATM   17  C   UNL     1     -32.283  40.189 -55.649  1.00  0.00     0.009 A 
HETATM   18  C   UNL     1     -31.330  39.987 -56.647  1.00  0.00     0.001 A 
HETATM   19  C   UNL     1     -30.373  38.986 -56.505  1.00  0.00     0.000 A 
HETATM   20  C   UNL     1     -30.364  38.189 -55.362  1.00  0.00     0.001 A 
HETATM   21  C   UNL     1     -31.319  38.384 -54.362  1.00  0.00     0.009 A 
ENDBRANCH  15  16
ENDBRANCH  11  15
ENDBRANCH   8   9
ENDBRANCH   7   8
ENDBRANCH   3   7
BRANCH   1  22
HETATM   22  C   UNL     1     -36.999  41.515 -55.027  1.00  0.00     0.038 A 
HETATM   23  C   UNL     1     -37.255  40.799 -56.206  1.00  0.00     0.059 A 
HETATM   24  C   UNL     1     -36.394  40.890 -57.305  1.00  0.00     0.036 A 
HETATM   25  C   UNL     1     -35.292  41.748 -57.229  1.00  0.00     0.029 A 
HETATM   26  C   UNL     1     -35.032  42.472 -56.067  1.00  0.00     0.004 A 
HETATM   27  C   UNL     1     -35.882  42.355 -54.971  1.00  0.00     0.029 A 
BRANCH  24  28
HETATM   28  N   UNL     1     -36.589  40.230 -58.532  1.00  0.00    -0.327 N 
HETATM   29  C   UNL     1     -36.948  40.656 -59.775  1.00  0.00     0.218 C 
HETATM   30  C   UNL     1     -37.461  42.048 -60.006  1.00  0.00     0.117 C 
HETATM   31  O   UNL     1     -36.887  39.855 -60.712  1.00  0.00    -0.274 OA
HETATM   32  H   UNL     1     -36.441  39.226 -58.529  1.00  0.00     0.169 HD
ENDBRANCH  24  28
ENDBRANCH   1  22
TORSDOF 7
ENDMDL
MODEL 9
REMARK VINA RESULT:      -7.5      2.536      7.103
REMARK  7 active torsions:
REMARK  status: ('A' for Active; 'I' for Inactive)
REMARK       I    between atoms: C_2  and  N_3 
REMARK    1  A    between atoms: N_3  and  C_4 
REMARK    2  A    between atoms: C_6  and  N_7 
REMARK       I    between atoms: N_7  and  C_8 
REMARK       I    between atoms: C_8  and  N_9 
REMARK    3  A    between atoms: N_9  and  C_10 
REMARK    4  A    between atoms: C_10  and  C_11 
REMARK    5  A    between atoms: C_11  and  C_12 
REMARK    6  A    between atoms: N_14  and  C_16 
REMARK    7  A    between atoms: C_16  and  C_17 
ROOT
HETATM    1  N   UNL     1     -43.143  55.031 -56.844  1.00  0.00    -0.309 N 
HETATM    2  C   UNL     1     -43.162  56.196 -57.541  1.00  0.00     0.320 C 
HETATM    3  N   UNL     1     -42.158  57.083 -57.308  1.00  0.00    -0.343 N 
HETATM    4  O   UNL     1     -44.030  56.390 -58.390  1.00  0.00    -0.247 OA
HETATM    5  H   UNL     1     -43.755  54.332 -57.254  1.00  0.00     0.170 HD
HETATM    6  H   UNL     1     -41.311  56.703 -56.902  1.00  0.00     0.164 HD
ENDROOT
BRANCH   3   7
HETATM    7  C   UNL     1     -42.150  58.439 -57.809  1.00  0.00     0.125 C 
BRANCH   7   8
HETATM    8  C   UNL     1     -42.418  59.529 -56.764  1.00  0.00     0.026 C 
BRANCH   8   9
HETATM    9  C   UNL     1     -43.852  60.094 -56.696  1.00  0.00     0.014 C 
HETATM   10  C   UNL     1     -44.860  59.205 -55.967  1.00  0.00     0.240 C 
HETATM   11  N   UNL     1     -44.877  59.693 -54.528  1.00  0.00    -0.067 N 
HETATM   12  H   UNL     1     -45.850  59.959 -54.338  1.00  0.00     0.280 HD
HETATM   13  C   UNL     1     -44.033  60.937 -54.453  1.00  0.00     0.235 C 
HETATM   14  C   UNL     1     -43.920  61.393 -55.895  1.00  0.00     0.034 C 
BRANCH  11  15
HETATM   15  C   UNL     1     -44.526  58.649 -53.500  1.00  0.00     0.273 C 
BRANCH  15  16
HETATM   16  C   UNL     1     -43.073  58.669 -53.111  1.00  0.00    -0.033 A 
HETATM   17  C   UNL     1     -42.626  59.502 -52.072  1.00  0.00     0.009 A 
HETATM   18  C   UNL     1     -41.271  59.564 -51.744  1.00  0.00     0.001 A 
HETATM   19  C   UNL     1     -40.349  58.790 -52.443  1.00  0.00     0.000 A 
HETATM   20  C   UNL     1     -40.780  57.949 -53.467  1.00  0.00     0.001 A 
HETATM   21  C   UNL     1     -42.134  57.887 -53.803  1.00  0.00     0.009 A 
ENDBRANCH  15  16
ENDBRANCH  11  15
ENDBRANCH   8   9
ENDBRANCH   7   8
ENDBRANCH   3   7
BRANCH   1  22
HETATM   22  C   UNL     1     -42.658  54.725 -55.556  1.00  0.00     0.038 A 
HETATM   23  C   UNL     1     -43.460  54.672 -54.407  1.00  0.00     0.059 A 
HETATM   24  C   UNL     1     -42.926  54.282 -53.173  1.00  0.00     0.036 A 
HETATM   25  C   UNL     1     -41.582  53.897 -53.112  1.00  0.00     0.029 A 
HETATM   26  C   UNL     1     -40.778  53.937 -54.248  1.00  0.00     0.004 A 
HETATM   27  C   UNL     1     -41.314  54.349 -55.465  1.00  0.00     0.029 A 
BRANCH  24  28
HETATM   28  N   UNL     1     -43.663  54.175 -51.980  1.00  0.00    -0.327 N 
HETATM   29  C   UNL     1     -43.722  54.930 -50.847  1.00  0.00     0.218 C 
HETATM   30  C   UNL     1     -42.723  56.019 -50.581  1.00  0.00     0.117 C 
HETATM   31  O   UNL     1     -44.593  54.672 -50.013  1.00  0.00    -0.274 OA
HETATM   32  H   UNL     1     -44.293  53.382 -51.912  1.00  0.00     0.169 HD
ENDBRANCH  24  28
ENDBRANCH   1  22
TORSDOF 7
ENDMDL
MODEL 10
REMARK VINA RESULT:      -7.4      2.644      3.438
REMARK  7 active torsions:
REMARK  status: ('A' for Active; 'I' for Inactive)
REMARK       I    between atoms: C_2  and  N_3 
REMARK    1  A    between atoms: N_3  and  C_4 
REMARK    2  A    between atoms: C_6  and  N_7 
REMARK       I    between atoms: N_7  and  C_8 
REMARK       I    between atoms: C_8  and  N_9 
REMARK    3  A    between atoms: N_9  and  C_10 
REMARK    4  A    between atoms: C_10  and  C_11 
REMARK    5  A    between atoms: C_11  and  C_12 
REMARK    6  A    between atoms: N_14  and  C_16 
REMARK    7  A    between atoms: C_16  and  C_17 
ROOT
HETATM    1  N   UNL     1     -44.249  57.196 -56.775  1.00  0.00    -0.309 N 
HETATM    2  C   UNL     1     -43.756  56.766 -55.585  1.00  0.00     0.320 C 
HETATM    3  N   UNL     1     -42.526  57.212 -55.216  1.00  0.00    -0.343 N 
HETATM    4  O   UNL     1     -44.444  56.050 -54.858  1.00  0.00    -0.247 OA
HETATM    5  H   UNL     1     -45.248  57.039 -56.853  1.00  0.00     0.170 HD
HETATM    6  H   UNL     1     -42.206  58.062 -55.664  1.00  0.00     0.164 HD
ENDROOT
BRANCH   3   7
HETATM    7  C   UNL     1     -41.784  56.688 -54.092  1.00  0.00     0.125 C 
BRANCH   7   8
HETATM    8  C   UNL     1     -42.338  57.052 -52.709  1.00  0.00     0.026 C 
BRANCH   8   9
HETATM    9  C   UNL     1     -42.944  55.904 -51.875  1.00  0.00     0.014 C 
HETATM   10  C   UNL     1     -42.675  54.501 -52.420  1.00  0.00     0.240 C 
HETATM   11  N   UNL     1     -41.425  54.012 -51.708  1.00  0.00    -0.067 N 
HETATM   12  H   UNL     1     -41.701  53.145 -51.231  1.00  0.00     0.280 HD
HETATM   13  C   UNL     1     -41.068  55.026 -50.655  1.00  0.00     0.235 C 
HETATM   14  C   UNL     1     -42.341  55.833 -50.473  1.00  0.00     0.034 C 
BRANCH  11  15
HETATM   15  C   UNL     1     -40.283  53.640 -52.616  1.00  0.00     0.273 C 
BRANCH  15  16
HETATM   16  C   UNL     1     -40.002  52.162 -52.635  1.00  0.00    -0.033 A 
HETATM   17  C   UNL     1     -40.065  51.441 -53.839  1.00  0.00     0.009 A 
HETATM   18  C   UNL     1     -39.859  50.061 -53.852  1.00  0.00     0.001 A 
HETATM   19  C   UNL     1     -39.579  49.387 -52.666  1.00  0.00     0.000 A 
HETATM   20  C   UNL     1     -39.500  50.092 -51.466  1.00  0.00     0.001 A 
HETATM   21  C   UNL     1     -39.711  51.472 -51.447  1.00  0.00     0.009 A 
ENDBRANCH  15  16
ENDBRANCH  11  15
ENDBRANCH   8   9
ENDBRANCH   7   8
ENDBRANCH   3   7
BRANCH   1  22
HETATM   22  C   UNL     1     -43.600  57.556 -57.974  1.00  0.00     0.038 A 
HETATM   23  C   UNL     1     -43.427  58.879 -58.407  1.00  0.00     0.059 A 
HETATM   24  C   UNL     1     -42.702  59.168 -59.569  1.00  0.00     0.036 A 
HETATM   25  C   UNL     1     -42.108  58.114 -60.272  1.00  0.00     0.029 A 
HETATM   26  C   UNL     1     -42.265  56.796 -59.848  1.00  0.00     0.004 A 
HETATM   27  C   UNL     1     -43.009  56.519 -58.704  1.00  0.00     0.029 A 
BRANCH  24  28
HETATM   28  N   UNL     1     -42.456  60.463 -60.058  1.00  0.00    -0.327 N 
HETATM   29  C   UNL     1     -41.647  61.480 -59.647  1.00  0.00     0.218 C 
HETATM   30  C   UNL     1     -40.960  61.440 -58.312  1.00  0.00     0.117 C 
HETATM   31  O   UNL     1     -41.522  62.465 -60.378  1.00  0.00    -0.274 OA
HETATM   32  H   UNL     1     -42.971  60.733 -60.890  1.00  0.00     0.169 HD
ENDBRANCH  24  28
ENDBRANCH   1  22
TORSDOF 7
ENDMDL
