MODEL 1
REMARK VINA RESULT:      -7.9      0.000      0.000
REMARK  6 active torsions:
REMARK  status: ('A' for Active; 'I' for Inactive)
REMARK    1  A    between atoms: C_2  and  N_3 
REMARK       I    between atoms: N_3  and  C_4 
REMARK    2  A    between atoms: C_4  and  C_5 
REMARK    3  A    between atoms: C_7  and  N_8 
REMARK       I    between atoms: N_8  and  C_9 
REMARK    4  A    between atoms: C_9  and  C_10 
REMARK    5  A    between atoms: C_10  and  C_11 
REMARK    6  A    between atoms: C_15  and  O_16 
ROOT
HETATM    1  N   UNL     1     -43.775  56.244 -52.690  1.00  0.00    -0.327 N 
HETATM    2  C   UNL     1     -42.697  56.447 -51.842  1.00  0.00     0.226 C 
HETATM    3  O   UNL     1     -41.734  57.179 -52.064  1.00  0.00    -0.273 OA
HETATM    4  H   UNL     1     -44.422  55.505 -52.444  1.00  0.00     0.169 HD
ENDROOT
BRANCH   1   5
HETATM    5  C   UNL     1     -44.062  56.957 -53.873  1.00  0.00     0.035 A 
HETATM    6  C   UNL     1     -43.593  56.573 -55.133  1.00  0.00     0.046 A 
HETATM    7  C   UNL     1     -43.901  57.324 -56.276  1.00  0.00     0.034 A 
HETATM    8  C   UNL     1     -44.671  58.487 -56.143  1.00  0.00     0.017 A 
HETATM    9  C   UNL     1     -45.129  58.886 -54.888  1.00  0.00     0.003 A 
HETATM   10  C   UNL     1     -44.822  58.126 -53.758  1.00  0.00     0.029 A 
BRANCH   7  11
HETATM   11  C   UNL     1     -43.394  56.962 -57.633  1.00  0.00     0.251 C 
HETATM   12  N   UNL     1     -44.022  55.918 -58.282  1.00  0.00    -0.357 N 
HETATM   13  H   UNL     1     -44.887  55.541 -57.918  1.00  0.00     0.162 HD
HETATM   14  O   UNL     1     -42.463  57.591 -58.126  1.00  0.00    -0.268 OA
BRANCH  12  15
HETATM   15  C   UNL     1     -43.624  55.492 -59.608  1.00  0.00     0.118 C 
HETATM   16  C   UNL     1     -44.754  54.776 -60.324  1.00  0.00     0.026 C 
ENDBRANCH  12  15
ENDBRANCH   7  11
ENDBRANCH   1   5
BRANCH   2  17
HETATM   17  C   UNL     1     -42.783  55.649 -50.551  1.00  0.00     0.144 C 
BRANCH  17  18
HETATM   18  C   UNL     1     -41.780  54.546 -50.483  1.00  0.00    -0.014 A 
HETATM   19  C   UNL     1     -41.287  53.717 -51.544  1.00  0.00     0.006 A 
HETATM   20  C   UNL     1     -40.369  52.851 -50.962  1.00  0.00     0.088 A 
HETATM   21  C   UNL     1     -41.509  53.605 -52.929  1.00  0.00     0.017 A 
HETATM   22  C   UNL     1     -39.645  51.891 -51.662  1.00  0.00     0.074 A 
HETATM   23  O   UNL     1     -40.284  53.084 -49.625  1.00  0.00    -0.321 OA
HETATM   24  C   UNL     1     -39.855  51.813 -53.043  1.00  0.00     0.070 A 
HETATM   25  C   UNL     1     -40.782  52.654 -53.665  1.00  0.00     0.038 A 
HETATM   26  C   UNL     1     -41.139  54.097 -49.342  1.00  0.00     0.151 A 
BRANCH  24  27
HETATM   27  O   UNL     1     -39.098  50.861 -53.676  1.00  0.00    -0.356 OA
HETATM   28  C   UNL     1     -39.794  49.917 -54.480  1.00  0.00     0.210 C 
ENDBRANCH  24  27
ENDBRANCH  17  18
ENDBRANCH   2  17
TORSDOF 6
ENDMDL
MODEL 2
REMARK VINA RESULT:      -7.8      2.536      3.775
REMARK  6 active torsions:
REMARK  status: ('A' for Active; 'I' for Inactive)
REMARK    1  A    between atoms: C_2  and  N_3 
REMARK       I    between atoms: N_3  and  C_4 
REMARK    2  A    between atoms: C_4  and  C_5 
REMARK    3  A    between atoms: C_7  and  N_8 
REMARK       I    between atoms: N_8  and  C_9 
REMARK    4  A    between atoms: C_9  and  C_10 
REMARK    5  A    between atoms: C_10  and  C_11 
REMARK    6  A    between atoms: C_15  and  O_16 
ROOT
HETATM    1  N   UNL     1     -42.699  57.092 -56.768  1.00  0.00    -0.327 N 
HETATM    2  C   UNL     1     -42.935  56.856 -55.422  1.00  0.00     0.226 C 
HETATM    3  O   UNL     1     -43.974  56.405 -54.942  1.00  0.00    -0.273 OA
HETATM    4  H   UNL     1     -41.856  57.599 -57.006  1.00  0.00     0.169 HD
ENDROOT
BRANCH   1   5
HETATM    5  C   UNL     1     -43.520  56.705 -57.849  1.00  0.00     0.035 A 
HETATM    6  C   UNL     1     -44.607  57.462 -58.295  1.00  0.00     0.046 A 
HETATM    7  C   UNL     1     -45.396  57.025 -59.368  1.00  0.00     0.034 A 
HETATM    8  C   UNL     1     -45.100  55.801 -59.982  1.00  0.00     0.017 A 
HETATM    9  C   UNL     1     -44.028  55.031 -59.531  1.00  0.00     0.003 A 
HETATM   10  C   UNL     1     -43.245  55.480 -58.466  1.00  0.00     0.029 A 
BRANCH   7  11
HETATM   11  C   UNL     1     -46.581  57.793 -59.855  1.00  0.00     0.251 C 
HETATM   12  N   UNL     1     -46.972  57.587 -61.163  1.00  0.00    -0.357 N 
HETATM   13  H   UNL     1     -46.573  56.828 -61.698  1.00  0.00     0.162 HD
HETATM   14  O   UNL     1     -47.167  58.559 -59.096  1.00  0.00    -0.268 OA
BRANCH  12  15
HETATM   15  C   UNL     1     -48.117  58.265 -61.735  1.00  0.00     0.118 C 
HETATM   16  C   UNL     1     -49.009  57.304 -62.497  1.00  0.00     0.026 C 
ENDBRANCH  12  15
ENDBRANCH   7  11
ENDBRANCH   1   5
BRANCH   2  17
HETATM   17  C   UNL     1     -41.764  57.224 -54.527  1.00  0.00     0.144 C 
BRANCH  17  18
HETATM   18  C   UNL     1     -41.459  56.176 -53.508  1.00  0.00    -0.014 A 
HETATM   19  C   UNL     1     -40.983  54.840 -53.714  1.00  0.00     0.006 A 
HETATM   20  C   UNL     1     -40.855  54.277 -52.450  1.00  0.00     0.088 A 
HETATM   21  C   UNL     1     -40.639  54.044 -54.824  1.00  0.00     0.017 A 
HETATM   22  C   UNL     1     -40.398  52.985 -52.209  1.00  0.00     0.074 A 
HETATM   23  O   UNL     1     -41.237  55.169 -51.497  1.00  0.00    -0.321 OA
HETATM   24  C   UNL     1     -40.033  52.219 -53.321  1.00  0.00     0.070 A 
HETATM   25  C   UNL     1     -40.161  52.741 -54.611  1.00  0.00     0.038 A 
HETATM   26  C   UNL     1     -41.606  56.305 -52.139  1.00  0.00     0.151 A 
BRANCH  24  27
HETATM   27  O   UNL     1     -39.572  50.965 -53.015  1.00  0.00    -0.356 OA
HETATM   28  C   UNL     1     -39.820  49.939 -53.969  1.00  0.00     0.210 C 
ENDBRANCH  24  27
ENDBRANCH  17  18
ENDBRANCH   2  17
TORSDOF 6
ENDMDL
MODEL 3
REMARK VINA RESULT:      -7.6      2.278      6.900
REMARK  6 active torsions:
REMARK  status: ('A' for Active; 'I' for Inactive)
REMARK    1  A    between atoms: C_2  and  N_3 
REMARK       I    between atoms: N_3  and  C_4 
REMARK    2  A    between atoms: C_4  and  C_5 
REMARK    3  A    between atoms: C_7  and  N_8 
REMARK       I    between atoms: N_8  and  C_9 
REMARK    4  A    between atoms: C_9  and  C_10 
REMARK    5  A    between atoms: C_10  and  C_11 
REMARK    6  A    between atoms: C_15  and  O_16 
ROOT
HETATM    1  N   UNL     1     -42.080  56.517 -50.975  1.00  0.00    -0.327 N 
HETATM    2  C   UNL     1     -41.489  57.746 -51.222  1.00  0.00     0.226 C 
HETATM    3  O   UNL     1     -40.336  58.061 -50.934  1.00  0.00    -0.273 OA
HETATM    4  H   UNL     1     -43.078  56.445 -51.134  1.00  0.00     0.169 HD
ENDROOT
BRANCH   1   5
HETATM    5  C   UNL     1     -41.436  55.349 -50.514  1.00  0.00     0.035 A 
HETATM    6  C   UNL     1     -40.962  54.348 -51.367  1.00  0.00     0.046 A 
HETATM    7  C   UNL     1     -40.338  53.201 -50.854  1.00  0.00     0.034 A 
HETATM    8  C   UNL     1     -40.211  53.054 -49.467  1.00  0.00     0.017 A 
HETATM    9  C   UNL     1     -40.697  54.040 -48.608  1.00  0.00     0.003 A 
HETATM   10  C   UNL     1     -41.310  55.180 -49.131  1.00  0.00     0.029 A 
BRANCH   7  11
HETATM   11  C   UNL     1     -39.845  52.098 -51.732  1.00  0.00     0.251 C 
HETATM   12  N   UNL     1     -39.980  52.269 -53.095  1.00  0.00    -0.357 N 
HETATM   13  H   UNL     1     -40.245  53.169 -53.469  1.00  0.00     0.162 HD
HETATM   14  O   UNL     1     -39.337  51.100 -51.231  1.00  0.00    -0.268 OA
BRANCH  12  15
HETATM   15  C   UNL     1     -39.522  51.271 -54.039  1.00  0.00     0.118 C 
HETATM   16  C   UNL     1     -40.592  50.231 -54.312  1.00  0.00     0.026 C 
ENDBRANCH  12  15
ENDBRANCH   7  11
ENDBRANCH   1   5
BRANCH   2  17
HETATM   17  C   UNL     1     -42.417  58.740 -51.900  1.00  0.00     0.144 C 
BRANCH  17  18
HETATM   18  C   UNL     1     -42.244  58.779 -53.382  1.00  0.00    -0.014 A 
HETATM   19  C   UNL     1     -42.570  57.771 -54.348  1.00  0.00     0.006 A 
HETATM   20  C   UNL     1     -42.222  58.297 -55.586  1.00  0.00     0.088 A 
HETATM   21  C   UNL     1     -43.123  56.477 -54.316  1.00  0.00     0.017 A 
HETATM   22  C   UNL     1     -42.398  57.634 -56.797  1.00  0.00     0.074 A 
HETATM   23  O   UNL     1     -41.694  59.541 -55.438  1.00  0.00    -0.321 OA
HETATM   24  C   UNL     1     -42.977  56.361 -56.750  1.00  0.00     0.070 A 
HETATM   25  C   UNL     1     -43.326  55.788 -55.524  1.00  0.00     0.038 A 
HETATM   26  C   UNL     1     -41.703  59.822 -54.112  1.00  0.00     0.151 A 
BRANCH  24  27
HETATM   27  O   UNL     1     -43.142  55.770 -57.976  1.00  0.00    -0.356 OA
HETATM   28  C   UNL     1     -43.253  56.639 -59.097  1.00  0.00     0.210 C 
ENDBRANCH  24  27
ENDBRANCH  17  18
ENDBRANCH   2  17
TORSDOF 6
ENDMDL
MODEL 4
REMARK VINA RESULT:      -7.5      3.019      4.911
REMARK  6 active torsions:
REMARK  status: ('A' for Active; 'I' for Inactive)
REMARK    1  A    between atoms: C_2  and  N_3 
REMARK       I    between atoms: N_3  and  C_4 
REMARK    2  A    between atoms: C_4  and  C_5 
REMARK    3  A    between atoms: C_7  and  N_8 
REMARK       I    between atoms: N_8  and  C_9 
REMARK    4  A    between atoms: C_9  and  C_10 
REMARK    5  A    between atoms: C_10  and  C_11 
REMARK    6  A    between atoms: C_15  and  O_16 
ROOT
HETATM    1  N   UNL     1     -42.594  55.640 -57.224  1.00  0.00    -0.327 N 
HETATM    2  C   UNL     1     -43.116  55.504 -55.947  1.00  0.00     0.226 C 
HETATM    3  O   UNL     1     -43.570  56.414 -55.256  1.00  0.00    -0.273 OA
HETATM    4  H   UNL     1     -42.123  54.835 -57.618  1.00  0.00     0.169 HD
ENDROOT
BRANCH   1   5
HETATM    5  C   UNL     1     -42.641  56.793 -58.037  1.00  0.00     0.035 A 
HETATM    6  C   UNL     1     -42.053  58.010 -57.675  1.00  0.00     0.046 A 
HETATM    7  C   UNL     1     -42.140  59.128 -58.517  1.00  0.00     0.034 A 
HETATM    8  C   UNL     1     -42.844  59.024 -59.723  1.00  0.00     0.017 A 
HETATM    9  C   UNL     1     -43.447  57.819 -60.083  1.00  0.00     0.003 A 
HETATM   10  C   UNL     1     -43.349  56.711 -59.241  1.00  0.00     0.029 A 
BRANCH   7  11
HETATM   11  C   UNL     1     -41.550  60.451 -58.152  1.00  0.00     0.251 C 
HETATM   12  N   UNL     1     -41.227  61.304 -59.189  1.00  0.00    -0.357 N 
HETATM   13  H   UNL     1     -41.536  61.099 -60.129  1.00  0.00     0.162 HD
HETATM   14  O   UNL     1     -41.382  60.741 -56.972  1.00  0.00    -0.268 OA
BRANCH  12  15
HETATM   15  C   UNL     1     -40.665  62.618 -58.950  1.00  0.00     0.118 C 
HETATM   16  C   UNL     1     -39.748  63.043 -60.081  1.00  0.00     0.026 C 
ENDBRANCH  12  15
ENDBRANCH   7  11
ENDBRANCH   1   5
BRANCH   2  17
HETATM   17  C   UNL     1     -43.075  54.079 -55.424  1.00  0.00     0.144 C 
BRANCH  17  18
HETATM   18  C   UNL     1     -42.090  53.894 -54.317  1.00  0.00    -0.014 A 
HETATM   19  C   UNL     1     -42.265  54.133 -52.915  1.00  0.00     0.006 A 
HETATM   20  C   UNL     1     -41.056  53.803 -52.315  1.00  0.00     0.088 A 
HETATM   21  C   UNL     1     -43.308  54.585 -52.085  1.00  0.00     0.017 A 
HETATM   22  C   UNL     1     -40.815  53.876 -50.946  1.00  0.00     0.074 A 
HETATM   23  O   UNL     1     -40.159  53.399 -53.253  1.00  0.00    -0.321 OA
HETATM   24  C   UNL     1     -41.872  54.299 -50.132  1.00  0.00     0.070 A 
HETATM   25  C   UNL     1     -43.099  54.656 -50.698  1.00  0.00     0.038 A 
HETATM   26  C   UNL     1     -40.783  53.464 -54.455  1.00  0.00     0.151 A 
BRANCH  24  27
HETATM   27  O   UNL     1     -41.576  54.330 -48.794  1.00  0.00    -0.356 OA
HETATM   28  C   UNL     1     -40.281  53.881 -48.412  1.00  0.00     0.210 C 
ENDBRANCH  24  27
ENDBRANCH  17  18
ENDBRANCH   2  17
TORSDOF 6
ENDMDL
MODEL 5
REMARK VINA RESULT:      -7.4      2.155      7.392
REMARK  6 active torsions:
REMARK  status: ('A' for Active; 'I' for Inactive)
REMARK    1  A    between atoms: C_2  and  N_3 
REMARK       I    between atoms: N_3  and  C_4 
REMARK    2  A    between atoms: C_4  and  C_5 
REMARK    3  A    between atoms: C_7  and  N_8 
REMARK       I    between atoms: N_8  and  C_9 
REMARK    4  A    between atoms: C_9  and  C_10 
REMARK    5  A    between atoms: C_10  and  C_11 
REMARK    6  A    between atoms: C_15  and  O_16 
ROOT
HETATM    1  N   UNL     1     -42.050  56.663 -51.982  1.00  0.00    -0.327 N 
HETATM    2  C   UNL     1     -43.089  56.555 -52.893  1.00  0.00     0.226 C 
HETATM    3  O   UNL     1     -43.546  55.505 -53.343  1.00  0.00    -0.273 OA
HETATM    4  H   UNL     1     -41.681  57.591 -51.812  1.00  0.00     0.169 HD
ENDROOT
BRANCH   1   5
HETATM    5  C   UNL     1     -41.440  55.609 -51.269  1.00  0.00     0.035 A 
HETATM    6  C   UNL     1     -40.989  54.433 -51.877  1.00  0.00     0.046 A 
HETATM    7  C   UNL     1     -40.400  53.411 -51.118  1.00  0.00     0.034 A 
HETATM    8  C   UNL     1     -40.284  53.569 -49.731  1.00  0.00     0.017 A 
HETATM    9  C   UNL     1     -40.747  54.732 -49.115  1.00  0.00     0.003 A 
HETATM   10  C   UNL     1     -41.326  55.744 -49.881  1.00  0.00     0.029 A 
BRANCH   7  11
HETATM   11  C   UNL     1     -39.932  52.130 -51.727  1.00  0.00     0.251 C 
HETATM   12  N   UNL     1     -39.810  52.094 -53.102  1.00  0.00    -0.357 N 
HETATM   13  H   UNL     1     -39.873  52.947 -53.640  1.00  0.00     0.162 HD
HETATM   14  O   UNL     1     -39.667  51.173 -51.008  1.00  0.00    -0.268 OA
BRANCH  12  15
HETATM   15  C   UNL     1     -39.349  50.909 -53.797  1.00  0.00     0.118 C 
HETATM   16  C   UNL     1     -40.507  50.125 -54.384  1.00  0.00     0.026 C 
ENDBRANCH  12  15
ENDBRANCH   7  11
ENDBRANCH   1   5
BRANCH   2  17
HETATM   17  C   UNL     1     -43.650  57.896 -53.336  1.00  0.00     0.144 C 
BRANCH  17  18
HETATM   18  C   UNL     1     -42.939  58.460 -54.521  1.00  0.00    -0.014 A 
HETATM   19  C   UNL     1     -42.924  57.976 -55.870  1.00  0.00     0.006 A 
HETATM   20  C   UNL     1     -42.121  58.855 -56.586  1.00  0.00     0.088 A 
HETATM   21  C   UNL     1     -43.501  56.897 -56.567  1.00  0.00     0.017 A 
HETATM   22  C   UNL     1     -41.863  58.747 -57.950  1.00  0.00     0.074 A 
HETATM   23  O   UNL     1     -41.636  59.825 -55.766  1.00  0.00    -0.321 OA
HETATM   24  C   UNL     1     -42.469  57.687 -58.633  1.00  0.00     0.070 A 
HETATM   25  C   UNL     1     -43.270  56.770 -57.947  1.00  0.00     0.038 A 
HETATM   26  C   UNL     1     -42.124  59.578 -54.526  1.00  0.00     0.151 A 
BRANCH  24  27
HETATM   27  O   UNL     1     -42.191  57.649 -59.975  1.00  0.00    -0.356 OA
HETATM   28  C   UNL     1     -42.004  58.899 -60.628  1.00  0.00     0.210 C 
ENDBRANCH  24  27
ENDBRANCH  17  18
ENDBRANCH   2  17
TORSDOF 6
ENDMDL
MODEL 6
REMARK VINA RESULT:      -7.2      2.626      3.926
REMARK  6 active torsions:
REMARK  status: ('A' for Active; 'I' for Inactive)
REMARK    1  A    between atoms: C_2  and  N_3 
REMARK       I    between atoms: N_3  and  C_4 
REMARK    2  A    between atoms: C_4  and  C_5 
REMARK    3  A    between atoms: C_7  and  N_8 
REMARK       I    between atoms: N_8  and  C_9 
REMARK    4  A    between atoms: C_9  and  C_10 
REMARK    5  A    between atoms: C_10  and  C_11 
REMARK    6  A    between atoms: C_15  and  O_16 
ROOT
HETATM    1  N   UNL     1     -43.619  56.197 -56.321  1.00  0.00    -0.327 N 
HETATM    2  C   UNL     1     -42.976  56.475 -55.125  1.00  0.00     0.226 C 
HETATM    3  O   UNL     1     -41.898  57.055 -55.006  1.00  0.00    -0.273 OA
HETATM    4  H   UNL     1     -44.426  55.586 -56.280  1.00  0.00     0.169 HD
ENDROOT
BRANCH   1   5
HETATM    5  C   UNL     1     -43.260  56.670 -57.602  1.00  0.00     0.035 A 
HETATM    6  C   UNL     1     -43.230  58.027 -57.936  1.00  0.00     0.046 A 
HETATM    7  C   UNL     1     -42.877  58.442 -59.228  1.00  0.00     0.034 A 
HETATM    8  C   UNL     1     -42.572  57.477 -60.197  1.00  0.00     0.017 A 
HETATM    9  C   UNL     1     -42.616  56.121 -59.876  1.00  0.00     0.003 A 
HETATM   10  C   UNL     1     -42.963  55.720 -58.585  1.00  0.00     0.029 A 
BRANCH   7  11
HETATM   11  C   UNL     1     -42.861  59.880 -59.631  1.00  0.00     0.251 C 
HETATM   12  N   UNL     1     -41.628  60.454 -59.873  1.00  0.00    -0.357 N 
HETATM   13  H   UNL     1     -40.803  59.873 -59.936  1.00  0.00     0.162 HD
HETATM   14  O   UNL     1     -43.917  60.495 -59.742  1.00  0.00    -0.268 OA
BRANCH  12  15
HETATM   15  C   UNL     1     -41.496  61.836 -60.285  1.00  0.00     0.118 C 
HETATM   16  C   UNL     1     -40.333  62.514 -59.587  1.00  0.00     0.026 C 
ENDBRANCH  12  15
ENDBRANCH   7  11
ENDBRANCH   1   5
BRANCH   2  17
HETATM   17  C   UNL     1     -43.726  55.975 -53.902  1.00  0.00     0.144 C 
BRANCH  17  18
HETATM   18  C   UNL     1     -42.830  55.344 -52.888  1.00  0.00    -0.014 A 
HETATM   19  C   UNL     1     -41.953  54.222 -53.045  1.00  0.00     0.006 A 
HETATM   20  C   UNL     1     -41.340  54.037 -51.811  1.00  0.00     0.088 A 
HETATM   21  C   UNL     1     -41.603  53.346 -54.089  1.00  0.00     0.017 A 
HETATM   22  C   UNL     1     -40.394  53.052 -51.545  1.00  0.00     0.074 A 
HETATM   23  O   UNL     1     -41.797  54.954 -50.917  1.00  0.00    -0.321 OA
HETATM   24  C   UNL     1     -40.035  52.209 -52.603  1.00  0.00     0.070 A 
HETATM   25  C   UNL     1     -40.639  52.350 -53.855  1.00  0.00     0.038 A 
HETATM   26  C   UNL     1     -42.697  55.731 -51.567  1.00  0.00     0.151 A 
BRANCH  24  27
HETATM   27  O   UNL     1     -39.085  51.274 -52.281  1.00  0.00    -0.356 OA
HETATM   28  C   UNL     1     -39.475  50.245 -51.380  1.00  0.00     0.210 C 
ENDBRANCH  24  27
ENDBRANCH  17  18
ENDBRANCH   2  17
TORSDOF 6
ENDMDL
MODEL 7
REMARK VINA RESULT:      -7.2      2.283      7.204
REMARK  6 active torsions:
REMARK  status: ('A' for Active; 'I' for Inactive)
REMARK    1  A    between atoms: C_2  and  N_3 
REMARK       I    between atoms: N_3  and  C_4 
REMARK    2  A    between atoms: C_4  and  C_5 
REMARK    3  A    between atoms: C_7  and  N_8 
REMARK       I    between atoms: N_8  and  C_9 
REMARK    4  A    between atoms: C_9  and  C_10 
REMARK    5  A    between atoms: C_10  and  C_11 
REMARK    6  A    between atoms: C_15  and  O_16 
ROOT
HETATM    1  N   UNL     1     -42.695  57.759 -53.657  1.00  0.00    -0.327 N 
HETATM    2  C   UNL     1     -42.057  58.890 -54.143  1.00  0.00     0.226 C 
HETATM    3  O   UNL     1     -40.869  59.168 -53.990  1.00  0.00    -0.273 OA
HETATM    4  H   UNL     1     -43.704  57.731 -53.733  1.00  0.00     0.169 HD
ENDROOT
BRANCH   1   5
HETATM    5  C   UNL     1     -42.083  56.639 -53.055  1.00  0.00     0.035 A 
HETATM    6  C   UNL     1     -41.492  55.604 -53.786  1.00  0.00     0.046 A 
HETATM    7  C   UNL     1     -40.907  54.508 -53.137  1.00  0.00     0.034 A 
HETATM    8  C   UNL     1     -40.937  54.445 -51.738  1.00  0.00     0.017 A 
HETATM    9  C   UNL     1     -41.539  55.466 -51.002  1.00  0.00     0.003 A 
HETATM   10  C   UNL     1     -42.113  56.555 -51.659  1.00  0.00     0.029 A 
BRANCH   7  11
HETATM   11  C   UNL     1     -40.292  53.369 -53.884  1.00  0.00     0.251 C 
HETATM   12  N   UNL     1     -39.985  52.234 -53.161  1.00  0.00    -0.357 N 
HETATM   13  H   UNL     1     -40.319  52.130 -52.213  1.00  0.00     0.162 HD
HETATM   14  O   UNL     1     -40.092  53.468 -55.090  1.00  0.00    -0.268 OA
BRANCH  12  15
HETATM   15  C   UNL     1     -39.401  51.065 -53.786  1.00  0.00     0.118 C 
HETATM   16  C   UNL     1     -40.469  50.123 -54.307  1.00  0.00     0.026 C 
ENDBRANCH  12  15
ENDBRANCH   7  11
ENDBRANCH   1   5
BRANCH   2  17
HETATM   17  C   UNL     1     -42.979  59.824 -54.910  1.00  0.00     0.144 C 
BRANCH  17  18
HETATM   18  C   UNL     1     -43.852  59.106 -55.885  1.00  0.00    -0.014 A 
HETATM   19  C   UNL     1     -43.484  58.471 -57.116  1.00  0.00     0.006 A 
HETATM   20  C   UNL     1     -44.658  57.947 -57.645  1.00  0.00     0.088 A 
HETATM   21  C   UNL     1     -42.293  58.275 -57.840  1.00  0.00     0.017 A 
HETATM   22  C   UNL     1     -44.730  57.230 -58.835  1.00  0.00     0.074 A 
HETATM   23  O   UNL     1     -45.710  58.235 -56.833  1.00  0.00    -0.321 OA
HETATM   24  C   UNL     1     -43.532  57.017 -59.527  1.00  0.00     0.070 A 
HETATM   25  C   UNL     1     -42.332  57.541 -59.038  1.00  0.00     0.038 A 
HETATM   26  C   UNL     1     -45.221  58.938 -55.782  1.00  0.00     0.151 A 
BRANCH  24  27
HETATM   27  O   UNL     1     -43.668  56.288 -60.679  1.00  0.00    -0.356 OA
HETATM   28  C   UNL     1     -44.745  55.361 -60.729  1.00  0.00     0.210 C 
ENDBRANCH  24  27
ENDBRANCH  17  18
ENDBRANCH   2  17
TORSDOF 6
ENDMDL
MODEL 8
REMARK VINA RESULT:      -7.2     15.106     18.823
REMARK  6 active torsions:
REMARK  status: ('A' for Active; 'I' for Inactive)
REMARK    1  A    between atoms: C_2  and  N_3 
REMARK       I    between atoms: N_3  and  C_4 
REMARK    2  A    between atoms: C_4  and  C_5 
REMARK    3  A    between atoms: C_7  and  N_8 
REMARK       I    between atoms: N_8  and  C_9 
REMARK    4  A    between atoms: C_9  and  C_10 
REMARK    5  A    between atoms: C_10  and  C_11 
REMARK    6  A    between atoms: C_15  and  O_16 
ROOT
HETATM    1  N   UNL     1     -33.779  40.590 -51.015  1.00  0.00    -0.327 N 
HETATM    2  C   UNL     1     -35.057  41.127 -51.046  1.00  0.00     0.226 C 
HETATM    3  O   UNL     1     -35.995  40.792 -50.325  1.00  0.00    -0.273 OA
HETATM    4  H   UNL     1     -33.149  40.857 -51.762  1.00  0.00     0.169 HD
ENDROOT
BRANCH   1   5
HETATM    5  C   UNL     1     -33.263  39.696 -50.053  1.00  0.00     0.035 A 
HETATM    6  C   UNL     1     -32.267  40.049 -49.137  1.00  0.00     0.046 A 
HETATM    7  C   UNL     1     -31.782  39.117 -48.207  1.00  0.00     0.034 A 
HETATM    8  C   UNL     1     -32.291  37.812 -48.217  1.00  0.00     0.017 A 
HETATM    9  C   UNL     1     -33.272  37.448 -49.139  1.00  0.00     0.003 A 
HETATM   10  C   UNL     1     -33.752  38.386 -50.055  1.00  0.00     0.029 A 
BRANCH   7  11
HETATM   11  C   UNL     1     -30.700  39.448 -47.233  1.00  0.00     0.251 C 
HETATM   12  N   UNL     1     -31.002  39.328 -45.891  1.00  0.00    -0.357 N 
HETATM   13  H   UNL     1     -31.859  38.876 -45.603  1.00  0.00     0.162 HD
HETATM   14  O   UNL     1     -29.597  39.799 -47.640  1.00  0.00    -0.268 OA
BRANCH  12  15
HETATM   15  C   UNL     1     -30.024  39.607 -44.860  1.00  0.00     0.118 C 
HETATM   16  C   UNL     1     -30.031  41.073 -44.469  1.00  0.00     0.026 C 
ENDBRANCH  12  15
ENDBRANCH   7  11
ENDBRANCH   1   5
BRANCH   2  17
HETATM   17  C   UNL     1     -35.235  42.209 -52.098  1.00  0.00     0.144 C 
BRANCH  17  18
HETATM   18  C   UNL     1     -36.152  41.799 -53.203  1.00  0.00    -0.014 A 
HETATM   19  C   UNL     1     -35.919  41.828 -54.617  1.00  0.00     0.006 A 
HETATM   20  C   UNL     1     -37.077  41.340 -55.208  1.00  0.00     0.088 A 
HETATM   21  C   UNL     1     -34.858  42.206 -55.462  1.00  0.00     0.017 A 
HETATM   22  C   UNL     1     -37.252  41.188 -56.581  1.00  0.00     0.074 A 
HETATM   23  O   UNL     1     -38.000  41.036 -54.257  1.00  0.00    -0.321 OA
HETATM   24  C   UNL     1     -36.178  41.539 -57.405  1.00  0.00     0.070 A 
HETATM   25  C   UNL     1     -35.000  42.050 -56.851  1.00  0.00     0.038 A 
HETATM   26  C   UNL     1     -37.441  41.320 -53.055  1.00  0.00     0.151 A 
BRANCH  24  27
HETATM   27  O   UNL     1     -36.406  41.347 -58.743  1.00  0.00    -0.356 OA
HETATM   28  C   UNL     1     -37.271  42.274 -59.386  1.00  0.00     0.210 C 
ENDBRANCH  24  27
ENDBRANCH  17  18
ENDBRANCH   2  17
TORSDOF 6
ENDMDL
MODEL 9
REMARK VINA RESULT:      -7.2      2.003      7.619
REMARK  6 active torsions:
REMARK  status: ('A' for Active; 'I' for Inactive)
REMARK    1  A    between atoms: C_2  and  N_3 
REMARK       I    between atoms: N_3  and  C_4 
REMARK    2  A    between atoms: C_4  and  C_5 
REMARK    3  A    between atoms: C_7  and  N_8 
REMARK       I    between atoms: N_8  and  C_9 
REMARK    4  A    between atoms: C_9  and  C_10 
REMARK    5  A    between atoms: C_10  and  C_11 
REMARK    6  A    between atoms: C_15  and  O_16 
ROOT
HETATM    1  N   UNL     1     -42.356  56.587 -52.584  1.00  0.00    -0.327 N 
HETATM    2  C   UNL     1     -41.759  57.539 -53.395  1.00  0.00     0.226 C 
HETATM    3  O   UNL     1     -40.569  57.849 -53.384  1.00  0.00    -0.273 OA
HETATM    4  H   UNL     1     -43.368  56.538 -52.598  1.00  0.00     0.169 HD
ENDROOT
BRANCH   1   5
HETATM    5  C   UNL     1     -41.700  55.678 -51.726  1.00  0.00     0.035 A 
HETATM    6  C   UNL     1     -41.230  54.431 -52.146  1.00  0.00     0.046 A 
HETATM    7  C   UNL     1     -40.593  53.562 -51.248  1.00  0.00     0.034 A 
HETATM    8  C   UNL     1     -40.450  53.947 -49.909  1.00  0.00     0.017 A 
HETATM    9  C   UNL     1     -40.932  55.182 -49.478  1.00  0.00     0.003 A 
HETATM   10  C   UNL     1     -41.558  56.042 -50.382  1.00  0.00     0.029 A 
BRANCH   7  11
HETATM   11  C   UNL     1     -40.103  52.210 -51.653  1.00  0.00     0.251 C 
HETATM   12  N   UNL     1     -39.870  52.002 -52.998  1.00  0.00    -0.357 N 
HETATM   13  H   UNL     1     -39.872  52.782 -53.640  1.00  0.00     0.162 HD
HETATM   14  O   UNL     1     -39.916  51.348 -50.801  1.00  0.00    -0.268 OA
BRANCH  12  15
HETATM   15  C   UNL     1     -39.378  50.736 -53.501  1.00  0.00     0.118 C 
HETATM   16  C   UNL     1     -40.354  50.109 -54.478  1.00  0.00     0.026 C 
ENDBRANCH  12  15
ENDBRANCH   7  11
ENDBRANCH   1   5
BRANCH   2  17
HETATM   17  C   UNL     1     -42.729  58.222 -54.344  1.00  0.00     0.144 C 
BRANCH  17  18
HETATM   18  C   UNL     1     -42.930  57.464 -55.615  1.00  0.00    -0.014 A 
HETATM   19  C   UNL     1     -43.919  57.668 -56.632  1.00  0.00     0.006 A 
HETATM   20  C   UNL     1     -43.675  56.707 -57.605  1.00  0.00     0.088 A 
HETATM   21  C   UNL     1     -44.989  58.559 -56.842  1.00  0.00     0.017 A 
HETATM   22  C   UNL     1     -44.410  56.577 -58.780  1.00  0.00     0.074 A 
HETATM   23  O   UNL     1     -42.623  55.926 -57.242  1.00  0.00    -0.321 OA
HETATM   24  C   UNL     1     -45.450  57.490 -58.987  1.00  0.00     0.070 A 
HETATM   25  C   UNL     1     -45.740  58.462 -58.026  1.00  0.00     0.038 A 
HETATM   26  C   UNL     1     -42.185  56.381 -56.043  1.00  0.00     0.151 A 
BRANCH  24  27
HETATM   27  O   UNL     1     -46.121  57.321 -60.171  1.00  0.00    -0.356 OA
HETATM   28  C   UNL     1     -46.194  55.996 -60.684  1.00  0.00     0.210 C 
ENDBRANCH  24  27
ENDBRANCH  17  18
ENDBRANCH   2  17
TORSDOF 6
ENDMDL
MODEL 10
REMARK VINA RESULT:      -7.2      4.188      6.666
REMARK  6 active torsions:
REMARK  status: ('A' for Active; 'I' for Inactive)
REMARK    1  A    between atoms: C_2  and  N_3 
REMARK       I    between atoms: N_3  and  C_4 
REMARK    2  A    between atoms: C_4  and  C_5 
REMARK    3  A    between atoms: C_7  and  N_8 
REMARK       I    between atoms: N_8  and  C_9 
REMARK    4  A    between atoms: C_9  and  C_10 
REMARK    5  A    between atoms: C_10  and  C_11 
REMARK    6  A    between atoms: C_15  and  O_16 
ROOT
HETATM    1  N   UNL     1     -43.204  59.565 -52.424  1.00  0.00    -0.327 N 
HETATM    2  C   UNL     1     -41.949  59.073 -52.745  1.00  0.00     0.226 C 
HETATM    3  O   UNL     1     -40.875  59.542 -52.371  1.00  0.00    -0.273 OA
HETATM    4  H   UNL     1     -43.995  59.169 -52.919  1.00  0.00     0.169 HD
ENDROOT
BRANCH   1   5
HETATM    5  C   UNL     1     -43.499  60.573 -51.481  1.00  0.00     0.035 A 
HETATM    6  C   UNL     1     -44.357  60.378 -50.394  1.00  0.00     0.046 A 
HETATM    7  C   UNL     1     -44.623  61.418 -49.493  1.00  0.00     0.034 A 
HETATM    8  C   UNL     1     -44.037  62.673 -49.703  1.00  0.00     0.017 A 
HETATM    9  C   UNL     1     -43.194  62.880 -50.795  1.00  0.00     0.003 A 
HETATM   10  C   UNL     1     -42.931  61.835 -51.682  1.00  0.00     0.029 A 
BRANCH   7  11
HETATM   11  C   UNL     1     -45.555  61.256 -48.337  1.00  0.00     0.251 C 
HETATM   12  N   UNL     1     -45.069  60.602 -47.222  1.00  0.00    -0.357 N 
HETATM   13  H   UNL     1     -44.082  60.400 -47.143  1.00  0.00     0.162 HD
HETATM   14  O   UNL     1     -46.695  61.706 -48.403  1.00  0.00    -0.268 OA
BRANCH  12  15
HETATM   15  C   UNL     1     -45.880  60.404 -46.038  1.00  0.00     0.118 C 
HETATM   16  C   UNL     1     -46.646  59.096 -46.103  1.00  0.00     0.026 C 
ENDBRANCH  12  15
ENDBRANCH   7  11
ENDBRANCH   1   5
BRANCH   2  17
HETATM   17  C   UNL     1     -41.989  57.854 -53.652  1.00  0.00     0.144 C 
BRANCH  17  18
HETATM   18  C   UNL     1     -41.653  56.587 -52.937  1.00  0.00    -0.014 A 
HETATM   19  C   UNL     1     -41.112  55.373 -53.475  1.00  0.00     0.006 A 
HETATM   20  C   UNL     1     -40.980  54.502 -52.401  1.00  0.00     0.088 A 
HETATM   21  C   UNL     1     -40.715  54.914 -54.745  1.00  0.00     0.017 A 
HETATM   22  C   UNL     1     -40.468  53.211 -52.497  1.00  0.00     0.074 A 
HETATM   23  O   UNL     1     -41.418  55.094 -51.258  1.00  0.00    -0.321 OA
HETATM   24  C   UNL     1     -40.050  52.782 -53.761  1.00  0.00     0.070 A 
HETATM   25  C   UNL     1     -40.181  53.621 -54.871  1.00  0.00     0.038 A 
HETATM   26  C   UNL     1     -41.828  56.343 -51.588  1.00  0.00     0.151 A 
BRANCH  24  27
HETATM   27  O   UNL     1     -39.537  51.511 -53.784  1.00  0.00    -0.356 OA
HETATM   28  C   UNL     1     -40.355  50.499 -54.359  1.00  0.00     0.210 C 
ENDBRANCH  24  27
ENDBRANCH  17  18
ENDBRANCH   2  17
TORSDOF 6
ENDMDL
