MODEL 1
REMARK VINA RESULT:      -8.3      0.000      0.000
REMARK  4 active torsions:
REMARK  status: ('A' for Active; 'I' for Inactive)
REMARK    1  A    between atoms: C_6  and  C_7 
REMARK    2  A    between atoms: C_10  and  O_11 
REMARK    3  A    between atoms: C_15  and  C_16 
REMARK       I    between atoms: C_16  and  N_17 
REMARK    4  A    between atoms: N_17  and  C_18 
ROOT
HETATM    1  C   UNL     1     -43.437  57.578 -56.097  1.00  0.00     0.001 A 
HETATM    2  C   UNL     1     -43.080  57.412 -54.760  1.00  0.00     0.015 A 
HETATM    3  C   UNL     1     -42.402  56.245 -54.322  1.00  0.00     0.008 A 
HETATM    4  C   UNL     1     -42.128  55.228 -55.253  1.00  0.00     0.068 A 
HETATM    5  N   UNL     1     -41.540  54.067 -54.919  1.00  0.00    -0.248 NA
HETATM    6  C   UNL     1     -41.211  53.816 -53.627  1.00  0.00     0.068 A 
HETATM    7  C   UNL     1     -41.411  54.768 -52.643  1.00  0.00     0.050 A 
HETATM    8  C   UNL     1     -41.985  55.990 -52.997  1.00  0.00     0.046 A 
HETATM    9  C   UNL     1     -42.488  55.421 -56.580  1.00  0.00     0.032 A 
HETATM   10  C   UNL     1     -43.132  56.581 -57.012  1.00  0.00     0.002 A 
ENDROOT
BRANCH   6  11
HETATM   11  C   UNL     1     -40.630  52.482 -53.361  1.00  0.00    -0.007 A 
HETATM   12  C   UNL     1     -40.693  51.463 -54.335  1.00  0.00     0.016 A 
HETATM   13  C   UNL     1     -40.164  50.189 -54.102  1.00  0.00     0.037 A 
HETATM   14  C   UNL     1     -39.565  49.913 -52.881  1.00  0.00     0.065 A 
HETATM   15  C   UNL     1     -39.486  50.888 -51.896  1.00  0.00     0.037 A 
HETATM   16  C   UNL     1     -40.017  52.161 -52.134  1.00  0.00     0.016 A 
BRANCH  14  17
HETATM   17  O   UNL     1     -39.043  48.686 -52.604  1.00  0.00    -0.361 OA
HETATM   18  H   UNL     1     -39.130  48.128 -53.393  1.00  0.00     0.217 HD
ENDBRANCH  14  17
ENDBRANCH   6  11
BRANCH   8  19
HETATM   19  C   UNL     1     -42.119  56.980 -51.904  1.00  0.00     0.253 C 
HETATM   20  N   UNL     1     -40.948  57.611 -51.532  1.00  0.00    -0.352 N 
HETATM   21  H   UNL     1     -40.078  57.330 -51.967  1.00  0.00     0.163 HD
HETATM   22  O   UNL     1     -43.204  57.137 -51.359  1.00  0.00    -0.268 OA
BRANCH  20  23
HETATM   23  C   UNL     1     -40.898  58.541 -50.450  1.00  0.00     0.084 A 
HETATM   24  C   UNL     1     -39.861  59.631 -50.425  1.00  0.00     0.027 A 
HETATM   25  C   UNL     1     -41.305  59.974 -50.653  1.00  0.00     0.027 A 
ENDBRANCH  20  23
ENDBRANCH   8  19
TORSDOF 4
ENDMDL
MODEL 2
REMARK VINA RESULT:      -8.2      1.698      4.450
REMARK  4 active torsions:
REMARK  status: ('A' for Active; 'I' for Inactive)
REMARK    1  A    between atoms: C_6  and  C_7 
REMARK    2  A    between atoms: C_10  and  O_11 
REMARK    3  A    between atoms: C_15  and  C_16 
REMARK       I    between atoms: C_16  and  N_17 
REMARK    4  A    between atoms: N_17  and  C_18 
ROOT
HETATM    1  C   UNL     1     -42.067  59.043 -52.388  1.00  0.00     0.001 A 
HETATM    2  C   UNL     1     -42.348  58.259 -53.505  1.00  0.00     0.015 A 
HETATM    3  C   UNL     1     -42.025  56.877 -53.530  1.00  0.00     0.008 A 
HETATM    4  C   UNL     1     -41.374  56.312 -52.420  1.00  0.00     0.068 A 
HETATM    5  N   UNL     1     -40.982  55.027 -52.377  1.00  0.00    -0.248 NA
HETATM    6  C   UNL     1     -41.177  54.218 -53.448  1.00  0.00     0.068 A 
HETATM    7  C   UNL     1     -41.838  54.673 -54.574  1.00  0.00     0.050 A 
HETATM    8  C   UNL     1     -42.281  55.997 -54.604  1.00  0.00     0.046 A 
HETATM    9  C   UNL     1     -41.112  57.113 -51.317  1.00  0.00     0.032 A 
HETATM   10  C   UNL     1     -41.454  58.466 -51.286  1.00  0.00     0.002 A 
ENDROOT
BRANCH   6  11
HETATM   11  C   UNL     1     -40.648  52.842 -53.317  1.00  0.00    -0.007 A 
HETATM   12  C   UNL     1     -40.748  51.928 -54.386  1.00  0.00     0.016 A 
HETATM   13  C   UNL     1     -40.267  50.619 -54.282  1.00  0.00     0.037 A 
HETATM   14  C   UNL     1     -39.679  50.201 -53.096  1.00  0.00     0.065 A 
HETATM   15  C   UNL     1     -39.565  51.070 -52.020  1.00  0.00     0.037 A 
HETATM   16  C   UNL     1     -40.048  52.379 -52.130  1.00  0.00     0.016 A 
BRANCH  14  17
HETATM   17  O   UNL     1     -39.204  48.933 -52.943  1.00  0.00    -0.361 OA
HETATM   18  H   UNL     1     -39.450  48.616 -52.059  1.00  0.00     0.217 HD
ENDBRANCH  14  17
ENDBRANCH   6  11
BRANCH   8  19
HETATM   19  C   UNL     1     -43.027  56.400 -55.817  1.00  0.00     0.253 C 
HETATM   20  N   UNL     1     -42.354  56.225 -57.011  1.00  0.00    -0.352 N 
HETATM   21  H   UNL     1     -41.395  55.899 -56.991  1.00  0.00     0.163 HD
HETATM   22  O   UNL     1     -44.134  56.911 -55.706  1.00  0.00    -0.268 OA
BRANCH  20  23
HETATM   23  C   UNL     1     -42.910  56.626 -58.263  1.00  0.00     0.084 A 
HETATM   24  C   UNL     1     -42.434  56.003 -59.547  1.00  0.00     0.027 A 
HETATM   25  C   UNL     1     -43.811  55.700 -59.032  1.00  0.00     0.027 A 
ENDBRANCH  20  23
ENDBRANCH   8  19
TORSDOF 4
ENDMDL
MODEL 3
REMARK VINA RESULT:      -8.2      2.310      4.723
REMARK  4 active torsions:
REMARK  status: ('A' for Active; 'I' for Inactive)
REMARK    1  A    between atoms: C_6  and  C_7 
REMARK    2  A    between atoms: C_10  and  O_11 
REMARK    3  A    between atoms: C_15  and  C_16 
REMARK       I    between atoms: C_16  and  N_17 
REMARK    4  A    between atoms: N_17  and  C_18 
ROOT
HETATM    1  C   UNL     1     -44.344  57.980 -52.948  1.00  0.00     0.001 A 
HETATM    2  C   UNL     1     -43.808  57.432 -54.112  1.00  0.00     0.015 A 
HETATM    3  C   UNL     1     -43.151  56.175 -54.094  1.00  0.00     0.008 A 
HETATM    4  C   UNL     1     -43.008  55.500 -52.870  1.00  0.00     0.068 A 
HETATM    5  N   UNL     1     -42.354  54.332 -52.748  1.00  0.00    -0.248 NA
HETATM    6  C   UNL     1     -41.763  53.765 -53.830  1.00  0.00     0.068 A 
HETATM    7  C   UNL     1     -41.875  54.337 -55.084  1.00  0.00     0.050 A 
HETATM    8  C   UNL     1     -42.589  55.530 -55.217  1.00  0.00     0.046 A 
HETATM    9  C   UNL     1     -43.557  56.063 -51.726  1.00  0.00     0.032 A 
HETATM   10  C   UNL     1     -44.225  57.289 -51.751  1.00  0.00     0.002 A 
ENDROOT
BRANCH   6  11
HETATM   11  C   UNL     1     -41.014  52.516 -53.570  1.00  0.00    -0.007 A 
HETATM   12  C   UNL     1     -41.039  51.456 -54.500  1.00  0.00     0.016 A 
HETATM   13  C   UNL     1     -40.351  50.260 -54.270  1.00  0.00     0.037 A 
HETATM   14  C   UNL     1     -39.626  50.105 -53.097  1.00  0.00     0.065 A 
HETATM   15  C   UNL     1     -39.580  51.125 -52.156  1.00  0.00     0.037 A 
HETATM   16  C   UNL     1     -40.271  52.319 -52.390  1.00  0.00     0.016 A 
BRANCH  14  17
HETATM   17  O   UNL     1     -38.947  48.956 -52.824  1.00  0.00    -0.361 OA
HETATM   18  H   UNL     1     -38.174  49.177 -52.279  1.00  0.00     0.217 HD
ENDBRANCH  14  17
ENDBRANCH   6  11
BRANCH   8  19
HETATM   19  C   UNL     1     -42.714  56.055 -56.596  1.00  0.00     0.253 C 
HETATM   20  N   UNL     1     -43.338  55.213 -57.495  1.00  0.00    -0.352 N 
HETATM   21  H   UNL     1     -43.613  54.286 -57.192  1.00  0.00     0.163 HD
HETATM   22  O   UNL     1     -42.219  57.139 -56.878  1.00  0.00    -0.268 OA
BRANCH  20  23
HETATM   23  C   UNL     1     -43.476  55.545 -58.877  1.00  0.00     0.084 A 
HETATM   24  C   UNL     1     -44.464  54.814 -59.745  1.00  0.00     0.027 A 
HETATM   25  C   UNL     1     -44.707  56.249 -59.376  1.00  0.00     0.027 A 
ENDBRANCH  20  23
ENDBRANCH   8  19
TORSDOF 4
ENDMDL
MODEL 4
REMARK VINA RESULT:      -7.9      1.504      2.010
REMARK  4 active torsions:
REMARK  status: ('A' for Active; 'I' for Inactive)
REMARK    1  A    between atoms: C_6  and  C_7 
REMARK    2  A    between atoms: C_10  and  O_11 
REMARK    3  A    between atoms: C_15  and  C_16 
REMARK       I    between atoms: C_16  and  N_17 
REMARK    4  A    between atoms: N_17  and  C_18 
ROOT
HETATM    1  C   UNL     1     -43.449  57.920 -57.139  1.00  0.00     0.001 A 
HETATM    2  C   UNL     1     -42.813  58.138 -55.919  1.00  0.00     0.015 A 
HETATM    3  C   UNL     1     -42.172  57.077 -55.227  1.00  0.00     0.008 A 
HETATM    4  C   UNL     1     -42.223  55.783 -55.772  1.00  0.00     0.068 A 
HETATM    5  N   UNL     1     -41.692  54.709 -55.161  1.00  0.00    -0.248 NA
HETATM    6  C   UNL     1     -41.101  54.838 -53.947  1.00  0.00     0.068 A 
HETATM    7  C   UNL     1     -40.974  56.076 -53.344  1.00  0.00     0.050 A 
HETATM    8  C   UNL     1     -41.490  57.198 -53.997  1.00  0.00     0.046 A 
HETATM    9  C   UNL     1     -42.857  55.593 -56.992  1.00  0.00     0.032 A 
HETATM   10  C   UNL     1     -43.465  56.644 -57.682  1.00  0.00     0.002 A 
ENDROOT
BRANCH   6  11
HETATM   11  C   UNL     1     -40.610  53.583 -53.337  1.00  0.00    -0.007 A 
HETATM   12  C   UNL     1     -40.456  53.475 -51.939  1.00  0.00     0.016 A 
HETATM   13  C   UNL     1     -39.981  52.303 -51.340  1.00  0.00     0.037 A 
HETATM   14  C   UNL     1     -39.647  51.218 -52.137  1.00  0.00     0.065 A 
HETATM   15  C   UNL     1     -39.782  51.286 -53.516  1.00  0.00     0.037 A 
HETATM   16  C   UNL     1     -40.258  52.460 -54.111  1.00  0.00     0.016 A 
BRANCH  14  17
HETATM   17  O   UNL     1     -39.172  50.059 -51.601  1.00  0.00    -0.361 OA
HETATM   18  H   UNL     1     -39.538  49.313 -52.103  1.00  0.00     0.217 HD
ENDBRANCH  14  17
ENDBRANCH   6  11
BRANCH   8  19
HETATM   19  C   UNL     1     -41.269  58.496 -53.320  1.00  0.00     0.253 C 
HETATM   20  N   UNL     1     -42.279  58.896 -52.467  1.00  0.00    -0.352 N 
HETATM   21  H   UNL     1     -43.118  58.332 -52.398  1.00  0.00     0.163 HD
HETATM   22  O   UNL     1     -40.275  59.157 -53.587  1.00  0.00    -0.268 OA
BRANCH  20  23
HETATM   23  C   UNL     1     -42.248  60.154 -51.791  1.00  0.00     0.084 A 
HETATM   24  C   UNL     1     -43.126  60.400 -50.594  1.00  0.00     0.027 A 
HETATM   25  C   UNL     1     -41.640  60.270 -50.421  1.00  0.00     0.027 A 
ENDBRANCH  20  23
ENDBRANCH   8  19
TORSDOF 4
ENDMDL
MODEL 5
REMARK VINA RESULT:      -7.7      2.189      5.633
REMARK  4 active torsions:
REMARK  status: ('A' for Active; 'I' for Inactive)
REMARK    1  A    between atoms: C_6  and  C_7 
REMARK    2  A    between atoms: C_10  and  O_11 
REMARK    3  A    between atoms: C_15  and  C_16 
REMARK       I    between atoms: C_16  and  N_17 
REMARK    4  A    between atoms: N_17  and  C_18 
ROOT
HETATM    1  C   UNL     1     -40.049  52.760 -52.027  1.00  0.00     0.001 A 
HETATM    2  C   UNL     1     -40.607  54.035 -51.961  1.00  0.00     0.015 A 
HETATM    3  C   UNL     1     -41.195  54.637 -53.104  1.00  0.00     0.008 A 
HETATM    4  C   UNL     1     -41.171  53.943 -54.326  1.00  0.00     0.068 A 
HETATM    5  N   UNL     1     -41.654  54.457 -55.470  1.00  0.00    -0.248 NA
HETATM    6  C   UNL     1     -42.166  55.713 -55.491  1.00  0.00     0.068 A 
HETATM    7  C   UNL     1     -42.262  56.463 -54.333  1.00  0.00     0.050 A 
HETATM    8  C   UNL     1     -41.797  55.914 -53.136  1.00  0.00     0.046 A 
HETATM    9  C   UNL     1     -40.616  52.672 -54.363  1.00  0.00     0.032 A 
HETATM   10  C   UNL     1     -40.060  52.072 -53.231  1.00  0.00     0.002 A 
ENDROOT
BRANCH   6  11
HETATM   11  C   UNL     1     -42.608  56.202 -56.816  1.00  0.00    -0.007 A 
HETATM   12  C   UNL     1     -43.186  55.320 -57.752  1.00  0.00     0.016 A 
HETATM   13  C   UNL     1     -43.598  55.756 -59.016  1.00  0.00     0.037 A 
HETATM   14  C   UNL     1     -43.433  57.089 -59.364  1.00  0.00     0.065 A 
HETATM   15  C   UNL     1     -42.866  57.987 -58.471  1.00  0.00     0.037 A 
HETATM   16  C   UNL     1     -42.454  57.546 -57.208  1.00  0.00     0.016 A 
BRANCH  14  17
HETATM   17  O   UNL     1     -43.811  57.559 -60.586  1.00  0.00    -0.361 OA
HETATM   18  H   UNL     1     -44.021  58.503 -60.502  1.00  0.00     0.217 HD
ENDBRANCH  14  17
ENDBRANCH   6  11
BRANCH   8  19
HETATM   19  C   UNL     1     -41.982  56.750 -51.929  1.00  0.00     0.253 C 
HETATM   20  N   UNL     1     -40.971  57.657 -51.678  1.00  0.00    -0.352 N 
HETATM   21  H   UNL     1     -40.153  57.661 -52.277  1.00  0.00     0.163 HD
HETATM   22  O   UNL     1     -42.949  56.561 -51.203  1.00  0.00    -0.268 OA
BRANCH  20  23
HETATM   23  C   UNL     1     -40.967  58.490 -50.518  1.00  0.00     0.084 A 
HETATM   24  C   UNL     1     -39.972  59.609 -50.382  1.00  0.00     0.027 A 
HETATM   25  C   UNL     1     -41.424  59.919 -50.601  1.00  0.00     0.027 A 
ENDBRANCH  20  23
ENDBRANCH   8  19
TORSDOF 4
ENDMDL
MODEL 6
REMARK VINA RESULT:      -7.6      3.193      6.773
REMARK  4 active torsions:
REMARK  status: ('A' for Active; 'I' for Inactive)
REMARK    1  A    between atoms: C_6  and  C_7 
REMARK    2  A    between atoms: C_10  and  O_11 
REMARK    3  A    between atoms: C_15  and  C_16 
REMARK       I    between atoms: C_16  and  N_17 
REMARK    4  A    between atoms: N_17  and  C_18 
ROOT
HETATM    1  C   UNL     1     -41.176  58.208 -52.808  1.00  0.00     0.001 A 
HETATM    2  C   UNL     1     -41.411  56.865 -53.094  1.00  0.00     0.015 A 
HETATM    3  C   UNL     1     -41.861  56.457 -54.377  1.00  0.00     0.008 A 
HETATM    4  C   UNL     1     -42.110  57.436 -55.353  1.00  0.00     0.068 A 
HETATM    5  N   UNL     1     -42.590  57.148 -56.575  1.00  0.00    -0.248 NA
HETATM    6  C   UNL     1     -42.889  55.867 -56.906  1.00  0.00     0.068 A 
HETATM    7  C   UNL     1     -42.650  54.829 -56.024  1.00  0.00     0.050 A 
HETATM    8  C   UNL     1     -42.114  55.124 -54.768  1.00  0.00     0.046 A 
HETATM    9  C   UNL     1     -41.861  58.767 -55.046  1.00  0.00     0.032 A 
HETATM   10  C   UNL     1     -41.394  59.163 -53.791  1.00  0.00     0.002 A 
ENDROOT
BRANCH   6  11
HETATM   11  C   UNL     1     -43.472  55.673 -58.251  1.00  0.00    -0.007 A 
HETATM   12  C   UNL     1     -43.501  56.732 -59.183  1.00  0.00     0.016 A 
HETATM   13  C   UNL     1     -44.060  56.576 -60.456  1.00  0.00     0.037 A 
HETATM   14  C   UNL     1     -44.605  55.352 -60.816  1.00  0.00     0.065 A 
HETATM   15  C   UNL     1     -44.598  54.287 -59.926  1.00  0.00     0.037 A 
HETATM   16  C   UNL     1     -44.039  54.448 -58.654  1.00  0.00     0.016 A 
BRANCH  14  17
HETATM   17  O   UNL     1     -45.168  55.154 -62.041  1.00  0.00    -0.361 OA
HETATM   18  H   UNL     1     -44.792  55.799 -62.661  1.00  0.00     0.217 HD
ENDBRANCH  14  17
ENDBRANCH   6  11
BRANCH   8  19
HETATM   19  C   UNL     1     -41.833  53.960 -53.899  1.00  0.00     0.253 C 
HETATM   20  N   UNL     1     -40.761  53.178 -54.285  1.00  0.00    -0.352 N 
HETATM   21  H   UNL     1     -40.278  53.398 -55.148  1.00  0.00     0.163 HD
HETATM   22  O   UNL     1     -42.573  53.716 -52.955  1.00  0.00    -0.268 OA
BRANCH  20  23
HETATM   23  C   UNL     1     -40.403  51.983 -53.591  1.00  0.00     0.084 A 
HETATM   24  C   UNL     1     -40.448  50.650 -54.287  1.00  0.00     0.027 A 
HETATM   25  C   UNL     1     -39.127  51.260 -53.919  1.00  0.00     0.027 A 
ENDBRANCH  20  23
ENDBRANCH   8  19
TORSDOF 4
ENDMDL
MODEL 7
REMARK VINA RESULT:      -7.4      2.600      7.555
REMARK  4 active torsions:
REMARK  status: ('A' for Active; 'I' for Inactive)
REMARK    1  A    between atoms: C_6  and  C_7 
REMARK    2  A    between atoms: C_10  and  O_11 
REMARK    3  A    between atoms: C_15  and  C_16 
REMARK       I    between atoms: C_16  and  N_17 
REMARK    4  A    between atoms: N_17  and  C_18 
ROOT
HETATM    1  C   UNL     1     -40.204  53.526 -49.370  1.00  0.00     0.001 A 
HETATM    2  C   UNL     1     -40.292  53.425 -50.757  1.00  0.00     0.015 A 
HETATM    3  C   UNL     1     -41.019  54.378 -51.516  1.00  0.00     0.008 A 
HETATM    4  C   UNL     1     -41.692  55.412 -50.843  1.00  0.00     0.068 A 
HETATM    5  N   UNL     1     -42.449  56.326 -51.474  1.00  0.00    -0.248 NA
HETATM    6  C   UNL     1     -42.620  56.260 -52.818  1.00  0.00     0.068 A 
HETATM    7  C   UNL     1     -41.974  55.298 -53.572  1.00  0.00     0.050 A 
HETATM    8  C   UNL     1     -41.155  54.372 -52.921  1.00  0.00     0.046 A 
HETATM    9  C   UNL     1     -41.583  55.495 -49.462  1.00  0.00     0.032 A 
HETATM   10  C   UNL     1     -40.846  54.569 -48.720  1.00  0.00     0.002 A 
ENDROOT
BRANCH   6  11
HETATM   11  C   UNL     1     -43.525  57.276 -53.399  1.00  0.00    -0.007 A 
HETATM   12  C   UNL     1     -43.845  57.252 -54.773  1.00  0.00     0.016 A 
HETATM   13  C   UNL     1     -44.687  58.210 -55.348  1.00  0.00     0.037 A 
HETATM   14  C   UNL     1     -45.221  59.214 -54.553  1.00  0.00     0.065 A 
HETATM   15  C   UNL     1     -44.928  59.272 -53.198  1.00  0.00     0.037 A 
HETATM   16  C   UNL     1     -44.085  58.312 -52.627  1.00  0.00     0.016 A 
BRANCH  14  17
HETATM   17  O   UNL     1     -46.039  60.174 -55.069  1.00  0.00    -0.361 OA
HETATM   18  H   UNL     1     -46.283  60.786 -54.357  1.00  0.00     0.217 HD
ENDBRANCH  14  17
ENDBRANCH   6  11
BRANCH   8  19
HETATM   19  C   UNL     1     -40.453  53.407 -53.797  1.00  0.00     0.253 C 
HETATM   20  N   UNL     1     -40.382  52.114 -53.314  1.00  0.00    -0.352 N 
HETATM   21  H   UNL     1     -40.747  51.913 -52.391  1.00  0.00     0.163 HD
HETATM   22  O   UNL     1     -39.930  53.797 -54.833  1.00  0.00    -0.268 OA
BRANCH  20  23
HETATM   23  C   UNL     1     -39.680  51.082 -54.008  1.00  0.00     0.084 A 
HETATM   24  C   UNL     1     -39.520  49.719 -53.392  1.00  0.00     0.027 A 
HETATM   25  C   UNL     1     -40.420  49.904 -54.579  1.00  0.00     0.027 A 
ENDBRANCH  20  23
ENDBRANCH   8  19
TORSDOF 4
ENDMDL
MODEL 8
REMARK VINA RESULT:      -7.2      2.360      4.479
REMARK  4 active torsions:
REMARK  status: ('A' for Active; 'I' for Inactive)
REMARK    1  A    between atoms: C_6  and  C_7 
REMARK    2  A    between atoms: C_10  and  O_11 
REMARK    3  A    between atoms: C_15  and  C_16 
REMARK       I    between atoms: C_16  and  N_17 
REMARK    4  A    between atoms: N_17  and  C_18 
ROOT
HETATM    1  C   UNL     1     -44.891  59.199 -51.805  1.00  0.00     0.001 A 
HETATM    2  C   UNL     1     -43.998  59.054 -52.865  1.00  0.00     0.015 A 
HETATM    3  C   UNL     1     -43.308  57.832 -53.079  1.00  0.00     0.008 A 
HETATM    4  C   UNL     1     -43.505  56.773 -52.176  1.00  0.00     0.068 A 
HETATM    5  N   UNL     1     -42.854  55.601 -52.268  1.00  0.00    -0.248 NA
HETATM    6  C   UNL     1     -41.933  55.407 -53.245  1.00  0.00     0.068 A 
HETATM    7  C   UNL     1     -41.692  56.378 -54.200  1.00  0.00     0.050 A 
HETATM    8  C   UNL     1     -42.397  57.581 -54.128  1.00  0.00     0.046 A 
HETATM    9  C   UNL     1     -44.406  56.940 -51.133  1.00  0.00     0.032 A 
HETATM   10  C   UNL     1     -45.102  58.135 -50.940  1.00  0.00     0.002 A 
ENDROOT
BRANCH   6  11
HETATM   11  C   UNL     1     -41.229  54.106 -53.213  1.00  0.00    -0.007 A 
HETATM   12  C   UNL     1     -40.697  53.606 -52.006  1.00  0.00     0.016 A 
HETATM   13  C   UNL     1     -40.015  52.386 -51.953  1.00  0.00     0.037 A 
HETATM   14  C   UNL     1     -39.852  51.645 -53.115  1.00  0.00     0.065 A 
HETATM   15  C   UNL     1     -40.359  52.105 -54.323  1.00  0.00     0.037 A 
HETATM   16  C   UNL     1     -41.039  53.327 -54.371  1.00  0.00     0.016 A 
BRANCH  14  17
HETATM   17  O   UNL     1     -39.188  50.455 -53.116  1.00  0.00    -0.361 OA
HETATM   18  H   UNL     1     -39.124  50.137 -52.202  1.00  0.00     0.217 HD
ENDBRANCH  14  17
ENDBRANCH   6  11
BRANCH   8  19
HETATM   19  C   UNL     1     -42.128  58.552 -55.213  1.00  0.00     0.253 C 
HETATM   20  N   UNL     1     -42.651  58.218 -56.447  1.00  0.00    -0.352 N 
HETATM   21  H   UNL     1     -43.122  57.329 -56.558  1.00  0.00     0.163 HD
HETATM   22  O   UNL     1     -41.426  59.530 -54.990  1.00  0.00    -0.268 OA
BRANCH  20  23
HETATM   23  C   UNL     1     -42.422  59.016 -57.610  1.00  0.00     0.084 A 
HETATM   24  C   UNL     1     -41.937  58.386 -58.886  1.00  0.00     0.027 A 
HETATM   25  C   UNL     1     -43.338  58.917 -58.797  1.00  0.00     0.027 A 
ENDBRANCH  20  23
ENDBRANCH   8  19
TORSDOF 4
ENDMDL
MODEL 9
REMARK VINA RESULT:      -7.1      2.634      6.571
REMARK  4 active torsions:
REMARK  status: ('A' for Active; 'I' for Inactive)
REMARK    1  A    between atoms: C_6  and  C_7 
REMARK    2  A    between atoms: C_10  and  O_11 
REMARK    3  A    between atoms: C_15  and  C_16 
REMARK       I    between atoms: C_16  and  N_17 
REMARK    4  A    between atoms: N_17  and  C_18 
ROOT
HETATM    1  C   UNL     1     -40.956  58.132 -50.781  1.00  0.00     0.001 A 
HETATM    2  C   UNL     1     -41.214  56.885 -51.347  1.00  0.00     0.015 A 
HETATM    3  C   UNL     1     -41.492  56.752 -52.732  1.00  0.00     0.008 A 
HETATM    4  C   UNL     1     -41.547  57.910 -53.528  1.00  0.00     0.068 A 
HETATM    5  N   UNL     1     -41.857  57.886 -54.835  1.00  0.00    -0.248 NA
HETATM    6  C   UNL     1     -42.168  56.713 -55.441  1.00  0.00     0.068 A 
HETATM    7  C   UNL     1     -42.112  55.517 -54.750  1.00  0.00     0.050 A 
HETATM    8  C   UNL     1     -41.751  55.537 -53.401  1.00  0.00     0.046 A 
HETATM    9  C   UNL     1     -41.279  59.139 -52.942  1.00  0.00     0.032 A 
HETATM   10  C   UNL     1     -40.980  59.263 -51.583  1.00  0.00     0.002 A 
ENDROOT
BRANCH   6  11
HETATM   11  C   UNL     1     -42.558  56.812 -56.865  1.00  0.00    -0.007 A 
HETATM   12  C   UNL     1     -43.078  55.692 -57.548  1.00  0.00     0.016 A 
HETATM   13  C   UNL     1     -43.440  55.757 -58.897  1.00  0.00     0.037 A 
HETATM   14  C   UNL     1     -43.282  56.949 -59.589  1.00  0.00     0.065 A 
HETATM   15  C   UNL     1     -42.772  58.072 -58.953  1.00  0.00     0.037 A 
HETATM   16  C   UNL     1     -42.410  58.002 -57.603  1.00  0.00     0.016 A 
BRANCH  14  17
HETATM   17  O   UNL     1     -43.613  57.059 -60.906  1.00  0.00    -0.361 OA
HETATM   18  H   UNL     1     -43.568  56.178 -61.310  1.00  0.00     0.217 HD
ENDBRANCH  14  17
ENDBRANCH   6  11
BRANCH   8  19
HETATM   19  C   UNL     1     -41.659  54.215 -52.740  1.00  0.00     0.253 C 
HETATM   20  N   UNL     1     -40.630  53.405 -53.180  1.00  0.00    -0.352 N 
HETATM   21  H   UNL     1     -40.050  53.720 -53.948  1.00  0.00     0.163 HD
HETATM   22  O   UNL     1     -42.504  53.890 -51.916  1.00  0.00    -0.268 OA
BRANCH  20  23
HETATM   23  C   UNL     1     -40.448  52.076 -52.689  1.00  0.00     0.084 A 
HETATM   24  C   UNL     1     -39.429  51.163 -53.316  1.00  0.00     0.027 A 
HETATM   25  C   UNL     1     -39.202  51.704 -51.934  1.00  0.00     0.027 A 
ENDBRANCH  20  23
ENDBRANCH   8  19
TORSDOF 4
ENDMDL
MODEL 10
REMARK VINA RESULT:      -6.9     14.340     16.019
REMARK  4 active torsions:
REMARK  status: ('A' for Active; 'I' for Inactive)
REMARK    1  A    between atoms: C_6  and  C_7 
REMARK    2  A    between atoms: C_10  and  O_11 
REMARK    3  A    between atoms: C_15  and  C_16 
REMARK       I    between atoms: C_16  and  N_17 
REMARK    4  A    between atoms: N_17  and  C_18 
ROOT
HETATM    1  C   UNL     1     -40.046  41.432 -54.438  1.00  0.00     0.001 A 
HETATM    2  C   UNL     1     -38.812  41.500 -55.082  1.00  0.00     0.015 A 
HETATM    3  C   UNL     1     -37.610  41.188 -54.396  1.00  0.00     0.008 A 
HETATM    4  C   UNL     1     -37.674  40.846 -53.034  1.00  0.00     0.068 A 
HETATM    5  N   UNL     1     -36.583  40.589 -52.292  1.00  0.00    -0.248 NA
HETATM    6  C   UNL     1     -35.346  40.685 -52.840  1.00  0.00     0.068 A 
HETATM    7  C   UNL     1     -35.182  40.984 -54.180  1.00  0.00     0.050 A 
HETATM    8  C   UNL     1     -36.317  41.212 -54.962  1.00  0.00     0.046 A 
HETATM    9  C   UNL     1     -38.915  40.779 -52.418  1.00  0.00     0.032 A 
HETATM   10  C   UNL     1     -40.099  41.062 -53.102  1.00  0.00     0.002 A 
ENDROOT
BRANCH   6  11
HETATM   11  C   UNL     1     -34.216  40.446 -51.916  1.00  0.00    -0.007 A 
HETATM   12  C   UNL     1     -32.886  40.477 -52.384  1.00  0.00     0.016 A 
HETATM   13  C   UNL     1     -31.801  40.240 -51.532  1.00  0.00     0.037 A 
HETATM   14  C   UNL     1     -32.034  39.962 -50.193  1.00  0.00     0.065 A 
HETATM   15  C   UNL     1     -33.329  39.920 -49.695  1.00  0.00     0.037 A 
HETATM   16  C   UNL     1     -34.411  40.158 -50.551  1.00  0.00     0.016 A 
BRANCH  14  17
HETATM   17  O   UNL     1     -31.011  39.716 -49.327  1.00  0.00    -0.361 OA
HETATM   18  H   UNL     1     -30.282  40.324 -49.529  1.00  0.00     0.217 HD
ENDBRANCH  14  17
ENDBRANCH   6  11
BRANCH   8  19
HETATM   19  C   UNL     1     -36.068  41.472 -56.397  1.00  0.00     0.253 C 
HETATM   20  N   UNL     1     -36.691  40.604 -57.272  1.00  0.00    -0.352 N 
HETATM   21  H   UNL     1     -37.218  39.823 -56.899  1.00  0.00     0.163 HD
HETATM   22  O   UNL     1     -35.299  42.367 -56.727  1.00  0.00    -0.268 OA
BRANCH  20  23
HETATM   23  C   UNL     1     -36.497  40.680 -58.685  1.00  0.00     0.084 A 
HETATM   24  C   UNL     1     -37.575  40.224 -59.631  1.00  0.00     0.027 A 
HETATM   25  C   UNL     1     -37.254  41.685 -59.508  1.00  0.00     0.027 A 
ENDBRANCH  20  23
ENDBRANCH   8  19
TORSDOF 4
ENDMDL
