MODEL 1
REMARK VINA RESULT:      -8.5      0.000      0.000
REMARK  5 active torsions:
REMARK  status: ('A' for Active; 'I' for Inactive)
REMARK    1  A    between atoms: C_6  and  O_7 
REMARK    2  A    between atoms: O_7  and  C_8 
REMARK    3  A    between atoms: C_12  and  C_13 
REMARK       I    between atoms: C_13  and  N_14 
REMARK    4  A    between atoms: N_14  and  C_15 
REMARK    5  A    between atoms: C_15  and  C_16 
ROOT
HETATM    1  C   UNL     1     -39.758  49.881 -53.008  1.00  0.00     0.002 A 
HETATM    2  C   UNL     1     -39.886  50.493 -51.760  1.00  0.00     0.025 A 
HETATM    3  C   UNL     1     -40.091  51.877 -51.672  1.00  0.00     0.078 A 
HETATM    4  C   UNL     1     -40.210  52.482 -50.376  1.00  0.00     0.102 C 
HETATM    5  N   UNL     1     -40.295  52.946 -49.315  1.00  0.00    -0.191 NA
HETATM    6  C   UNL     1     -40.175  52.648 -52.841  1.00  0.00     0.096 A 
HETATM    7  C   UNL     1     -40.023  52.029 -54.090  1.00  0.00     0.039 A 
HETATM    8  C   UNL     1     -39.822  50.649 -54.169  1.00  0.00     0.003 A 
ENDROOT
BRANCH   6   9
HETATM    9  O   UNL     1     -40.362  54.007 -52.684  1.00  0.00    -0.308 OA
BRANCH   9  10
HETATM   10  C   UNL     1     -41.334  54.628 -53.430  1.00  0.00     0.098 A 
HETATM   11  C   UNL     1     -42.686  54.659 -53.060  1.00  0.00     0.068 A 
HETATM   12 CL   UNL     1     -43.264  53.877 -51.632  1.00  0.00    -0.081 Cl
HETATM   13  C   UNL     1     -43.608  55.369 -53.835  1.00  0.00     0.044 A 
HETATM   14  C   UNL     1     -43.173  56.069 -54.967  1.00  0.00     0.033 A 
HETATM   15  C   UNL     1     -41.815  56.070 -55.311  1.00  0.00     0.020 A 
HETATM   16  C   UNL     1     -40.898  55.350 -54.544  1.00  0.00     0.040 A 
BRANCH  14  17
HETATM   17  C   UNL     1     -44.110  56.883 -55.782  1.00  0.00     0.251 C 
HETATM   18  N   UNL     1     -43.840  56.952 -57.131  1.00  0.00    -0.353 N 
HETATM   19  H   UNL     1     -42.944  56.636 -57.475  1.00  0.00     0.163 HD
HETATM   20  O   UNL     1     -45.042  57.462 -55.238  1.00  0.00    -0.268 OA
BRANCH  18  21
HETATM   21  C   UNL     1     -44.646  57.761 -58.019  1.00  0.00     0.161 C 
BRANCH  21  22
HETATM   22  C   UNL     1     -45.158  56.960 -59.185  1.00  0.00    -0.038 A 
HETATM   23  C   UNL     1     -46.454  57.139 -59.674  1.00  0.00     0.028 A 
HETATM   24  C   UNL     1     -46.869  56.366 -60.749  1.00  0.00     0.116 A 
HETATM   25  N   UNL     1     -46.097  55.440 -61.354  1.00  0.00    -0.273 NA
HETATM   26  C   UNL     1     -44.851  55.278 -60.864  1.00  0.00     0.116 A 
HETATM   27  C   UNL     1     -44.344  56.002 -59.797  1.00  0.00     0.028 A 
ENDBRANCH  21  22
ENDBRANCH  18  21
ENDBRANCH  14  17
ENDBRANCH   9  10
ENDBRANCH   6   9
TORSDOF 5
ENDMDL
MODEL 2
REMARK VINA RESULT:      -8.1      2.354      8.690
REMARK  5 active torsions:
REMARK  status: ('A' for Active; 'I' for Inactive)
REMARK    1  A    between atoms: C_6  and  O_7 
REMARK    2  A    between atoms: O_7  and  C_8 
REMARK    3  A    between atoms: C_12  and  C_13 
REMARK       I    between atoms: C_13  and  N_14 
REMARK    4  A    between atoms: N_14  and  C_15 
REMARK    5  A    between atoms: C_15  and  C_16 
ROOT
HETATM    1  C   UNL     1     -46.796  57.789 -58.710  1.00  0.00     0.002 A 
HETATM    2  C   UNL     1     -45.733  57.310 -59.477  1.00  0.00     0.025 A 
HETATM    3  C   UNL     1     -44.423  57.367 -58.981  1.00  0.00     0.078 A 
HETATM    4  C   UNL     1     -43.349  56.876 -59.795  1.00  0.00     0.102 C 
HETATM    5  N   UNL     1     -42.497  56.479 -60.477  1.00  0.00    -0.191 NA
HETATM    6  C   UNL     1     -44.181  57.900 -57.706  1.00  0.00     0.096 A 
HETATM    7  C   UNL     1     -45.251  58.400 -56.950  1.00  0.00     0.039 A 
HETATM    8  C   UNL     1     -46.553  58.336 -57.451  1.00  0.00     0.003 A 
ENDROOT
BRANCH   6   9
HETATM    9  O   UNL     1     -42.867  57.942 -57.283  1.00  0.00    -0.308 OA
BRANCH   9  10
HETATM   10  C   UNL     1     -42.503  57.190 -56.192  1.00  0.00     0.098 A 
HETATM   11  C   UNL     1     -42.036  57.748 -54.993  1.00  0.00     0.068 A 
HETATM   12 CL   UNL     1     -41.838  59.452 -54.791  1.00  0.00    -0.081 Cl
HETATM   13  C   UNL     1     -41.750  56.923 -53.902  1.00  0.00     0.044 A 
HETATM   14  C   UNL     1     -41.955  55.541 -54.001  1.00  0.00     0.033 A 
HETATM   15  C   UNL     1     -42.461  54.991 -55.187  1.00  0.00     0.020 A 
HETATM   16  C   UNL     1     -42.734  55.815 -56.279  1.00  0.00     0.040 A 
BRANCH  14  17
HETATM   17  C   UNL     1     -41.720  54.638 -52.846  1.00  0.00     0.251 C 
HETATM   18  N   UNL     1     -40.470  54.064 -52.769  1.00  0.00    -0.353 N 
HETATM   19  H   UNL     1     -39.852  54.107 -53.567  1.00  0.00     0.163 HD
HETATM   20  O   UNL     1     -42.623  54.426 -52.047  1.00  0.00    -0.268 OA
BRANCH  18  21
HETATM   21  C   UNL     1     -40.139  53.121 -51.722  1.00  0.00     0.161 C 
BRANCH  21  22
HETATM   22  C   UNL     1     -39.912  51.740 -52.273  1.00  0.00    -0.038 A 
HETATM   23  C   UNL     1     -39.638  50.659 -51.430  1.00  0.00     0.028 A 
HETATM   24  C   UNL     1     -39.432  49.411 -51.999  1.00  0.00     0.116 A 
HETATM   25  N   UNL     1     -39.471  49.171 -53.326  1.00  0.00    -0.273 NA
HETATM   26  C   UNL     1     -39.731  50.228 -54.124  1.00  0.00     0.116 A 
HETATM   27  C   UNL     1     -39.952  51.512 -53.652  1.00  0.00     0.028 A 
ENDBRANCH  21  22
ENDBRANCH  18  21
ENDBRANCH  14  17
ENDBRANCH   9  10
ENDBRANCH   6   9
TORSDOF 5
ENDMDL
MODEL 3
REMARK VINA RESULT:      -7.9      1.985      2.472
REMARK  5 active torsions:
REMARK  status: ('A' for Active; 'I' for Inactive)
REMARK    1  A    between atoms: C_6  and  O_7 
REMARK    2  A    between atoms: O_7  and  C_8 
REMARK    3  A    between atoms: C_12  and  C_13 
REMARK       I    between atoms: C_13  and  N_14 
REMARK    4  A    between atoms: N_14  and  C_15 
REMARK    5  A    between atoms: C_15  and  C_16 
ROOT
HETATM    1  C   UNL     1     -39.540  49.437 -52.309  1.00  0.00     0.002 A 
HETATM    2  C   UNL     1     -39.786  50.218 -51.179  1.00  0.00     0.025 A 
HETATM    3  C   UNL     1     -40.026  51.592 -51.310  1.00  0.00     0.078 A 
HETATM    4  C   UNL     1     -40.268  52.373 -50.131  1.00  0.00     0.102 C 
HETATM    5  N   UNL     1     -40.452  52.982 -49.160  1.00  0.00    -0.191 NA
HETATM    6  C   UNL     1     -40.028  52.183 -52.583  1.00  0.00     0.096 A 
HETATM    7  C   UNL     1     -39.757  51.396 -53.712  1.00  0.00     0.039 A 
HETATM    8  C   UNL     1     -39.522  50.027 -53.571  1.00  0.00     0.003 A 
ENDROOT
BRANCH   6   9
HETATM    9  O   UNL     1     -40.256  53.544 -52.642  1.00  0.00    -0.308 OA
BRANCH   9  10
HETATM   10  C   UNL     1     -41.055  54.034 -53.646  1.00  0.00     0.098 A 
HETATM   11  C   UNL     1     -42.422  54.301 -53.482  1.00  0.00     0.068 A 
HETATM   12 CL   UNL     1     -43.242  53.999 -51.993  1.00  0.00    -0.081 Cl
HETATM   13  C   UNL     1     -43.156  54.862 -54.531  1.00  0.00     0.044 A 
HETATM   14  C   UNL     1     -42.517  55.181 -55.736  1.00  0.00     0.033 A 
HETATM   15  C   UNL     1     -41.143  54.951 -55.882  1.00  0.00     0.020 A 
HETATM   16  C   UNL     1     -40.414  54.378 -54.839  1.00  0.00     0.040 A 
BRANCH  14  17
HETATM   17  C   UNL     1     -43.249  55.833 -56.851  1.00  0.00     0.251 C 
HETATM   18  N   UNL     1     -43.845  57.041 -56.564  1.00  0.00    -0.353 N 
HETATM   19  H   UNL     1     -43.939  57.332 -55.600  1.00  0.00     0.163 HD
HETATM   20  O   UNL     1     -43.312  55.279 -57.942  1.00  0.00    -0.268 OA
BRANCH  18  21
HETATM   21  C   UNL     1     -44.635  57.744 -57.551  1.00  0.00     0.161 C 
BRANCH  21  22
HETATM   22  C   UNL     1     -43.771  58.566 -58.468  1.00  0.00    -0.038 A 
HETATM   23  C   UNL     1     -43.820  58.399 -59.854  1.00  0.00     0.028 A 
HETATM   24  C   UNL     1     -42.994  59.183 -60.647  1.00  0.00     0.116 A 
HETATM   25  N   UNL     1     -42.133  60.101 -60.160  1.00  0.00    -0.273 NA
HETATM   26  C   UNL     1     -42.096  60.244 -58.819  1.00  0.00     0.116 A 
HETATM   27  C   UNL     1     -42.881  59.510 -57.945  1.00  0.00     0.028 A 
ENDBRANCH  21  22
ENDBRANCH  18  21
ENDBRANCH  14  17
ENDBRANCH   9  10
ENDBRANCH   6   9
TORSDOF 5
ENDMDL
MODEL 4
REMARK VINA RESULT:      -7.8      2.543      8.710
REMARK  5 active torsions:
REMARK  status: ('A' for Active; 'I' for Inactive)
REMARK    1  A    between atoms: C_6  and  O_7 
REMARK    2  A    between atoms: O_7  and  C_8 
REMARK    3  A    between atoms: C_12  and  C_13 
REMARK       I    between atoms: C_13  and  N_14 
REMARK    4  A    between atoms: N_14  and  C_15 
REMARK    5  A    between atoms: C_15  and  C_16 
ROOT
HETATM    1  C   UNL     1     -42.138  60.154 -59.976  1.00  0.00     0.002 A 
HETATM    2  C   UNL     1     -42.547  58.918 -60.480  1.00  0.00     0.025 A 
HETATM    3  C   UNL     1     -43.241  58.018 -59.660  1.00  0.00     0.078 A 
HETATM    4  C   UNL     1     -43.642  56.751 -60.200  1.00  0.00     0.102 C 
HETATM    5  N   UNL     1     -43.946  55.729 -60.661  1.00  0.00    -0.191 NA
HETATM    6  C   UNL     1     -43.532  58.363 -58.331  1.00  0.00     0.096 A 
HETATM    7  C   UNL     1     -43.097  59.597 -57.826  1.00  0.00     0.039 A 
HETATM    8  C   UNL     1     -42.410  60.489 -58.652  1.00  0.00     0.003 A 
ENDROOT
BRANCH   6   9
HETATM    9  O   UNL     1     -44.203  57.425 -57.572  1.00  0.00    -0.308 OA
BRANCH   9  10
HETATM   10  C   UNL     1     -43.603  56.951 -56.431  1.00  0.00     0.098 A 
HETATM   11  C   UNL     1     -43.928  57.405 -55.145  1.00  0.00     0.068 A 
HETATM   12 CL   UNL     1     -45.101  58.644 -54.879  1.00  0.00    -0.081 Cl
HETATM   13  C   UNL     1     -43.322  56.827 -54.025  1.00  0.00     0.044 A 
HETATM   14  C   UNL     1     -42.410  55.777 -54.191  1.00  0.00     0.033 A 
HETATM   15  C   UNL     1     -42.119  55.299 -55.475  1.00  0.00     0.020 A 
HETATM   16  C   UNL     1     -42.714  55.886 -56.592  1.00  0.00     0.040 A 
BRANCH  14  17
HETATM   17  C   UNL     1     -41.791  55.098 -53.024  1.00  0.00     0.251 C 
HETATM   18  N   UNL     1     -40.916  54.074 -53.312  1.00  0.00    -0.353 N 
HETATM   19  H   UNL     1     -40.880  53.698 -54.249  1.00  0.00     0.163 HD
HETATM   20  O   UNL     1     -42.091  55.446 -51.889  1.00  0.00    -0.268 OA
BRANCH  18  21
HETATM   21  C   UNL     1     -40.295  53.299 -52.260  1.00  0.00     0.161 C 
BRANCH  21  22
HETATM   22  C   UNL     1     -40.021  51.887 -52.701  1.00  0.00    -0.038 A 
HETATM   23  C   UNL     1     -40.200  51.494 -54.030  1.00  0.00     0.028 A 
HETATM   24  C   UNL     1     -39.936  50.176 -54.374  1.00  0.00     0.116 A 
HETATM   25  N   UNL     1     -39.521  49.238 -53.498  1.00  0.00    -0.273 NA
HETATM   26  C   UNL     1     -39.359  49.635 -52.218  1.00  0.00     0.116 A 
HETATM   27  C   UNL     1     -39.595  50.927 -51.778  1.00  0.00     0.028 A 
ENDBRANCH  21  22
ENDBRANCH  18  21
ENDBRANCH  14  17
ENDBRANCH   9  10
ENDBRANCH   6   9
TORSDOF 5
ENDMDL
MODEL 5
REMARK VINA RESULT:      -7.8      2.956      3.680
REMARK  5 active torsions:
REMARK  status: ('A' for Active; 'I' for Inactive)
REMARK    1  A    between atoms: C_6  and  O_7 
REMARK    2  A    between atoms: O_7  and  C_8 
REMARK    3  A    between atoms: C_12  and  C_13 
REMARK       I    between atoms: C_13  and  N_14 
REMARK    4  A    between atoms: N_14  and  C_15 
REMARK    5  A    between atoms: C_15  and  C_16 
ROOT
HETATM    1  C   UNL     1     -39.225  51.636 -52.447  1.00  0.00     0.002 A 
HETATM    2  C   UNL     1     -39.722  52.426 -51.409  1.00  0.00     0.025 A 
HETATM    3  C   UNL     1     -40.781  53.313 -51.644  1.00  0.00     0.078 A 
HETATM    4  C   UNL     1     -41.267  54.119 -50.561  1.00  0.00     0.102 C 
HETATM    5  N   UNL     1     -41.635  54.766 -49.670  1.00  0.00    -0.191 NA
HETATM    6  C   UNL     1     -41.348  53.401 -52.924  1.00  0.00     0.096 A 
HETATM    7  C   UNL     1     -40.828  52.622 -53.967  1.00  0.00     0.039 A 
HETATM    8  C   UNL     1     -39.775  51.738 -53.723  1.00  0.00     0.003 A 
ENDROOT
BRANCH   6   9
HETATM    9  O   UNL     1     -42.378  54.306 -53.092  1.00  0.00    -0.308 OA
BRANCH   9  10
HETATM   10  C   UNL     1     -42.543  54.893 -54.324  1.00  0.00     0.098 A 
HETATM   11  C   UNL     1     -41.915  56.090 -54.697  1.00  0.00     0.068 A 
HETATM   12 CL   UNL     1     -40.895  56.966 -53.615  1.00  0.00    -0.081 Cl
HETATM   13  C   UNL     1     -42.077  56.591 -55.992  1.00  0.00     0.044 A 
HETATM   14  C   UNL     1     -42.846  55.880 -56.923  1.00  0.00     0.033 A 
HETATM   15  C   UNL     1     -43.438  54.663 -56.559  1.00  0.00     0.020 A 
HETATM   16  C   UNL     1     -43.287  54.172 -55.261  1.00  0.00     0.040 A 
BRANCH  14  17
HETATM   17  C   UNL     1     -42.993  56.347 -58.324  1.00  0.00     0.251 C 
HETATM   18  N   UNL     1     -41.965  57.118 -58.819  1.00  0.00    -0.353 N 
HETATM   19  H   UNL     1     -41.276  57.496 -58.183  1.00  0.00     0.163 HD
HETATM   20  O   UNL     1     -44.002  56.060 -58.958  1.00  0.00    -0.268 OA
BRANCH  18  21
HETATM   21  C   UNL     1     -42.020  57.681 -60.151  1.00  0.00     0.161 C 
BRANCH  21  22
HETATM   22  C   UNL     1     -41.978  59.184 -60.119  1.00  0.00    -0.038 A 
HETATM   23  C   UNL     1     -41.881  59.932 -61.295  1.00  0.00     0.028 A 
HETATM   24  C   UNL     1     -41.841  61.316 -61.200  1.00  0.00     0.116 A 
HETATM   25  N   UNL     1     -41.883  61.992 -60.033  1.00  0.00    -0.273 NA
HETATM   26  C   UNL     1     -41.972  61.252 -58.908  1.00  0.00     0.116 A 
HETATM   27  C   UNL     1     -42.020  59.868 -58.899  1.00  0.00     0.028 A 
ENDBRANCH  21  22
ENDBRANCH  18  21
ENDBRANCH  14  17
ENDBRANCH   9  10
ENDBRANCH   6   9
TORSDOF 5
ENDMDL
MODEL 6
REMARK VINA RESULT:      -7.7      2.262      8.421
REMARK  5 active torsions:
REMARK  status: ('A' for Active; 'I' for Inactive)
REMARK    1  A    between atoms: C_6  and  O_7 
REMARK    2  A    between atoms: O_7  and  C_8 
REMARK    3  A    between atoms: C_12  and  C_13 
REMARK       I    between atoms: C_13  and  N_14 
REMARK    4  A    between atoms: N_14  and  C_15 
REMARK    5  A    between atoms: C_15  and  C_16 
ROOT
HETATM    1  C   UNL     1     -45.348  55.186 -60.985  1.00  0.00     0.002 A 
HETATM    2  C   UNL     1     -46.185  56.034 -60.258  1.00  0.00     0.025 A 
HETATM    3  C   UNL     1     -45.669  56.798 -59.202  1.00  0.00     0.078 A 
HETATM    4  C   UNL     1     -46.552  57.656 -58.466  1.00  0.00     0.102 C 
HETATM    5  N   UNL     1     -47.292  58.334 -57.882  1.00  0.00    -0.191 NA
HETATM    6  C   UNL     1     -44.305  56.715 -58.881  1.00  0.00     0.096 A 
HETATM    7  C   UNL     1     -43.476  55.844 -59.601  1.00  0.00     0.039 A 
HETATM    8  C   UNL     1     -43.999  55.089 -60.653  1.00  0.00     0.003 A 
ENDROOT
BRANCH   6   9
HETATM    9  O   UNL     1     -43.864  57.482 -57.819  1.00  0.00    -0.308 OA
BRANCH   9  10
HETATM   10  C   UNL     1     -43.447  56.843 -56.677  1.00  0.00     0.098 A 
HETATM   11  C   UNL     1     -43.838  57.235 -55.389  1.00  0.00     0.068 A 
HETATM   12 CL   UNL     1     -44.863  58.598 -55.117  1.00  0.00    -0.081 Cl
HETATM   13  C   UNL     1     -43.427  56.494 -54.276  1.00  0.00     0.044 A 
HETATM   14  C   UNL     1     -42.645  55.346 -54.455  1.00  0.00     0.033 A 
HETATM   15  C   UNL     1     -42.290  54.934 -55.746  1.00  0.00     0.020 A 
HETATM   16  C   UNL     1     -42.690  55.682 -56.854  1.00  0.00     0.040 A 
BRANCH  14  17
HETATM   17  C   UNL     1     -42.239  54.499 -53.305  1.00  0.00     0.251 C 
HETATM   18  N   UNL     1     -40.896  54.208 -53.210  1.00  0.00    -0.353 N 
HETATM   19  H   UNL     1     -40.289  54.395 -53.996  1.00  0.00     0.163 HD
HETATM   20  O   UNL     1     -43.088  54.086 -52.525  1.00  0.00    -0.268 OA
BRANCH  18  21
HETATM   21  C   UNL     1     -40.386  53.345 -52.167  1.00  0.00     0.161 C 
BRANCH  21  22
HETATM   22  C   UNL     1     -40.090  51.964 -52.685  1.00  0.00    -0.038 A 
HETATM   23  C   UNL     1     -40.270  51.642 -54.033  1.00  0.00     0.028 A 
HETATM   24  C   UNL     1     -39.985  50.350 -54.449  1.00  0.00     0.116 A 
HETATM   25  N   UNL     1     -39.548  49.373 -53.628  1.00  0.00    -0.273 NA
HETATM   26  C   UNL     1     -39.386  49.702 -52.329  1.00  0.00     0.116 A 
HETATM   27  C   UNL     1     -39.641  50.963 -51.818  1.00  0.00     0.028 A 
ENDBRANCH  21  22
ENDBRANCH  18  21
ENDBRANCH  14  17
ENDBRANCH   9  10
ENDBRANCH   6   9
TORSDOF 5
ENDMDL
MODEL 7
REMARK VINA RESULT:      -7.6      1.907      3.021
REMARK  5 active torsions:
REMARK  status: ('A' for Active; 'I' for Inactive)
REMARK    1  A    between atoms: C_6  and  O_7 
REMARK    2  A    between atoms: O_7  and  C_8 
REMARK    3  A    between atoms: C_12  and  C_13 
REMARK       I    between atoms: C_13  and  N_14 
REMARK    4  A    between atoms: N_14  and  C_15 
REMARK    5  A    between atoms: C_15  and  C_16 
ROOT
HETATM    1  C   UNL     1     -40.349  54.696 -49.008  1.00  0.00     0.002 A 
HETATM    2  C   UNL     1     -39.861  53.577 -49.683  1.00  0.00     0.025 A 
HETATM    3  C   UNL     1     -40.474  53.146 -50.867  1.00  0.00     0.078 A 
HETATM    4  C   UNL     1     -39.957  51.987 -51.537  1.00  0.00     0.102 C 
HETATM    5  N   UNL     1     -39.524  51.041 -52.053  1.00  0.00    -0.191 NA
HETATM    6  C   UNL     1     -41.577  53.846 -51.379  1.00  0.00     0.096 A 
HETATM    7  C   UNL     1     -42.075  54.956 -50.683  1.00  0.00     0.039 A 
HETATM    8  C   UNL     1     -41.456  55.381 -49.505  1.00  0.00     0.003 A 
ENDROOT
BRANCH   6   9
HETATM    9  O   UNL     1     -42.144  53.360 -52.541  1.00  0.00    -0.308 OA
BRANCH   9  10
HETATM   10  C   UNL     1     -42.258  54.203 -53.620  1.00  0.00     0.098 A 
HETATM   11  C   UNL     1     -41.358  54.205 -54.694  1.00  0.00     0.068 A 
HETATM   12 CL   UNL     1     -39.985  53.158 -54.742  1.00  0.00    -0.081 Cl
HETATM   13  C   UNL     1     -41.577  55.045 -55.790  1.00  0.00     0.044 A 
HETATM   14  C   UNL     1     -42.712  55.865 -55.822  1.00  0.00     0.033 A 
HETATM   15  C   UNL     1     -43.631  55.831 -54.765  1.00  0.00     0.020 A 
HETATM   16  C   UNL     1     -43.404  55.001 -53.666  1.00  0.00     0.040 A 
BRANCH  14  17
HETATM   17  C   UNL     1     -43.012  56.727 -56.993  1.00  0.00     0.251 C 
HETATM   18  N   UNL     1     -42.695  56.206 -58.228  1.00  0.00    -0.353 N 
HETATM   19  H   UNL     1     -42.110  55.384 -58.286  1.00  0.00     0.163 HD
HETATM   20  O   UNL     1     -43.491  57.841 -56.821  1.00  0.00    -0.268 OA
BRANCH  18  21
HETATM   21  C   UNL     1     -42.886  56.974 -59.439  1.00  0.00     0.161 C 
BRANCH  21  22
HETATM   22  C   UNL     1     -44.311  56.909 -59.917  1.00  0.00    -0.038 A 
HETATM   23  C   UNL     1     -44.881  55.705 -60.339  1.00  0.00     0.028 A 
HETATM   24  C   UNL     1     -46.198  55.711 -60.774  1.00  0.00     0.116 A 
HETATM   25  N   UNL     1     -46.970  56.817 -60.824  1.00  0.00    -0.273 NA
HETATM   26  C   UNL     1     -46.400  57.971 -60.418  1.00  0.00     0.116 A 
HETATM   27  C   UNL     1     -45.095  58.067 -59.965  1.00  0.00     0.028 A 
ENDBRANCH  21  22
ENDBRANCH  18  21
ENDBRANCH  14  17
ENDBRANCH   9  10
ENDBRANCH   6   9
TORSDOF 5
ENDMDL
MODEL 8
REMARK VINA RESULT:      -7.4      2.240      2.585
REMARK  5 active torsions:
REMARK  status: ('A' for Active; 'I' for Inactive)
REMARK    1  A    between atoms: C_6  and  O_7 
REMARK    2  A    between atoms: O_7  and  C_8 
REMARK    3  A    between atoms: C_12  and  C_13 
REMARK       I    between atoms: C_13  and  N_14 
REMARK    4  A    between atoms: N_14  and  C_15 
REMARK    5  A    between atoms: C_15  and  C_16 
ROOT
HETATM    1  C   UNL     1     -39.259  51.616 -52.575  1.00  0.00     0.002 A 
HETATM    2  C   UNL     1     -39.823  52.347 -51.527  1.00  0.00     0.025 A 
HETATM    3  C   UNL     1     -40.945  53.154 -51.756  1.00  0.00     0.078 A 
HETATM    4  C   UNL     1     -41.500  53.901 -50.664  1.00  0.00     0.102 C 
HETATM    5  N   UNL     1     -41.922  54.501 -49.764  1.00  0.00    -0.191 NA
HETATM    6  C   UNL     1     -41.509  53.222 -53.039  1.00  0.00     0.096 A 
HETATM    7  C   UNL     1     -40.923  52.503 -54.091  1.00  0.00     0.039 A 
HETATM    8  C   UNL     1     -39.806  51.699 -53.853  1.00  0.00     0.003 A 
ENDROOT
BRANCH   6   9
HETATM    9  O   UNL     1     -42.604  54.048 -53.201  1.00  0.00    -0.308 OA
BRANCH   9  10
HETATM   10  C   UNL     1     -42.601  54.947 -54.239  1.00  0.00     0.098 A 
HETATM   11  C   UNL     1     -42.085  56.247 -54.131  1.00  0.00     0.068 A 
HETATM   12 CL   UNL     1     -41.431  56.854 -52.653  1.00  0.00    -0.081 Cl
HETATM   13  C   UNL     1     -42.055  57.083 -55.251  1.00  0.00     0.044 A 
HETATM   14  C   UNL     1     -42.517  56.610 -56.486  1.00  0.00     0.033 A 
HETATM   15  C   UNL     1     -42.994  55.297 -56.599  1.00  0.00     0.020 A 
HETATM   16  C   UNL     1     -43.036  54.469 -55.477  1.00  0.00     0.040 A 
BRANCH  14  17
HETATM   17  C   UNL     1     -42.447  57.446 -57.711  1.00  0.00     0.251 C 
HETATM   18  N   UNL     1     -42.980  56.893 -58.855  1.00  0.00    -0.353 N 
HETATM   19  H   UNL     1     -43.203  55.908 -58.874  1.00  0.00     0.163 HD
HETATM   20  O   UNL     1     -41.915  58.548 -57.665  1.00  0.00    -0.268 OA
BRANCH  18  21
HETATM   21  C   UNL     1     -42.919  57.586 -60.123  1.00  0.00     0.161 C 
BRANCH  21  22
HETATM   22  C   UNL     1     -44.182  58.356 -60.395  1.00  0.00    -0.038 A 
HETATM   23  C   UNL     1     -45.440  57.791 -60.167  1.00  0.00     0.028 A 
HETATM   24  C   UNL     1     -46.568  58.550 -60.442  1.00  0.00     0.116 A 
HETATM   25  N   UNL     1     -46.530  59.808 -60.928  1.00  0.00    -0.273 NA
HETATM   26  C   UNL     1     -45.307  60.334 -61.148  1.00  0.00     0.116 A 
HETATM   27  C   UNL     1     -44.123  59.658 -60.903  1.00  0.00     0.028 A 
ENDBRANCH  21  22
ENDBRANCH  18  21
ENDBRANCH  14  17
ENDBRANCH   9  10
ENDBRANCH   6   9
TORSDOF 5
ENDMDL
MODEL 9
REMARK VINA RESULT:      -7.2      2.641      8.416
REMARK  5 active torsions:
REMARK  status: ('A' for Active; 'I' for Inactive)
REMARK    1  A    between atoms: C_6  and  O_7 
REMARK    2  A    between atoms: O_7  and  C_8 
REMARK    3  A    between atoms: C_12  and  C_13 
REMARK       I    between atoms: C_13  and  N_14 
REMARK    4  A    between atoms: N_14  and  C_15 
REMARK    5  A    between atoms: C_15  and  C_16 
ROOT
HETATM    1  C   UNL     1     -43.771  57.280 -60.287  1.00  0.00     0.002 A 
HETATM    2  C   UNL     1     -42.861  58.242 -59.846  1.00  0.00     0.025 A 
HETATM    3  C   UNL     1     -42.840  58.627 -58.498  1.00  0.00     0.078 A 
HETATM    4  C   UNL     1     -41.900  59.624 -58.073  1.00  0.00     0.102 C 
HETATM    5  N   UNL     1     -41.136  60.439 -57.758  1.00  0.00    -0.191 NA
HETATM    6  C   UNL     1     -43.732  58.038 -57.589  1.00  0.00     0.096 A 
HETATM    7  C   UNL     1     -44.659  57.090 -58.045  1.00  0.00     0.039 A 
HETATM    8  C   UNL     1     -44.670  56.710 -59.389  1.00  0.00     0.003 A 
ENDROOT
BRANCH   6   9
HETATM    9  O   UNL     1     -43.671  58.474 -56.280  1.00  0.00    -0.308 OA
BRANCH   9  10
HETATM   10  C   UNL     1     -43.086  57.657 -55.342  1.00  0.00     0.098 A 
HETATM   11  C   UNL     1     -42.208  58.124 -54.355  1.00  0.00     0.068 A 
HETATM   12 CL   UNL     1     -41.746  59.785 -54.250  1.00  0.00    -0.081 Cl
HETATM   13  C   UNL     1     -41.704  57.244 -53.392  1.00  0.00     0.044 A 
HETATM   14  C   UNL     1     -42.101  55.901 -53.402  1.00  0.00     0.033 A 
HETATM   15  C   UNL     1     -43.011  55.446 -54.366  1.00  0.00     0.020 A 
HETATM   16  C   UNL     1     -43.502  56.323 -55.334  1.00  0.00     0.040 A 
BRANCH  14  17
HETATM   17  C   UNL     1     -41.636  54.948 -52.363  1.00  0.00     0.251 C 
HETATM   18  N   UNL     1     -40.509  54.217 -52.668  1.00  0.00    -0.353 N 
HETATM   19  H   UNL     1     -40.171  54.200 -53.621  1.00  0.00     0.163 HD
HETATM   20  O   UNL     1     -42.264  54.836 -51.317  1.00  0.00    -0.268 OA
BRANCH  18  21
HETATM   21  C   UNL     1     -39.993  53.216 -51.761  1.00  0.00     0.161 C 
BRANCH  21  22
HETATM   22  C   UNL     1     -39.880  51.871 -52.426  1.00  0.00    -0.038 A 
HETATM   23  C   UNL     1     -40.070  51.724 -53.802  1.00  0.00     0.028 A 
HETATM   24  C   UNL     1     -39.957  50.458 -54.356  1.00  0.00     0.116 A 
HETATM   25  N   UNL     1     -39.680  49.346 -53.644  1.00  0.00    -0.273 NA
HETATM   26  C   UNL     1     -39.506  49.507 -52.315  1.00  0.00     0.116 A 
HETATM   27  C   UNL     1     -39.596  50.729 -51.670  1.00  0.00     0.028 A 
ENDBRANCH  21  22
ENDBRANCH  18  21
ENDBRANCH  14  17
ENDBRANCH   9  10
ENDBRANCH   6   9
TORSDOF 5
ENDMDL
MODEL 10
REMARK VINA RESULT:      -7.2      2.661      3.164
REMARK  5 active torsions:
REMARK  status: ('A' for Active; 'I' for Inactive)
REMARK    1  A    between atoms: C_6  and  O_7 
REMARK    2  A    between atoms: O_7  and  C_8 
REMARK    3  A    between atoms: C_12  and  C_13 
REMARK       I    between atoms: C_13  and  N_14 
REMARK    4  A    between atoms: N_14  and  C_15 
REMARK    5  A    between atoms: C_15  and  C_16 
ROOT
HETATM    1  C   UNL     1     -39.471  51.685 -52.646  1.00  0.00     0.002 A 
HETATM    2  C   UNL     1     -39.729  52.150 -51.356  1.00  0.00     0.025 A 
HETATM    3  C   UNL     1     -40.735  53.101 -51.137  1.00  0.00     0.078 A 
HETATM    4  C   UNL     1     -40.974  53.568 -49.802  1.00  0.00     0.102 C 
HETATM    5  N   UNL     1     -41.140  53.934 -48.713  1.00  0.00    -0.191 NA
HETATM    6  C   UNL     1     -41.490  53.581 -52.219  1.00  0.00     0.096 A 
HETATM    7  C   UNL     1     -41.209  53.127 -53.515  1.00  0.00     0.039 A 
HETATM    8  C   UNL     1     -40.207  52.176 -53.722  1.00  0.00     0.003 A 
ENDROOT
BRANCH   6   9
HETATM    9  O   UNL     1     -42.455  54.529 -51.938  1.00  0.00    -0.308 OA
BRANCH   9  10
HETATM   10  C   UNL     1     -42.451  55.702 -52.652  1.00  0.00     0.098 A 
HETATM   11  C   UNL     1     -41.759  56.851 -52.243  1.00  0.00     0.068 A 
HETATM   12 CL   UNL     1     -40.868  56.907 -50.764  1.00  0.00    -0.081 Cl
HETATM   13  C   UNL     1     -41.746  57.988 -53.057  1.00  0.00     0.044 A 
HETATM   14  C   UNL     1     -42.403  57.966 -54.293  1.00  0.00     0.033 A 
HETATM   15  C   UNL     1     -43.059  56.803 -54.718  1.00  0.00     0.020 A 
HETATM   16  C   UNL     1     -43.082  55.674 -53.898  1.00  0.00     0.040 A 
BRANCH  14  17
HETATM   17  C   UNL     1     -42.363  59.131 -55.212  1.00  0.00     0.251 C 
HETATM   18  N   UNL     1     -43.278  59.126 -56.242  1.00  0.00    -0.353 N 
HETATM   19  H   UNL     1     -43.784  58.277 -56.452  1.00  0.00     0.163 HD
HETATM   20  O   UNL     1     -41.529  60.012 -55.040  1.00  0.00    -0.268 OA
BRANCH  18  21
HETATM   21  C   UNL     1     -43.298  60.176 -57.236  1.00  0.00     0.161 C 
BRANCH  21  22
HETATM   22  C   UNL     1     -42.767  59.697 -58.559  1.00  0.00    -0.038 A 
HETATM   23  C   UNL     1     -42.617  58.335 -58.830  1.00  0.00     0.028 A 
HETATM   24  C   UNL     1     -42.117  57.956 -60.067  1.00  0.00     0.116 A 
HETATM   25  N   UNL     1     -41.755  58.827 -61.032  1.00  0.00    -0.273 NA
HETATM   26  C   UNL     1     -41.901  60.138 -60.750  1.00  0.00     0.116 A 
HETATM   27  C   UNL     1     -42.393  60.615 -59.546  1.00  0.00     0.028 A 
ENDBRANCH  21  22
ENDBRANCH  18  21
ENDBRANCH  14  17
ENDBRANCH   9  10
ENDBRANCH   6   9
TORSDOF 5
ENDMDL
