MODEL 1
REMARK VINA RESULT:      -8.4      0.000      0.000
REMARK  6 active torsions:
REMARK  status: ('A' for Active; 'I' for Inactive)
REMARK    1  A    between atoms: C_3  and  C_4 
REMARK    2  A    between atoms: C_4  and  N_5 
REMARK       I    between atoms: N_5  and  C_6 
REMARK    3  A    between atoms: C_6  and  C_7 
REMARK    4  A    between atoms: C_7  and  N_8 
REMARK    5  A    between atoms: C_12  and  N_13 
REMARK       I    between atoms: N_13  and  C_14 
REMARK       I    between atoms: C_14  and  N_15 
REMARK    6  A    between atoms: N_15  and  C_16 
ROOT
HETATM    1  N   UNL     1     -42.792  57.096 -52.440  1.00  0.00    -0.063 N 
HETATM    2  H   UNL     1     -43.282  57.809 -51.886  1.00  0.00     0.280 HD
HETATM    3  C   UNL     1     -43.591  55.822 -52.272  1.00  0.00     0.237 C 
HETATM    4  C   UNL     1     -43.485  55.281 -50.859  1.00  0.00     0.053 C 
HETATM    5  C   UNL     1     -42.056  55.176 -50.324  1.00  0.00     0.089 C 
HETATM    6  C   UNL     1     -41.291  56.482 -50.526  1.00  0.00     0.053 C 
HETATM    7  C   UNL     1     -41.378  57.069 -51.924  1.00  0.00     0.237 C 
ENDROOT
BRANCH   1   8
HETATM    8  C   UNL     1     -42.843  57.620 -53.893  1.00  0.00     0.337 C 
BRANCH   8   9
HETATM    9  C   UNL     1     -42.433  56.634 -54.994  1.00  0.00     0.243 C 
HETATM   10  N   UNL     1     -43.427  56.237 -55.857  1.00  0.00    -0.355 N 
HETATM   11  H   UNL     1     -44.161  56.904 -56.076  1.00  0.00     0.162 HD
HETATM   12  O   UNL     1     -41.265  56.264 -55.097  1.00  0.00    -0.272 OA
BRANCH  10  13
HETATM   13  C   UNL     1     -43.101  55.376 -56.978  1.00  0.00     0.169 C 
BRANCH  13  14
HETATM   14  C   UNL     1     -43.313  56.062 -58.304  1.00  0.00     0.006 A 
HETATM   15  C   UNL     1     -43.940  55.532 -59.428  1.00  0.00    -0.047 A 
HETATM   16  C   UNL     1     -44.551  54.169 -59.512  1.00  0.00     0.049 C 
HETATM   17  C   UNL     1     -43.920  56.454 -60.526  1.00  0.00     0.015 A 
HETATM   18  C   UNL     1     -43.291  57.635 -60.215  1.00  0.00     0.051 A 
HETATM   19  S   UNL     1     -42.719  57.647 -58.614  1.00  0.00    -0.104 SA
ENDBRANCH  13  14
ENDBRANCH  10  13
ENDBRANCH   8   9
ENDBRANCH   1   8
BRANCH   5  20
HETATM   20  N   UNL     1     -41.332  53.973 -50.738  1.00  0.00    -0.338 N 
HETATM   21  C   UNL     1     -40.259  53.416 -50.125  1.00  0.00     0.321 C 
HETATM   22  N   UNL     1     -39.729  52.285 -50.647  1.00  0.00    -0.309 N 
HETATM   23  O   UNL     1     -39.791  53.872 -49.085  1.00  0.00    -0.247 OA
HETATM   24  H   UNL     1     -39.086  51.839 -49.999  1.00  0.00     0.170 HD
HETATM   25  H   UNL     1     -41.859  53.306 -51.292  1.00  0.00     0.164 HD
BRANCH  22  26
HETATM   26  C   UNL     1     -39.831  51.669 -51.908  1.00  0.00     0.036 A 
HETATM   27  C   UNL     1     -40.095  52.345 -53.100  1.00  0.00     0.029 A 
HETATM   28  C   UNL     1     -40.159  51.644 -54.310  1.00  0.00     0.002 A 
HETATM   29  C   UNL     1     -39.941  50.269 -54.338  1.00  0.00     0.000 A 
HETATM   30  C   UNL     1     -39.647  49.591 -53.160  1.00  0.00     0.002 A 
HETATM   31  C   UNL     1     -39.585  50.289 -51.952  1.00  0.00     0.029 A 
ENDBRANCH  22  26
ENDBRANCH   5  20
TORSDOF 6
ENDMDL
MODEL 2
REMARK VINA RESULT:      -8.2      1.869      2.101
REMARK  6 active torsions:
REMARK  status: ('A' for Active; 'I' for Inactive)
REMARK    1  A    between atoms: C_3  and  C_4 
REMARK    2  A    between atoms: C_4  and  N_5 
REMARK       I    between atoms: N_5  and  C_6 
REMARK    3  A    between atoms: C_6  and  C_7 
REMARK    4  A    between atoms: C_7  and  N_8 
REMARK    5  A    between atoms: C_12  and  N_13 
REMARK       I    between atoms: N_13  and  C_14 
REMARK       I    between atoms: C_14  and  N_15 
REMARK    6  A    between atoms: N_15  and  C_16 
ROOT
HETATM    1  N   UNL     1     -43.439  56.878 -53.207  1.00  0.00    -0.063 N 
HETATM    2  H   UNL     1     -43.521  57.867 -52.942  1.00  0.00     0.280 HD
HETATM    3  C   UNL     1     -43.748  56.089 -51.953  1.00  0.00     0.237 C 
HETATM    4  C   UNL     1     -42.657  56.249 -50.911  1.00  0.00     0.053 C 
HETATM    5  C   UNL     1     -41.239  56.022 -51.436  1.00  0.00     0.089 C 
HETATM    6  C   UNL     1     -40.981  56.832 -52.705  1.00  0.00     0.053 C 
HETATM    7  C   UNL     1     -42.054  56.713 -53.773  1.00  0.00     0.237 C 
ENDROOT
BRANCH   1   8
HETATM    8  C   UNL     1     -44.514  56.671 -54.297  1.00  0.00     0.337 C 
BRANCH   8   9
HETATM    9  C   UNL     1     -44.384  57.531 -55.561  1.00  0.00     0.243 C 
HETATM   10  N   UNL     1     -44.073  56.865 -56.722  1.00  0.00    -0.355 N 
HETATM   11  H   UNL     1     -44.421  55.918 -56.835  1.00  0.00     0.162 HD
HETATM   12  O   UNL     1     -44.590  58.742 -55.514  1.00  0.00    -0.272 OA
BRANCH  10  13
HETATM   13  C   UNL     1     -44.020  57.594 -57.976  1.00  0.00     0.169 C 
BRANCH  13  14
HETATM   14  C   UNL     1     -44.993  57.052 -58.991  1.00  0.00     0.006 A 
HETATM   15  C   UNL     1     -46.366  57.272 -59.033  1.00  0.00    -0.047 A 
HETATM   16  C   UNL     1     -47.133  58.125 -58.071  1.00  0.00     0.049 C 
HETATM   17  C   UNL     1     -46.981  56.560 -60.115  1.00  0.00     0.015 A 
HETATM   18  C   UNL     1     -46.079  55.832 -60.852  1.00  0.00     0.051 A 
HETATM   19  S   UNL     1     -44.496  55.993 -60.253  1.00  0.00    -0.104 SA
ENDBRANCH  13  14
ENDBRANCH  10  13
ENDBRANCH   8   9
ENDBRANCH   1   8
BRANCH   5  20
HETATM   20  N   UNL     1     -40.829  54.618 -51.513  1.00  0.00    -0.338 N 
HETATM   21  C   UNL     1     -40.062  53.943 -50.623  1.00  0.00     0.321 C 
HETATM   22  N   UNL     1     -39.801  52.635 -50.853  1.00  0.00    -0.309 N 
HETATM   23  O   UNL     1     -39.647  54.463 -49.590  1.00  0.00    -0.247 OA
HETATM   24  H   UNL     1     -39.416  52.179 -50.032  1.00  0.00     0.170 HD
HETATM   25  H   UNL     1     -41.434  54.010 -52.055  1.00  0.00     0.164 HD
BRANCH  22  26
HETATM   26  C   UNL     1     -39.881  51.828 -52.003  1.00  0.00     0.036 A 
HETATM   27  C   UNL     1     -40.174  52.300 -53.284  1.00  0.00     0.029 A 
HETATM   28  C   UNL     1     -40.212  51.418 -54.370  1.00  0.00     0.002 A 
HETATM   29  C   UNL     1     -39.940  50.064 -54.187  1.00  0.00     0.000 A 
HETATM   30  C   UNL     1     -39.617  49.589 -52.920  1.00  0.00     0.002 A 
HETATM   31  C   UNL     1     -39.580  50.468 -51.836  1.00  0.00     0.029 A 
ENDBRANCH  22  26
ENDBRANCH   5  20
TORSDOF 6
ENDMDL
MODEL 3
REMARK VINA RESULT:      -7.7      1.748      2.280
REMARK  6 active torsions:
REMARK  status: ('A' for Active; 'I' for Inactive)
REMARK    1  A    between atoms: C_3  and  C_4 
REMARK    2  A    between atoms: C_4  and  N_5 
REMARK       I    between atoms: N_5  and  C_6 
REMARK    3  A    between atoms: C_6  and  C_7 
REMARK    4  A    between atoms: C_7  and  N_8 
REMARK    5  A    between atoms: C_12  and  N_13 
REMARK       I    between atoms: N_13  and  C_14 
REMARK       I    between atoms: C_14  and  N_15 
REMARK    6  A    between atoms: N_15  and  C_16 
ROOT
HETATM    1  N   UNL     1     -42.492  56.104 -54.808  1.00  0.00    -0.063 N 
HETATM    2  H   UNL     1     -42.911  57.041 -54.847  1.00  0.00     0.280 HD
HETATM    3  C   UNL     1     -43.453  55.256 -54.006  1.00  0.00     0.237 C 
HETATM    4  C   UNL     1     -43.479  55.671 -52.547  1.00  0.00     0.053 C 
HETATM    5  C   UNL     1     -42.100  55.803 -51.899  1.00  0.00     0.089 C 
HETATM    6  C   UNL     1     -41.167  56.660 -52.752  1.00  0.00     0.053 C 
HETATM    7  C   UNL     1     -41.117  56.288 -54.223  1.00  0.00     0.237 C 
ENDROOT
BRANCH   1   8
HETATM    8  C   UNL     1     -42.412  55.647 -56.282  1.00  0.00     0.337 C 
BRANCH   8   9
HETATM    9  C   UNL     1     -42.742  56.701 -57.347  1.00  0.00     0.243 C 
HETATM   10  N   UNL     1     -42.787  56.259 -58.648  1.00  0.00    -0.355 N 
HETATM   11  H   UNL     1     -43.101  55.308 -58.817  1.00  0.00     0.162 HD
HETATM   12  O   UNL     1     -42.986  57.861 -57.021  1.00  0.00    -0.272 OA
BRANCH  10  13
HETATM   13  C   UNL     1     -43.180  57.174 -59.703  1.00  0.00     0.169 C 
BRANCH  13  14
HETATM   14  C   UNL     1     -44.661  57.127 -59.976  1.00  0.00     0.006 A 
HETATM   15  C   UNL     1     -45.407  56.011 -60.344  1.00  0.00    -0.047 A 
HETATM   16  C   UNL     1     -44.864  54.627 -60.512  1.00  0.00     0.049 C 
HETATM   17  C   UNL     1     -46.784  56.347 -60.565  1.00  0.00     0.015 A 
HETATM   18  C   UNL     1     -47.043  57.681 -60.364  1.00  0.00     0.051 A 
HETATM   19  S   UNL     1     -45.644  58.537 -59.915  1.00  0.00    -0.104 SA
ENDBRANCH  13  14
ENDBRANCH  10  13
ENDBRANCH   8   9
ENDBRANCH   1   8
BRANCH   5  20
HETATM   20  N   UNL     1     -41.518  54.544 -51.432  1.00  0.00    -0.338 N 
HETATM   21  C   UNL     1     -40.895  54.323 -50.248  1.00  0.00     0.321 C 
HETATM   22  N   UNL     1     -40.433  53.079 -49.981  1.00  0.00    -0.309 N 
HETATM   23  O   UNL     1     -40.790  55.198 -49.392  1.00  0.00    -0.247 OA
HETATM   24  H   UNL     1     -40.191  52.972 -49.001  1.00  0.00     0.170 HD
HETATM   25  H   UNL     1     -41.907  53.699 -51.837  1.00  0.00     0.164 HD
BRANCH  22  26
HETATM   26  C   UNL     1     -40.155  51.963 -50.792  1.00  0.00     0.036 A 
HETATM   27  C   UNL     1     -39.761  52.034 -52.129  1.00  0.00     0.029 A 
HETATM   28  C   UNL     1     -39.488  50.865 -52.848  1.00  0.00     0.002 A 
HETATM   29  C   UNL     1     -39.588  49.620 -52.230  1.00  0.00     0.000 A 
HETATM   30  C   UNL     1     -39.949  49.541 -50.889  1.00  0.00     0.002 A 
HETATM   31  C   UNL     1     -40.223  50.707 -50.172  1.00  0.00     0.029 A 
ENDBRANCH  22  26
ENDBRANCH   5  20
TORSDOF 6
ENDMDL
MODEL 4
REMARK VINA RESULT:      -7.6      2.716      7.870
REMARK  6 active torsions:
REMARK  status: ('A' for Active; 'I' for Inactive)
REMARK    1  A    between atoms: C_3  and  C_4 
REMARK    2  A    between atoms: C_4  and  N_5 
REMARK       I    between atoms: N_5  and  C_6 
REMARK    3  A    between atoms: C_6  and  C_7 
REMARK    4  A    between atoms: C_7  and  N_8 
REMARK    5  A    between atoms: C_12  and  N_13 
REMARK       I    between atoms: N_13  and  C_14 
REMARK       I    between atoms: C_14  and  N_15 
REMARK    6  A    between atoms: N_15  and  C_16 
ROOT
HETATM    1  N   UNL     1     -43.039  57.015 -52.807  1.00  0.00    -0.063 N 
HETATM    2  H   UNL     1     -42.999  57.641 -51.994  1.00  0.00     0.280 HD
HETATM    3  C   UNL     1     -41.715  57.180 -53.520  1.00  0.00     0.237 C 
HETATM    4  C   UNL     1     -41.593  58.552 -54.158  1.00  0.00     0.053 C 
HETATM    5  C   UNL     1     -42.794  58.966 -55.008  1.00  0.00     0.089 C 
HETATM    6  C   UNL     1     -44.105  58.771 -54.247  1.00  0.00     0.053 C 
HETATM    7  C   UNL     1     -44.266  57.417 -53.581  1.00  0.00     0.237 C 
ENDROOT
BRANCH   1   8
HETATM    8  C   UNL     1     -43.198  55.599 -52.208  1.00  0.00     0.337 C 
BRANCH   8   9
HETATM    9  C   UNL     1     -41.955  54.990 -51.546  1.00  0.00     0.243 C 
HETATM   10  N   UNL     1     -41.466  53.837 -52.113  1.00  0.00    -0.355 N 
HETATM   11  H   UNL     1     -41.565  53.723 -53.117  1.00  0.00     0.162 HD
HETATM   12  O   UNL     1     -41.425  55.545 -50.585  1.00  0.00    -0.272 OA
BRANCH  10  13
HETATM   13  C   UNL     1     -40.242  53.249 -51.601  1.00  0.00     0.169 C 
BRANCH  13  14
HETATM   14  C   UNL     1     -39.955  51.905 -52.218  1.00  0.00     0.006 A 
HETATM   15  C   UNL     1     -39.923  51.598 -53.576  1.00  0.00    -0.047 A 
HETATM   16  C   UNL     1     -40.146  52.576 -54.686  1.00  0.00     0.049 C 
HETATM   17  C   UNL     1     -39.661  50.206 -53.795  1.00  0.00     0.015 A 
HETATM   18  C   UNL     1     -39.505  49.504 -52.624  1.00  0.00     0.051 A 
HETATM   19  S   UNL     1     -39.675  50.504 -51.259  1.00  0.00    -0.104 SA
ENDBRANCH  13  14
ENDBRANCH  10  13
ENDBRANCH   8   9
ENDBRANCH   1   8
BRANCH   5  20
HETATM   20  N   UNL     1     -42.795  58.435 -56.372  1.00  0.00    -0.338 N 
HETATM   21  C   UNL     1     -42.148  58.949 -57.447  1.00  0.00     0.321 C 
HETATM   22  N   UNL     1     -42.250  58.306 -58.633  1.00  0.00    -0.309 N 
HETATM   23  O   UNL     1     -41.428  59.941 -57.364  1.00  0.00    -0.247 OA
HETATM   24  H   UNL     1     -41.562  58.640 -59.301  1.00  0.00     0.170 HD
HETATM   25  H   UNL     1     -42.980  57.442 -56.461  1.00  0.00     0.164 HD
BRANCH  22  26
HETATM   26  C   UNL     1     -43.153  57.348 -59.132  1.00  0.00     0.036 A 
HETATM   27  C   UNL     1     -42.935  55.969 -59.114  1.00  0.00     0.029 A 
HETATM   28  C   UNL     1     -43.904  55.095 -59.618  1.00  0.00     0.002 A 
HETATM   29  C   UNL     1     -45.104  55.590 -60.125  1.00  0.00     0.000 A 
HETATM   30  C   UNL     1     -45.343  56.960 -60.118  1.00  0.00     0.002 A 
HETATM   31  C   UNL     1     -44.376  57.834 -59.616  1.00  0.00     0.029 A 
ENDBRANCH  22  26
ENDBRANCH   5  20
TORSDOF 6
ENDMDL
MODEL 5
REMARK VINA RESULT:      -7.6      1.880      2.356
REMARK  6 active torsions:
REMARK  status: ('A' for Active; 'I' for Inactive)
REMARK    1  A    between atoms: C_3  and  C_4 
REMARK    2  A    between atoms: C_4  and  N_5 
REMARK       I    between atoms: N_5  and  C_6 
REMARK    3  A    between atoms: C_6  and  C_7 
REMARK    4  A    between atoms: C_7  and  N_8 
REMARK    5  A    between atoms: C_12  and  N_13 
REMARK       I    between atoms: N_13  and  C_14 
REMARK       I    between atoms: C_14  and  N_15 
REMARK    6  A    between atoms: N_15  and  C_16 
ROOT
HETATM    1  N   UNL     1     -43.868  58.133 -53.803  1.00  0.00    -0.063 N 
HETATM    2  H   UNL     1     -43.799  59.157 -53.752  1.00  0.00     0.280 HD
HETATM    3  C   UNL     1     -44.047  57.662 -52.377  1.00  0.00     0.237 C 
HETATM    4  C   UNL     1     -42.786  57.873 -51.558  1.00  0.00     0.053 C 
HETATM    5  C   UNL     1     -41.508  57.351 -52.214  1.00  0.00     0.089 C 
HETATM    6  C   UNL     1     -41.380  57.848 -53.653  1.00  0.00     0.053 C 
HETATM    7  C   UNL     1     -42.622  57.668 -54.508  1.00  0.00     0.237 C 
ENDROOT
BRANCH   1   8
HETATM    8  C   UNL     1     -45.125  57.864 -54.660  1.00  0.00     0.337 C 
BRANCH   8   9
HETATM    9  C   UNL     1     -45.079  58.344 -56.117  1.00  0.00     0.243 C 
HETATM   10  N   UNL     1     -45.256  57.380 -57.081  1.00  0.00    -0.355 N 
HETATM   11  H   UNL     1     -45.867  56.598 -56.865  1.00  0.00     0.162 HD
HETATM   12  O   UNL     1     -44.926  59.535 -56.376  1.00  0.00    -0.272 OA
BRANCH  10  13
HETATM   13  C   UNL     1     -45.314  57.765 -58.478  1.00  0.00     0.169 C 
BRANCH  13  14
HETATM   14  C   UNL     1     -43.985  57.602 -59.170  1.00  0.00     0.006 A 
HETATM   15  C   UNL     1     -43.428  56.416 -59.640  1.00  0.00    -0.047 A 
HETATM   16  C   UNL     1     -44.075  55.069 -59.562  1.00  0.00     0.049 C 
HETATM   17  C   UNL     1     -42.127  56.633 -60.204  1.00  0.00     0.015 A 
HETATM   18  C   UNL     1     -41.737  57.948 -60.150  1.00  0.00     0.051 A 
HETATM   19  S   UNL     1     -42.920  58.930 -59.422  1.00  0.00    -0.104 SA
ENDBRANCH  13  14
ENDBRANCH  10  13
ENDBRANCH   8   9
ENDBRANCH   1   8
BRANCH   5  20
HETATM   20  N   UNL     1     -41.268  55.917 -52.039  1.00  0.00    -0.338 N 
HETATM   21  C   UNL     1     -40.979  55.275 -50.881  1.00  0.00     0.321 C 
HETATM   22  N   UNL     1     -40.807  53.933 -50.910  1.00  0.00    -0.309 N 
HETATM   23  O   UNL     1     -40.927  55.862 -49.803  1.00  0.00    -0.247 OA
HETATM   24  H   UNL     1     -40.817  53.533 -49.976  1.00  0.00     0.170 HD
HETATM   25  H   UNL     1     -41.690  55.310 -52.732  1.00  0.00     0.164 HD
BRANCH  22  26
HETATM   26  C   UNL     1     -40.542  53.021 -51.948  1.00  0.00     0.036 A 
HETATM   27  C   UNL     1     -40.924  53.202 -53.278  1.00  0.00     0.029 A 
HETATM   28  C   UNL     1     -40.597  52.243 -54.244  1.00  0.00     0.002 A 
HETATM   29  C   UNL     1     -39.869  51.109 -53.891  1.00  0.00     0.000 A 
HETATM   30  C   UNL     1     -39.456  50.935 -52.574  1.00  0.00     0.002 A 
HETATM   31  C   UNL     1     -39.784  51.890 -51.610  1.00  0.00     0.029 A 
ENDBRANCH  22  26
ENDBRANCH   5  20
TORSDOF 6
ENDMDL
MODEL 6
REMARK VINA RESULT:      -7.5      2.359      2.986
REMARK  6 active torsions:
REMARK  status: ('A' for Active; 'I' for Inactive)
REMARK    1  A    between atoms: C_3  and  C_4 
REMARK    2  A    between atoms: C_4  and  N_5 
REMARK       I    between atoms: N_5  and  C_6 
REMARK    3  A    between atoms: C_6  and  C_7 
REMARK    4  A    between atoms: C_7  and  N_8 
REMARK    5  A    between atoms: C_12  and  N_13 
REMARK       I    between atoms: N_13  and  C_14 
REMARK       I    between atoms: C_14  and  N_15 
REMARK    6  A    between atoms: N_15  and  C_16 
ROOT
HETATM    1  N   UNL     1     -42.217  60.081 -53.354  1.00  0.00    -0.063 N 
HETATM    2  H   UNL     1     -42.017  60.930 -52.811  1.00  0.00     0.280 HD
HETATM    3  C   UNL     1     -43.364  59.397 -52.642  1.00  0.00     0.237 C 
HETATM    4  C   UNL     1     -42.932  58.841 -51.298  1.00  0.00     0.053 C 
HETATM    5  C   UNL     1     -41.655  58.001 -51.338  1.00  0.00     0.089 C 
HETATM    6  C   UNL     1     -40.534  58.731 -52.075  1.00  0.00     0.053 C 
HETATM    7  C   UNL     1     -40.923  59.316 -53.421  1.00  0.00     0.237 C 
ENDROOT
BRANCH   1   8
HETATM    8  C   UNL     1     -42.631  60.596 -54.751  1.00  0.00     0.337 C 
BRANCH   8   9
HETATM    9  C   UNL     1     -42.294  59.692 -55.944  1.00  0.00     0.243 C 
HETATM   10  N   UNL     1     -42.970  58.496 -56.013  1.00  0.00    -0.355 N 
HETATM   11  H   UNL     1     -43.921  58.468 -55.658  1.00  0.00     0.162 HD
HETATM   12  O   UNL     1     -41.486  60.058 -56.795  1.00  0.00    -0.272 OA
BRANCH  10  13
HETATM   13  C   UNL     1     -42.773  57.626 -57.157  1.00  0.00     0.169 C 
BRANCH  13  14
HETATM   14  C   UNL     1     -44.037  57.442 -57.957  1.00  0.00     0.006 A 
HETATM   15  C   UNL     1     -44.211  56.618 -59.065  1.00  0.00    -0.047 A 
HETATM   16  C   UNL     1     -43.160  55.732 -59.655  1.00  0.00     0.049 C 
HETATM   17  C   UNL     1     -45.537  56.729 -59.600  1.00  0.00     0.015 A 
HETATM   18  C   UNL     1     -46.319  57.615 -58.901  1.00  0.00     0.051 A 
HETATM   19  S   UNL     1     -45.474  58.321 -57.606  1.00  0.00    -0.104 SA
ENDBRANCH  13  14
ENDBRANCH  10  13
ENDBRANCH   8   9
ENDBRANCH   1   8
BRANCH   5  20
HETATM   20  N   UNL     1     -41.849  56.608 -51.747  1.00  0.00    -0.338 N 
HETATM   21  C   UNL     1     -42.861  55.784 -51.379  1.00  0.00     0.321 C 
HETATM   22  N   UNL     1     -42.884  54.525 -51.876  1.00  0.00    -0.309 N 
HETATM   23  O   UNL     1     -43.783  56.161 -50.661  1.00  0.00    -0.247 OA
HETATM   24  H   UNL     1     -43.782  54.077 -51.720  1.00  0.00     0.170 HD
HETATM   25  H   UNL     1     -41.423  56.342 -52.628  1.00  0.00     0.164 HD
BRANCH  22  26
HETATM   26  C   UNL     1     -41.905  53.711 -52.476  1.00  0.00     0.036 A 
HETATM   27  C   UNL     1     -41.789  53.496 -53.850  1.00  0.00     0.029 A 
HETATM   28  C   UNL     1     -40.767  52.683 -54.354  1.00  0.00     0.002 A 
HETATM   29  C   UNL     1     -39.846  52.095 -53.489  1.00  0.00     0.000 A 
HETATM   30  C   UNL     1     -39.935  52.329 -52.121  1.00  0.00     0.002 A 
HETATM   31  C   UNL     1     -40.955  53.139 -51.618  1.00  0.00     0.029 A 
ENDBRANCH  22  26
ENDBRANCH   5  20
TORSDOF 6
ENDMDL
MODEL 7
REMARK VINA RESULT:      -7.1      3.004      7.508
REMARK  6 active torsions:
REMARK  status: ('A' for Active; 'I' for Inactive)
REMARK    1  A    between atoms: C_3  and  C_4 
REMARK    2  A    between atoms: C_4  and  N_5 
REMARK       I    between atoms: N_5  and  C_6 
REMARK    3  A    between atoms: C_6  and  C_7 
REMARK    4  A    between atoms: C_7  and  N_8 
REMARK    5  A    between atoms: C_12  and  N_13 
REMARK       I    between atoms: N_13  and  C_14 
REMARK       I    between atoms: C_14  and  N_15 
REMARK    6  A    between atoms: N_15  and  C_16 
ROOT
HETATM    1  N   UNL     1     -43.004  56.562 -50.583  1.00  0.00    -0.063 N 
HETATM    2  H   UNL     1     -43.183  56.860 -49.617  1.00  0.00     0.280 HD
HETATM    3  C   UNL     1     -41.663  57.155 -50.955  1.00  0.00     0.237 C 
HETATM    4  C   UNL     1     -41.736  58.666 -51.078  1.00  0.00     0.053 C 
HETATM    5  C   UNL     1     -42.887  59.178 -51.945  1.00  0.00     0.089 C 
HETATM    6  C   UNL     1     -44.215  58.543 -51.535  1.00  0.00     0.053 C 
HETATM    7  C   UNL     1     -44.186  57.032 -51.388  1.00  0.00     0.237 C 
ENDROOT
BRANCH   1   8
HETATM    8  C   UNL     1     -42.953  55.019 -50.518  1.00  0.00     0.337 C 
BRANCH   8   9
HETATM    9  C   UNL     1     -42.345  54.300 -51.729  1.00  0.00     0.243 C 
HETATM   10  N   UNL     1     -41.021  53.944 -51.625  1.00  0.00    -0.355 N 
HETATM   11  H   UNL     1     -40.667  53.695 -50.706  1.00  0.00     0.162 HD
HETATM   12  O   UNL     1     -43.037  54.038 -52.710  1.00  0.00    -0.272 OA
BRANCH  10  13
HETATM   13  C   UNL     1     -40.397  53.183 -52.691  1.00  0.00     0.169 C 
BRANCH  13  14
HETATM   14  C   UNL     1     -40.056  51.778 -52.263  1.00  0.00     0.006 A 
HETATM   15  C   UNL     1     -39.790  50.694 -53.093  1.00  0.00    -0.047 A 
HETATM   16  C   UNL     1     -39.769  50.737 -54.589  1.00  0.00     0.049 C 
HETATM   17  C   UNL     1     -39.548  49.499 -52.338  1.00  0.00     0.015 A 
HETATM   18  C   UNL     1     -39.636  49.701 -50.982  1.00  0.00     0.051 A 
HETATM   19  S   UNL     1     -40.010  51.317 -50.606  1.00  0.00    -0.104 SA
ENDBRANCH  13  14
ENDBRANCH  10  13
ENDBRANCH   8   9
ENDBRANCH   1   8
BRANCH   5  20
HETATM   20  N   UNL     1     -42.624  59.168 -53.385  1.00  0.00    -0.338 N 
HETATM   21  C   UNL     1     -42.442  60.246 -54.187  1.00  0.00     0.321 C 
HETATM   22  N   UNL     1     -42.189  60.040 -55.501  1.00  0.00    -0.309 N 
HETATM   23  O   UNL     1     -42.443  61.394 -53.751  1.00  0.00    -0.247 OA
HETATM   24  H   UNL     1     -41.854  60.884 -55.955  1.00  0.00     0.170 HD
HETATM   25  H   UNL     1     -42.191  58.327 -53.750  1.00  0.00     0.164 HD
BRANCH  22  26
HETATM   26  C   UNL     1     -42.372  58.935 -56.353  1.00  0.00     0.036 A 
HETATM   27  C   UNL     1     -42.934  57.718 -55.962  1.00  0.00     0.029 A 
HETATM   28  C   UNL     1     -43.091  56.683 -56.890  1.00  0.00     0.002 A 
HETATM   29  C   UNL     1     -42.705  56.863 -58.217  1.00  0.00     0.000 A 
HETATM   30  C   UNL     1     -42.173  58.082 -58.623  1.00  0.00     0.002 A 
HETATM   31  C   UNL     1     -42.015  59.115 -57.697  1.00  0.00     0.029 A 
ENDBRANCH  22  26
ENDBRANCH   5  20
TORSDOF 6
ENDMDL
MODEL 8
REMARK VINA RESULT:      -7.1      3.153      9.249
REMARK  6 active torsions:
REMARK  status: ('A' for Active; 'I' for Inactive)
REMARK    1  A    between atoms: C_3  and  C_4 
REMARK    2  A    between atoms: C_4  and  N_5 
REMARK       I    between atoms: N_5  and  C_6 
REMARK    3  A    between atoms: C_6  and  C_7 
REMARK    4  A    between atoms: C_7  and  N_8 
REMARK    5  A    between atoms: C_12  and  N_13 
REMARK       I    between atoms: N_13  and  C_14 
REMARK       I    between atoms: C_14  and  N_15 
REMARK    6  A    between atoms: N_15  and  C_16 
ROOT
HETATM    1  N   UNL     1     -42.431  57.295 -55.843  1.00  0.00    -0.063 N 
HETATM    2  H   UNL     1     -41.434  57.070 -55.736  1.00  0.00     0.280 HD
HETATM    3  C   UNL     1     -43.141  55.966 -55.982  1.00  0.00     0.237 C 
HETATM    4  C   UNL     1     -42.806  55.290 -57.298  1.00  0.00     0.053 C 
HETATM    5  C   UNL     1     -42.952  56.186 -58.528  1.00  0.00     0.089 C 
HETATM    6  C   UNL     1     -42.226  57.517 -58.334  1.00  0.00     0.053 C 
HETATM    7  C   UNL     1     -42.521  58.225 -57.024  1.00  0.00     0.237 C 
ENDROOT
BRANCH   1   8
HETATM    8  C   UNL     1     -42.815  58.020 -54.534  1.00  0.00     0.337 C 
BRANCH   8   9
HETATM    9  C   UNL     1     -42.827  57.170 -53.257  1.00  0.00     0.243 C 
HETATM   10  N   UNL     1     -41.625  56.620 -52.879  1.00  0.00    -0.355 N 
HETATM   11  H   UNL     1     -40.779  57.141 -53.086  1.00  0.00     0.162 HD
HETATM   12  O   UNL     1     -43.863  57.036 -52.608  1.00  0.00    -0.272 OA
BRANCH  10  13
HETATM   13  C   UNL     1     -41.536  55.878 -51.636  1.00  0.00     0.169 C 
BRANCH  13  14
HETATM   14  C   UNL     1     -40.942  54.507 -51.832  1.00  0.00     0.006 A 
HETATM   15  C   UNL     1     -40.158  53.798 -50.927  1.00  0.00    -0.047 A 
HETATM   16  C   UNL     1     -39.780  54.271 -49.558  1.00  0.00     0.049 C 
HETATM   17  C   UNL     1     -39.730  52.542 -51.471  1.00  0.00     0.015 A 
HETATM   18  C   UNL     1     -40.189  52.333 -52.748  1.00  0.00     0.051 A 
HETATM   19  S   UNL     1     -41.129  53.636 -53.305  1.00  0.00    -0.104 SA
ENDBRANCH  13  14
ENDBRANCH  10  13
ENDBRANCH   8   9
ENDBRANCH   1   8
BRANCH   5  20
HETATM   20  N   UNL     1     -44.317  56.305 -59.044  1.00  0.00    -0.338 N 
HETATM   21  C   UNL     1     -45.087  55.309 -59.548  1.00  0.00     0.321 C 
HETATM   22  N   UNL     1     -46.340  55.606 -59.963  1.00  0.00    -0.309 N 
HETATM   23  O   UNL     1     -44.705  54.142 -59.585  1.00  0.00    -0.247 OA
HETATM   24  H   UNL     1     -46.895  54.768 -60.109  1.00  0.00     0.170 HD
HETATM   25  H   UNL     1     -44.861  57.080 -58.682  1.00  0.00     0.164 HD
BRANCH  22  26
HETATM   26  C   UNL     1     -46.979  56.813 -60.300  1.00  0.00     0.036 A 
HETATM   27  C   UNL     1     -46.921  57.981 -59.537  1.00  0.00     0.029 A 
HETATM   28  C   UNL     1     -47.577  59.140 -59.968  1.00  0.00     0.002 A 
HETATM   29  C   UNL     1     -48.278  59.145 -61.171  1.00  0.00     0.000 A 
HETATM   30  C   UNL     1     -48.316  57.996 -61.954  1.00  0.00     0.002 A 
HETATM   31  C   UNL     1     -47.663  56.839 -61.524  1.00  0.00     0.029 A 
ENDBRANCH  22  26
ENDBRANCH   5  20
TORSDOF 6
ENDMDL
MODEL 9
REMARK VINA RESULT:      -6.9      4.280      6.906
REMARK  6 active torsions:
REMARK  status: ('A' for Active; 'I' for Inactive)
REMARK    1  A    between atoms: C_3  and  C_4 
REMARK    2  A    between atoms: C_4  and  N_5 
REMARK       I    between atoms: N_5  and  C_6 
REMARK    3  A    between atoms: C_6  and  C_7 
REMARK    4  A    between atoms: C_7  and  N_8 
REMARK    5  A    between atoms: C_12  and  N_13 
REMARK       I    between atoms: N_13  and  C_14 
REMARK       I    between atoms: C_14  and  N_15 
REMARK    6  A    between atoms: N_15  and  C_16 
ROOT
HETATM    1  N   UNL     1     -42.559  57.432 -51.702  1.00  0.00    -0.063 N 
HETATM    2  H   UNL     1     -43.473  57.900 -51.721  1.00  0.00     0.280 HD
HETATM    3  C   UNL     1     -42.120  57.326 -53.145  1.00  0.00     0.237 C 
HETATM    4  C   UNL     1     -42.983  56.346 -53.919  1.00  0.00     0.053 C 
HETATM    5  C   UNL     1     -43.168  54.989 -53.240  1.00  0.00     0.089 C 
HETATM    6  C   UNL     1     -43.601  55.152 -51.785  1.00  0.00     0.053 C 
HETATM    7  C   UNL     1     -42.774  56.133 -50.973  1.00  0.00     0.237 C 
ENDROOT
BRANCH   1   8
HETATM    8  C   UNL     1     -41.647  58.380 -50.890  1.00  0.00     0.337 C 
BRANCH   8   9
HETATM    9  C   UNL     1     -42.027  59.866 -50.892  1.00  0.00     0.243 C 
HETATM   10  N   UNL     1     -43.270  60.177 -51.391  1.00  0.00    -0.355 N 
HETATM   11  H   UNL     1     -44.018  59.503 -51.257  1.00  0.00     0.162 HD
HETATM   12  O   UNL     1     -41.257  60.707 -50.433  1.00  0.00    -0.272 OA
BRANCH  10  13
HETATM   13  C   UNL     1     -43.739  61.549 -51.345  1.00  0.00     0.169 C 
BRANCH  13  14
HETATM   14  C   UNL     1     -44.336  61.903 -50.007  1.00  0.00     0.006 A 
HETATM   15  C   UNL     1     -44.044  63.021 -49.231  1.00  0.00    -0.047 A 
HETATM   16  C   UNL     1     -43.085  64.105 -49.608  1.00  0.00     0.049 C 
HETATM   17  C   UNL     1     -44.770  63.007 -47.995  1.00  0.00     0.015 A 
HETATM   18  C   UNL     1     -45.577  61.904 -47.864  1.00  0.00     0.051 A 
HETATM   19  S   UNL     1     -45.469  60.877 -49.216  1.00  0.00    -0.104 SA
ENDBRANCH  13  14
ENDBRANCH  10  13
ENDBRANCH   8   9
ENDBRANCH   1   8
BRANCH   5  20
HETATM   20  N   UNL     1     -42.070  54.042 -53.449  1.00  0.00    -0.338 N 
HETATM   21  C   UNL     1     -41.292  53.928 -54.553  1.00  0.00     0.321 C 
HETATM   22  N   UNL     1     -40.307  53.000 -54.557  1.00  0.00    -0.309 N 
HETATM   23  O   UNL     1     -41.415  54.675 -55.520  1.00  0.00    -0.247 OA
HETATM   24  H   UNL     1     -39.656  53.147 -55.323  1.00  0.00     0.170 HD
HETATM   25  H   UNL     1     -41.619  53.696 -52.610  1.00  0.00     0.164 HD
BRANCH  22  26
HETATM   26  C   UNL     1     -40.062  51.855 -53.776  1.00  0.00     0.036 A 
HETATM   27  C   UNL     1     -40.000  50.553 -54.276  1.00  0.00     0.029 A 
HETATM   28  C   UNL     1     -39.731  49.480 -53.420  1.00  0.00     0.002 A 
HETATM   29  C   UNL     1     -39.505  49.702 -52.063  1.00  0.00     0.000 A 
HETATM   30  C   UNL     1     -39.534  50.999 -51.561  1.00  0.00     0.002 A 
HETATM   31  C   UNL     1     -39.803  52.070 -52.415  1.00  0.00     0.029 A 
ENDBRANCH  22  26
ENDBRANCH   5  20
TORSDOF 6
ENDMDL
MODEL 10
REMARK VINA RESULT:      -6.8      3.717     10.008
REMARK  6 active torsions:
REMARK  status: ('A' for Active; 'I' for Inactive)
REMARK    1  A    between atoms: C_3  and  C_4 
REMARK    2  A    between atoms: C_4  and  N_5 
REMARK       I    between atoms: N_5  and  C_6 
REMARK    3  A    between atoms: C_6  and  C_7 
REMARK    4  A    between atoms: C_7  and  N_8 
REMARK    5  A    between atoms: C_12  and  N_13 
REMARK       I    between atoms: N_13  and  C_14 
REMARK       I    between atoms: C_14  and  N_15 
REMARK    6  A    between atoms: N_15  and  C_16 
ROOT
HETATM    1  N   UNL     1     -42.231  56.765 -57.406  1.00  0.00    -0.063 N 
HETATM    2  H   UNL     1     -41.260  56.459 -57.549  1.00  0.00     0.280 HD
HETATM    3  C   UNL     1     -43.095  55.582 -57.785  1.00  0.00     0.237 C 
HETATM    4  C   UNL     1     -43.045  55.310 -59.277  1.00  0.00     0.053 C 
HETATM    5  C   UNL     1     -43.281  56.539 -60.155  1.00  0.00     0.089 C 
HETATM    6  C   UNL     1     -42.392  57.706 -59.727  1.00  0.00     0.053 C 
HETATM    7  C   UNL     1     -42.401  58.008 -58.238  1.00  0.00     0.237 C 
ENDROOT
BRANCH   1   8
HETATM    8  C   UNL     1     -42.325  57.088 -55.898  1.00  0.00     0.337 C 
BRANCH   8   9
HETATM    9  C   UNL     1     -41.976  55.951 -54.929  1.00  0.00     0.243 C 
HETATM   10  N   UNL     1     -42.972  55.559 -54.066  1.00  0.00    -0.355 N 
HETATM   11  H   UNL     1     -43.933  55.620 -54.391  1.00  0.00     0.162 HD
HETATM   12  O   UNL     1     -40.871  55.415 -54.969  1.00  0.00    -0.272 OA
BRANCH  10  13
HETATM   13  C   UNL     1     -42.751  54.432 -53.180  1.00  0.00     0.169 C 
BRANCH  13  14
HETATM   14  C   UNL     1     -42.049  54.835 -51.909  1.00  0.00     0.006 A 
HETATM   15  C   UNL     1     -40.927  54.234 -51.348  1.00  0.00    -0.047 A 
HETATM   16  C   UNL     1     -40.186  53.073 -51.933  1.00  0.00     0.049 C 
HETATM   17  C   UNL     1     -40.561  54.856 -50.108  1.00  0.00     0.015 A 
HETATM   18  C   UNL     1     -41.396  55.891 -49.766  1.00  0.00     0.051 A 
HETATM   19  S   UNL     1     -42.623  56.122 -50.921  1.00  0.00    -0.104 SA
ENDBRANCH  13  14
ENDBRANCH  10  13
ENDBRANCH   8   9
ENDBRANCH   1   8
BRANCH   5  20
HETATM   20  N   UNL     1     -44.688  56.887 -60.361  1.00  0.00    -0.338 N 
HETATM   21  C   UNL     1     -45.610  56.175 -61.054  1.00  0.00     0.321 C 
HETATM   22  N   UNL     1     -46.876  56.647 -61.122  1.00  0.00    -0.309 N 
HETATM   23  O   UNL     1     -45.347  55.091 -61.570  1.00  0.00    -0.247 OA
HETATM   24  H   UNL     1     -47.522  55.942 -61.465  1.00  0.00     0.170 HD
HETATM   25  H   UNL     1     -45.102  57.492 -59.661  1.00  0.00     0.164 HD
BRANCH  22  26
HETATM   26  C   UNL     1     -47.442  57.916 -60.893  1.00  0.00     0.036 A 
HETATM   27  C   UNL     1     -47.266  58.663 -59.727  1.00  0.00     0.029 A 
HETATM   28  C   UNL     1     -47.856  59.926 -59.602  1.00  0.00     0.002 A 
HETATM   29  C   UNL     1     -48.608  60.457 -60.647  1.00  0.00     0.000 A 
HETATM   30  C   UNL     1     -48.763  59.734 -61.825  1.00  0.00     0.002 A 
HETATM   31  C   UNL     1     -48.176  58.473 -61.950  1.00  0.00     0.029 A 
ENDBRANCH  22  26
ENDBRANCH   5  20
TORSDOF 6
ENDMDL
