MODEL 1
REMARK VINA RESULT:      -7.8      0.000      0.000
REMARK  5 active torsions:
REMARK  status: ('A' for Active; 'I' for Inactive)
REMARK    1  A    between atoms: C_2  and  N_3 
REMARK    2  A    between atoms: C_2  and  C_21 
REMARK       I    between atoms: N_3  and  C_5 
REMARK       I    between atoms: C_5  and  N_6 
REMARK    3  A    between atoms: N_6  and  C_7 
REMARK    4  A    between atoms: C_7  and  C_8 
REMARK    5  A    between atoms: C_10  and  C_11 
ROOT
HETATM    1  N   UNL     1     -43.328  56.950 -53.201  1.00  0.00    -0.218 N 
HETATM    2  H   UNL     1     -44.255  57.284 -53.412  1.00  0.00     0.178 HD
HETATM    3  C   UNL     1     -42.860  57.163 -51.946  1.00  0.00     0.670 C 
HETATM    4  N   UNL     1     -41.573  56.882 -51.642  1.00  0.00    -0.221 N 
HETATM    5  N   UNL     1     -43.693  57.685 -51.004  1.00  0.00    -0.231 N 
HETATM    6  C   UNL     1     -45.096  58.025 -51.226  1.00  0.00     0.165 C 
HETATM    7  H   UNL     1     -40.944  56.713 -52.414  1.00  0.00     0.178 HD
HETATM    8  H   UNL     1     -43.327  57.824 -50.075  1.00  0.00     0.177 HD
ENDROOT
BRANCH   4   9
HETATM    9  C   UNL     1     -41.044  56.634 -50.299  1.00  0.00     0.199 C 
BRANCH   9  10
HETATM   10  C   UNL     1     -40.749  55.184 -50.190  1.00  0.00     0.077 A 
HETATM   11  N   UNL     1     -40.702  54.377 -51.316  1.00  0.00    -0.225 NA
HETATM   12  C   UNL     1     -40.322  53.198 -50.851  1.00  0.00     0.179 A 
HETATM   13  O   UNL     1     -40.162  53.167 -49.491  1.00  0.00    -0.301 OA
HETATM   14  C   UNL     1     -40.439  54.436 -49.081  1.00  0.00     0.173 A 
BRANCH  12  15
HETATM   15  C   UNL     1     -40.027  51.969 -51.583  1.00  0.00     0.017 A 
HETATM   16  C   UNL     1     -39.859  50.765 -50.880  1.00  0.00     0.016 A 
HETATM   17  C   UNL     1     -39.603  49.570 -51.557  1.00  0.00     0.001 A 
HETATM   18  C   UNL     1     -39.514  49.563 -52.946  1.00  0.00     0.000 A 
HETATM   19  C   UNL     1     -39.676  50.749 -53.660  1.00  0.00     0.001 A 
HETATM   20  C   UNL     1     -39.930  51.945 -52.982  1.00  0.00     0.016 A 
ENDBRANCH  12  15
ENDBRANCH   9  10
ENDBRANCH   4   9
BRANCH   1  21
HETATM   21  C   UNL     1     -42.678  56.087 -54.204  1.00  0.00     0.135 C 
HETATM   22  C   UNL     1     -43.111  54.636 -54.014  1.00  0.00     0.038 C 
BRANCH  21  23
HETATM   23  C   UNL     1     -42.978  56.573 -55.594  1.00  0.00     0.005 A 
HETATM   24  S   UNL     1     -43.446  58.195 -55.901  1.00  0.00    -0.104 SA
HETATM   25  C   UNL     1     -43.588  57.908 -57.578  1.00  0.00     0.050 A 
HETATM   26  C   UNL     1     -43.286  56.607 -57.907  1.00  0.00     0.008 A 
HETATM   27  C   UNL     1     -42.936  55.834 -56.764  1.00  0.00     0.017 A 
ENDBRANCH  21  23
ENDBRANCH   1  21
TORSDOF 5
ENDMDL
MODEL 2
REMARK VINA RESULT:      -7.8      1.527      2.121
REMARK  5 active torsions:
REMARK  status: ('A' for Active; 'I' for Inactive)
REMARK    1  A    between atoms: C_2  and  N_3 
REMARK    2  A    between atoms: C_2  and  C_21 
REMARK       I    between atoms: N_3  and  C_5 
REMARK       I    between atoms: C_5  and  N_6 
REMARK    3  A    between atoms: N_6  and  C_7 
REMARK    4  A    between atoms: C_7  and  C_8 
REMARK    5  A    between atoms: C_10  and  C_11 
ROOT
HETATM    1  N   UNL     1     -42.823  58.162 -52.093  1.00  0.00    -0.218 N 
HETATM    2  H   UNL     1     -42.862  59.148 -52.299  1.00  0.00     0.178 HD
HETATM    3  C   UNL     1     -41.985  57.764 -51.103  1.00  0.00     0.670 C 
HETATM    4  N   UNL     1     -41.769  56.449 -50.881  1.00  0.00    -0.221 N 
HETATM    5  N   UNL     1     -41.349  58.705 -50.352  1.00  0.00    -0.231 N 
HETATM    6  C   UNL     1     -41.509  60.148 -50.509  1.00  0.00     0.165 C 
HETATM    7  H   UNL     1     -42.081  55.804 -51.593  1.00  0.00     0.178 HD
HETATM    8  H   UNL     1     -40.739  58.386 -49.614  1.00  0.00     0.177 HD
ENDROOT
BRANCH   4   9
HETATM    9  C   UNL     1     -41.279  55.860 -49.633  1.00  0.00     0.199 C 
BRANCH   9  10
HETATM   10  C   UNL     1     -40.920  54.447 -49.911  1.00  0.00     0.077 A 
HETATM   11  N   UNL     1     -40.873  53.962 -51.209  1.00  0.00    -0.225 NA
HETATM   12  C   UNL     1     -40.431  52.723 -51.074  1.00  0.00     0.179 A 
HETATM   13  O   UNL     1     -40.228  52.349 -49.772  1.00  0.00    -0.301 OA
HETATM   14  C   UNL     1     -40.545  53.452 -49.041  1.00  0.00     0.173 A 
BRANCH  12  15
HETATM   15  C   UNL     1     -40.106  51.742 -52.105  1.00  0.00     0.017 A 
HETATM   16  C   UNL     1     -39.706  50.448 -51.734  1.00  0.00     0.016 A 
HETATM   17  C   UNL     1     -39.416  49.481 -52.700  1.00  0.00     0.001 A 
HETATM   18  C   UNL     1     -39.526  49.795 -54.052  1.00  0.00     0.000 A 
HETATM   19  C   UNL     1     -39.921  51.074 -54.440  1.00  0.00     0.001 A 
HETATM   20  C   UNL     1     -40.208  52.042 -53.472  1.00  0.00     0.016 A 
ENDBRANCH  12  15
ENDBRANCH   9  10
ENDBRANCH   4   9
BRANCH   1  21
HETATM   21  C   UNL     1     -43.830  57.299 -52.738  1.00  0.00     0.135 C 
HETATM   22  C   UNL     1     -44.886  58.150 -53.437  1.00  0.00     0.038 C 
BRANCH  21  23
HETATM   23  C   UNL     1     -43.173  56.344 -53.693  1.00  0.00     0.005 A 
HETATM   24  S   UNL     1     -41.976  56.863 -54.808  1.00  0.00    -0.104 SA
HETATM   25  C   UNL     1     -41.796  55.291 -55.451  1.00  0.00     0.050 A 
HETATM   26  C   UNL     1     -42.625  54.383 -54.835  1.00  0.00     0.008 A 
HETATM   27  C   UNL     1     -43.422  54.988 -53.822  1.00  0.00     0.017 A 
ENDBRANCH  21  23
ENDBRANCH   1  21
TORSDOF 5
ENDMDL
MODEL 3
REMARK VINA RESULT:      -7.4      1.690      2.037
REMARK  5 active torsions:
REMARK  status: ('A' for Active; 'I' for Inactive)
REMARK    1  A    between atoms: C_2  and  N_3 
REMARK    2  A    between atoms: C_2  and  C_21 
REMARK       I    between atoms: N_3  and  C_5 
REMARK       I    between atoms: C_5  and  N_6 
REMARK    3  A    between atoms: N_6  and  C_7 
REMARK    4  A    between atoms: C_7  and  C_8 
REMARK    5  A    between atoms: C_10  and  C_11 
ROOT
HETATM    1  N   UNL     1     -43.222  57.735 -55.472  1.00  0.00    -0.218 N 
HETATM    2  H   UNL     1     -44.004  58.152 -55.953  1.00  0.00     0.178 HD
HETATM    3  C   UNL     1     -43.001  58.122 -54.190  1.00  0.00     0.670 C 
HETATM    4  N   UNL     1     -41.885  57.723 -53.541  1.00  0.00    -0.221 N 
HETATM    5  N   UNL     1     -43.904  58.935 -53.575  1.00  0.00    -0.231 N 
HETATM    6  C   UNL     1     -45.139  59.424 -54.184  1.00  0.00     0.165 C 
HETATM    7  H   UNL     1     -41.149  57.316 -54.099  1.00  0.00     0.178 HD
HETATM    8  H   UNL     1     -43.726  59.201 -52.619  1.00  0.00     0.177 HD
ENDROOT
BRANCH   4   9
HETATM    9  C   UNL     1     -41.712  57.672 -52.087  1.00  0.00     0.199 C 
BRANCH   9  10
HETATM   10  C   UNL     1     -41.333  56.283 -51.727  1.00  0.00     0.077 A 
HETATM   11  N   UNL     1     -41.217  55.298 -52.695  1.00  0.00    -0.225 NA
HETATM   12  C   UNL     1     -40.778  54.243 -52.031  1.00  0.00     0.179 A 
HETATM   13  O   UNL     1     -40.643  54.457 -50.684  1.00  0.00    -0.301 OA
HETATM   14  C   UNL     1     -41.002  55.757 -50.502  1.00  0.00     0.173 A 
BRANCH  12  15
HETATM   15  C   UNL     1     -40.397  52.927 -52.535  1.00  0.00     0.017 A 
HETATM   16  C   UNL     1     -39.811  51.991 -51.667  1.00  0.00     0.016 A 
HETATM   17  C   UNL     1     -39.461  50.716 -52.117  1.00  0.00     0.001 A 
HETATM   18  C   UNL     1     -39.696  50.357 -53.442  1.00  0.00     0.000 A 
HETATM   19  C   UNL     1     -40.276  51.272 -54.318  1.00  0.00     0.001 A 
HETATM   20  C   UNL     1     -40.623  52.550 -53.867  1.00  0.00     0.016 A 
ENDBRANCH  12  15
ENDBRANCH   9  10
ENDBRANCH   4   9
BRANCH   1  21
HETATM   21  C   UNL     1     -42.545  56.606 -56.136  1.00  0.00     0.135 C 
HETATM   22  C   UNL     1     -43.098  55.281 -55.620  1.00  0.00     0.038 C 
BRANCH  21  23
HETATM   23  C   UNL     1     -42.679  56.714 -57.628  1.00  0.00     0.005 A 
HETATM   24  S   UNL     1     -42.171  58.113 -58.481  1.00  0.00    -0.104 SA
HETATM   25  C   UNL     1     -42.652  57.456 -59.982  1.00  0.00     0.050 A 
HETATM   26  C   UNL     1     -43.188  56.197 -59.847  1.00  0.00     0.008 A 
HETATM   27  C   UNL     1     -43.207  55.767 -58.490  1.00  0.00     0.017 A 
ENDBRANCH  21  23
ENDBRANCH   1  21
TORSDOF 5
ENDMDL
MODEL 4
REMARK VINA RESULT:      -7.2      3.027      7.102
REMARK  5 active torsions:
REMARK  status: ('A' for Active; 'I' for Inactive)
REMARK    1  A    between atoms: C_2  and  N_3 
REMARK    2  A    between atoms: C_2  and  C_21 
REMARK       I    between atoms: N_3  and  C_5 
REMARK       I    between atoms: C_5  and  N_6 
REMARK    3  A    between atoms: N_6  and  C_7 
REMARK    4  A    between atoms: C_7  and  C_8 
REMARK    5  A    between atoms: C_10  and  C_11 
ROOT
HETATM    1  N   UNL     1     -41.334  55.346 -52.373  1.00  0.00    -0.218 N 
HETATM    2  H   UNL     1     -40.520  55.426 -51.784  1.00  0.00     0.178 HD
HETATM    3  C   UNL     1     -42.363  56.197 -52.131  1.00  0.00     0.670 C 
HETATM    4  N   UNL     1     -43.540  56.043 -52.778  1.00  0.00    -0.221 N 
HETATM    5  N   UNL     1     -42.204  57.192 -51.215  1.00  0.00    -0.231 N 
HETATM    6  C   UNL     1     -40.978  57.445 -50.462  1.00  0.00     0.165 C 
HETATM    7  H   UNL     1     -43.685  55.173 -53.270  1.00  0.00     0.178 HD
HETATM    8  H   UNL     1     -42.978  57.819 -51.060  1.00  0.00     0.177 HD
ENDROOT
BRANCH   4   9
HETATM    9  C   UNL     1     -44.555  57.082 -52.970  1.00  0.00     0.199 C 
BRANCH   9  10
HETATM   10  C   UNL     1     -44.447  57.564 -54.370  1.00  0.00     0.077 A 
HETATM   11  N   UNL     1     -43.522  57.018 -55.245  1.00  0.00    -0.225 NA
HETATM   12  C   UNL     1     -43.781  57.612 -56.399  1.00  0.00     0.179 A 
HETATM   13  O   UNL     1     -44.785  58.542 -56.326  1.00  0.00    -0.301 OA
HETATM   14  C   UNL     1     -45.199  58.505 -55.030  1.00  0.00     0.173 A 
BRANCH  12  15
HETATM   15  C   UNL     1     -43.179  57.386 -57.709  1.00  0.00     0.017 A 
HETATM   16  C   UNL     1     -43.331  56.140 -58.340  1.00  0.00     0.016 A 
HETATM   17  C   UNL     1     -42.788  55.906 -59.606  1.00  0.00     0.001 A 
HETATM   18  C   UNL     1     -42.089  56.916 -60.260  1.00  0.00     0.000 A 
HETATM   19  C   UNL     1     -41.927  58.159 -59.649  1.00  0.00     0.001 A 
HETATM   20  C   UNL     1     -42.468  58.391 -58.381  1.00  0.00     0.016 A 
ENDBRANCH  12  15
ENDBRANCH   9  10
ENDBRANCH   4   9
BRANCH   1  21
HETATM   21  C   UNL     1     -41.229  54.470 -53.553  1.00  0.00     0.135 C 
HETATM   22  C   UNL     1     -40.485  55.184 -54.678  1.00  0.00     0.038 C 
BRANCH  21  23
HETATM   23  C   UNL     1     -40.564  53.173 -53.192  1.00  0.00     0.005 A 
HETATM   24  S   UNL     1     -40.119  52.807 -51.575  1.00  0.00    -0.104 SA
HETATM   25  C   UNL     1     -39.477  51.289 -52.023  1.00  0.00     0.050 A 
HETATM   26  C   UNL     1     -39.595  51.057 -53.374  1.00  0.00     0.008 A 
HETATM   27  C   UNL     1     -40.220  52.143 -54.050  1.00  0.00     0.017 A 
ENDBRANCH  21  23
ENDBRANCH   1  21
TORSDOF 5
ENDMDL
MODEL 5
REMARK VINA RESULT:      -7.2      3.567      5.386
REMARK  5 active torsions:
REMARK  status: ('A' for Active; 'I' for Inactive)
REMARK    1  A    between atoms: C_2  and  N_3 
REMARK    2  A    between atoms: C_2  and  C_21 
REMARK       I    between atoms: N_3  and  C_5 
REMARK       I    between atoms: C_5  and  N_6 
REMARK    3  A    between atoms: N_6  and  C_7 
REMARK    4  A    between atoms: C_7  and  C_8 
REMARK    5  A    between atoms: C_10  and  C_11 
ROOT
HETATM    1  N   UNL     1     -44.472  57.126 -59.138  1.00  0.00    -0.218 N 
HETATM    2  H   UNL     1     -44.241  57.155 -60.118  1.00  0.00     0.178 HD
HETATM    3  C   UNL     1     -43.445  57.022 -58.258  1.00  0.00     0.670 C 
HETATM    4  N   UNL     1     -43.690  56.823 -56.944  1.00  0.00    -0.221 N 
HETATM    5  N   UNL     1     -42.165  57.098 -58.717  1.00  0.00    -0.231 N 
HETATM    6  C   UNL     1     -41.789  57.310 -60.113  1.00  0.00     0.165 C 
HETATM    7  H   UNL     1     -44.629  56.552 -56.687  1.00  0.00     0.178 HD
HETATM    8  H   UNL     1     -41.417  57.029 -58.044  1.00  0.00     0.177 HD
ENDROOT
BRANCH   4   9
HETATM    9  C   UNL     1     -42.771  57.124 -55.845  1.00  0.00     0.199 C 
BRANCH   9  10
HETATM   10  C   UNL     1     -42.708  55.927 -54.968  1.00  0.00     0.077 A 
HETATM   11  N   UNL     1     -41.562  55.152 -54.896  1.00  0.00    -0.225 NA
HETATM   12  C   UNL     1     -41.837  54.257 -53.963  1.00  0.00     0.179 A 
HETATM   13  O   UNL     1     -43.104  54.365 -53.452  1.00  0.00    -0.301 OA
HETATM   14  C   UNL     1     -43.650  55.429 -54.101  1.00  0.00     0.173 A 
BRANCH  12  15
HETATM   15  C   UNL     1     -40.980  53.219 -53.397  1.00  0.00     0.017 A 
HETATM   16  C   UNL     1     -40.717  53.209 -52.018  1.00  0.00     0.016 A 
HETATM   17  C   UNL     1     -39.922  52.212 -51.446  1.00  0.00     0.001 A 
HETATM   18  C   UNL     1     -39.382  51.209 -52.247  1.00  0.00     0.000 A 
HETATM   19  C   UNL     1     -39.632  51.203 -53.618  1.00  0.00     0.001 A 
HETATM   20  C   UNL     1     -40.425  52.203 -54.189  1.00  0.00     0.016 A 
ENDBRANCH  12  15
ENDBRANCH   9  10
ENDBRANCH   4   9
BRANCH   1  21
HETATM   21  C   UNL     1     -45.869  57.414 -58.766  1.00  0.00     0.135 C 
HETATM   22  C   UNL     1     -45.956  58.746 -58.024  1.00  0.00     0.038 C 
BRANCH  21  23
HETATM   23  C   UNL     1     -46.753  57.404 -59.981  1.00  0.00     0.005 A 
HETATM   24  S   UNL     1     -47.362  58.855 -60.665  1.00  0.00    -0.104 SA
HETATM   25  C   UNL     1     -48.201  58.007 -61.888  1.00  0.00     0.050 A 
HETATM   26  C   UNL     1     -48.025  56.647 -61.785  1.00  0.00     0.008 A 
HETATM   27  C   UNL     1     -47.193  56.297 -60.685  1.00  0.00     0.017 A 
ENDBRANCH  21  23
ENDBRANCH   1  21
TORSDOF 5
ENDMDL
MODEL 6
REMARK VINA RESULT:      -7.2      3.149      7.065
REMARK  5 active torsions:
REMARK  status: ('A' for Active; 'I' for Inactive)
REMARK    1  A    between atoms: C_2  and  N_3 
REMARK    2  A    between atoms: C_2  and  C_21 
REMARK       I    between atoms: N_3  and  C_5 
REMARK       I    between atoms: C_5  and  N_6 
REMARK    3  A    between atoms: N_6  and  C_7 
REMARK    4  A    between atoms: C_7  and  C_8 
REMARK    5  A    between atoms: C_10  and  C_11 
ROOT
HETATM    1  N   UNL     1     -41.740  53.785 -51.731  1.00  0.00    -0.218 N 
HETATM    2  H   UNL     1     -42.292  53.086 -51.260  1.00  0.00     0.178 HD
HETATM    3  C   UNL     1     -42.321  54.990 -51.956  1.00  0.00     0.670 C 
HETATM    4  N   UNL     1     -41.696  55.916 -52.716  1.00  0.00    -0.221 N 
HETATM    5  N   UNL     1     -43.549  55.246 -51.427  1.00  0.00    -0.231 N 
HETATM    6  C   UNL     1     -44.310  54.318 -50.594  1.00  0.00     0.165 C 
HETATM    7  H   UNL     1     -40.906  55.606 -53.264  1.00  0.00     0.178 HD
HETATM    8  H   UNL     1     -43.957  56.152 -51.598  1.00  0.00     0.177 HD
ENDROOT
BRANCH   4   9
HETATM    9  C   UNL     1     -41.952  57.358 -52.693  1.00  0.00     0.199 C 
BRANCH   9  10
HETATM   10  C   UNL     1     -42.037  57.824 -54.100  1.00  0.00     0.077 A 
HETATM   11  N   UNL     1     -42.133  56.923 -55.148  1.00  0.00    -0.225 NA
HETATM   12  C   UNL     1     -42.287  57.687 -56.217  1.00  0.00     0.179 A 
HETATM   13  O   UNL     1     -42.251  59.029 -55.944  1.00  0.00    -0.301 OA
HETATM   14  C   UNL     1     -42.088  59.105 -54.595  1.00  0.00     0.173 A 
BRANCH  12  15
HETATM   15  C   UNL     1     -42.517  57.297 -57.605  1.00  0.00     0.017 A 
HETATM   16  C   UNL     1     -43.201  56.104 -57.888  1.00  0.00     0.016 A 
HETATM   17  C   UNL     1     -43.460  55.721 -59.207  1.00  0.00     0.001 A 
HETATM   18  C   UNL     1     -43.040  56.529 -60.260  1.00  0.00     0.000 A 
HETATM   19  C   UNL     1     -42.359  57.716 -59.998  1.00  0.00     0.001 A 
HETATM   20  C   UNL     1     -42.098  58.097 -58.678  1.00  0.00     0.016 A 
ENDBRANCH  12  15
ENDBRANCH   9  10
ENDBRANCH   4   9
BRANCH   1  21
HETATM   21  C   UNL     1     -40.308  53.494 -51.927  1.00  0.00     0.135 C 
HETATM   22  C   UNL     1     -39.574  53.527 -50.589  1.00  0.00     0.038 C 
BRANCH  21  23
HETATM   23  C   UNL     1     -40.126  52.175 -52.621  1.00  0.00     0.005 A 
HETATM   24  S   UNL     1     -39.556  50.788 -51.787  1.00  0.00    -0.104 SA
HETATM   25  C   UNL     1     -39.631  49.825 -53.196  1.00  0.00     0.050 A 
HETATM   26  C   UNL     1     -40.081  50.537 -54.284  1.00  0.00     0.008 A 
HETATM   27  C   UNL     1     -40.365  51.893 -53.955  1.00  0.00     0.017 A 
ENDBRANCH  21  23
ENDBRANCH   1  21
TORSDOF 5
ENDMDL
MODEL 7
REMARK VINA RESULT:      -7.0      1.516      2.535
REMARK  5 active torsions:
REMARK  status: ('A' for Active; 'I' for Inactive)
REMARK    1  A    between atoms: C_2  and  N_3 
REMARK    2  A    between atoms: C_2  and  C_21 
REMARK       I    between atoms: N_3  and  C_5 
REMARK       I    between atoms: C_5  and  N_6 
REMARK    3  A    between atoms: N_6  and  C_7 
REMARK    4  A    between atoms: C_7  and  C_8 
REMARK    5  A    between atoms: C_10  and  C_11 
ROOT
HETATM    1  N   UNL     1     -41.539  58.491 -52.277  1.00  0.00    -0.218 N 
HETATM    2  H   UNL     1     -41.041  59.324 -52.548  1.00  0.00     0.178 HD
HETATM    3  C   UNL     1     -41.030  57.768 -51.248  1.00  0.00     0.670 C 
HETATM    4  N   UNL     1     -41.558  56.564 -50.934  1.00  0.00    -0.221 N 
HETATM    5  N   UNL     1     -39.969  58.260 -50.551  1.00  0.00    -0.231 N 
HETATM    6  C   UNL     1     -39.324  59.545 -50.806  1.00  0.00     0.165 C 
HETATM    7  H   UNL     1     -42.184  56.147 -51.607  1.00  0.00     0.178 HD
HETATM    8  H   UNL     1     -39.614  57.711 -49.783  1.00  0.00     0.177 HD
ENDROOT
BRANCH   4   9
HETATM    9  C   UNL     1     -41.438  55.887 -49.641  1.00  0.00     0.199 C 
BRANCH   9  10
HETATM   10  C   UNL     1     -41.026  54.485 -49.903  1.00  0.00     0.077 A 
HETATM   11  N   UNL     1     -41.005  53.973 -51.190  1.00  0.00    -0.225 NA
HETATM   12  C   UNL     1     -40.503  52.759 -51.046  1.00  0.00     0.179 A 
HETATM   13  O   UNL     1     -40.236  52.423 -49.744  1.00  0.00    -0.301 OA
HETATM   14  C   UNL     1     -40.576  53.528 -49.026  1.00  0.00     0.173 A 
BRANCH  12  15
HETATM   15  C   UNL     1     -40.172  51.769 -52.068  1.00  0.00     0.017 A 
HETATM   16  C   UNL     1     -40.244  52.120 -53.425  1.00  0.00     0.016 A 
HETATM   17  C   UNL     1     -39.906  51.201 -54.422  1.00  0.00     0.001 A 
HETATM   18  C   UNL     1     -39.489  49.919 -54.074  1.00  0.00     0.000 A 
HETATM   19  C   UNL     1     -39.412  49.553 -52.731  1.00  0.00     0.001 A 
HETATM   20  C   UNL     1     -39.753  50.472 -51.734  1.00  0.00     0.016 A 
ENDBRANCH  12  15
ENDBRANCH   9  10
ENDBRANCH   4   9
BRANCH   1  21
HETATM   21  C   UNL     1     -42.867  58.273 -52.880  1.00  0.00     0.135 C 
HETATM   22  C   UNL     1     -43.593  59.604 -53.058  1.00  0.00     0.038 C 
BRANCH  21  23
HETATM   23  C   UNL     1     -42.741  57.536 -54.183  1.00  0.00     0.005 A 
HETATM   24  S   UNL     1     -42.972  55.839 -54.286  1.00  0.00    -0.104 SA
HETATM   25  C   UNL     1     -42.660  55.830 -55.965  1.00  0.00     0.050 A 
HETATM   26  C   UNL     1     -42.386  57.089 -56.446  1.00  0.00     0.008 A 
HETATM   27  C   UNL     1     -42.430  58.075 -55.420  1.00  0.00     0.017 A 
ENDBRANCH  21  23
ENDBRANCH   1  21
TORSDOF 5
ENDMDL
MODEL 8
REMARK VINA RESULT:      -7.0      3.241      5.195
REMARK  5 active torsions:
REMARK  status: ('A' for Active; 'I' for Inactive)
REMARK    1  A    between atoms: C_2  and  N_3 
REMARK    2  A    between atoms: C_2  and  C_21 
REMARK       I    between atoms: N_3  and  C_5 
REMARK       I    between atoms: C_5  and  N_6 
REMARK    3  A    between atoms: N_6  and  C_7 
REMARK    4  A    between atoms: C_7  and  C_8 
REMARK    5  A    between atoms: C_10  and  C_11 
ROOT
HETATM    1  N   UNL     1     -43.937  58.361 -58.709  1.00  0.00    -0.218 N 
HETATM    2  H   UNL     1     -44.592  58.536 -59.455  1.00  0.00     0.178 HD
HETATM    3  C   UNL     1     -44.446  57.975 -57.512  1.00  0.00     0.670 C 
HETATM    4  N   UNL     1     -43.641  57.875 -56.431  1.00  0.00    -0.221 N 
HETATM    5  N   UNL     1     -45.777  57.711 -57.408  1.00  0.00    -0.231 N 
HETATM    6  C   UNL     1     -46.733  57.789 -58.510  1.00  0.00     0.165 C 
HETATM    7  H   UNL     1     -42.723  58.290 -56.500  1.00  0.00     0.178 HD
HETATM    8  H   UNL     1     -46.131  57.415 -56.511  1.00  0.00     0.177 HD
ENDROOT
BRANCH   4   9
HETATM    9  C   UNL     1     -43.912  57.080 -55.231  1.00  0.00     0.199 C 
BRANCH   9  10
HETATM   10  C   UNL     1     -42.926  55.970 -55.194  1.00  0.00     0.077 A 
HETATM   11  N   UNL     1     -42.418  55.505 -53.991  1.00  0.00    -0.225 NA
HETATM   12  C   UNL     1     -41.666  54.474 -54.337  1.00  0.00     0.179 A 
HETATM   13  O   UNL     1     -41.611  54.261 -55.690  1.00  0.00    -0.301 OA
HETATM   14  C   UNL     1     -42.414  55.221 -56.225  1.00  0.00     0.173 A 
BRANCH  12  15
HETATM   15  C   UNL     1     -40.935  53.538 -53.488  1.00  0.00     0.017 A 
HETATM   16  C   UNL     1     -40.348  52.395 -54.056  1.00  0.00     0.016 A 
HETATM   17  C   UNL     1     -39.619  51.497 -53.271  1.00  0.00     0.001 A 
HETATM   18  C   UNL     1     -39.466  51.732 -51.907  1.00  0.00     0.000 A 
HETATM   19  C   UNL     1     -40.042  52.861 -51.326  1.00  0.00     0.001 A 
HETATM   20  C   UNL     1     -40.773  53.757 -52.112  1.00  0.00     0.016 A 
ENDBRANCH  12  15
ENDBRANCH   9  10
ENDBRANCH   4   9
BRANCH   1  21
HETATM   21  C   UNL     1     -42.506  58.337 -59.060  1.00  0.00     0.135 C 
HETATM   22  C   UNL     1     -42.207  57.157 -59.981  1.00  0.00     0.038 C 
BRANCH  21  23
HETATM   23  C   UNL     1     -42.092  59.639 -59.684  1.00  0.00     0.005 A 
HETATM   24  S   UNL     1     -41.667  61.001 -58.731  1.00  0.00    -0.104 SA
HETATM   25  C   UNL     1     -41.370  61.961 -60.113  1.00  0.00     0.050 A 
HETATM   26  C   UNL     1     -41.586  61.266 -61.280  1.00  0.00     0.008 A 
HETATM   27  C   UNL     1     -42.006  59.928 -61.036  1.00  0.00     0.017 A 
ENDBRANCH  21  23
ENDBRANCH   1  21
TORSDOF 5
ENDMDL
MODEL 9
REMARK VINA RESULT:      -6.9      2.387      3.370
REMARK  5 active torsions:
REMARK  status: ('A' for Active; 'I' for Inactive)
REMARK    1  A    between atoms: C_2  and  N_3 
REMARK    2  A    between atoms: C_2  and  C_21 
REMARK       I    between atoms: N_3  and  C_5 
REMARK       I    between atoms: C_5  and  N_6 
REMARK    3  A    between atoms: N_6  and  C_7 
REMARK    4  A    between atoms: C_7  and  C_8 
REMARK    5  A    between atoms: C_10  and  C_11 
ROOT
HETATM    1  N   UNL     1     -43.729  59.227 -56.410  1.00  0.00    -0.218 N 
HETATM    2  H   UNL     1     -44.138  60.084 -56.745  1.00  0.00     0.178 HD
HETATM    3  C   UNL     1     -42.833  59.320 -55.395  1.00  0.00     0.670 C 
HETATM    4  N   UNL     1     -42.133  58.232 -55.002  1.00  0.00    -0.221 N 
HETATM    5  N   UNL     1     -42.631  60.524 -54.793  1.00  0.00    -0.231 N 
HETATM    6  C   UNL     1     -43.330  61.759 -55.140  1.00  0.00     0.165 C 
HETATM    7  H   UNL     1     -42.150  57.428 -55.613  1.00  0.00     0.178 HD
HETATM    8  H   UNL     1     -41.969  60.568 -54.034  1.00  0.00     0.177 HD
ENDROOT
BRANCH   4   9
HETATM    9  C   UNL     1     -41.492  58.051 -53.698  1.00  0.00     0.199 C 
BRANCH   9  10
HETATM   10  C   UNL     1     -41.689  56.637 -53.291  1.00  0.00     0.077 A 
HETATM   11  N   UNL     1     -40.829  55.641 -53.724  1.00  0.00    -0.225 NA
HETATM   12  C   UNL     1     -41.249  54.556 -53.094  1.00  0.00     0.179 A 
HETATM   13  O   UNL     1     -42.356  54.766 -52.313  1.00  0.00    -0.301 OA
HETATM   14  C   UNL     1     -42.628  56.093 -52.448  1.00  0.00     0.173 A 
BRANCH  12  15
HETATM   15  C   UNL     1     -40.683  53.210 -53.095  1.00  0.00     0.017 A 
HETATM   16  C   UNL     1     -40.067  52.714 -51.935  1.00  0.00     0.016 A 
HETATM   17  C   UNL     1     -39.541  51.420 -51.899  1.00  0.00     0.001 A 
HETATM   18  C   UNL     1     -39.628  50.603 -53.024  1.00  0.00     0.000 A 
HETATM   19  C   UNL     1     -40.236  51.079 -54.184  1.00  0.00     0.001 A 
HETATM   20  C   UNL     1     -40.759  52.375 -54.220  1.00  0.00     0.016 A 
ENDBRANCH  12  15
ENDBRANCH   9  10
ENDBRANCH   4   9
BRANCH   1  21
HETATM   21  C   UNL     1     -44.304  57.965 -56.908  1.00  0.00     0.135 C 
HETATM   22  C   UNL     1     -45.783  58.152 -57.238  1.00  0.00     0.038 C 
BRANCH  21  23
HETATM   23  C   UNL     1     -43.535  57.465 -58.097  1.00  0.00     0.005 A 
HETATM   24  S   UNL     1     -42.611  58.523 -59.082  1.00  0.00    -0.104 SA
HETATM   25  C   UNL     1     -42.123  57.250 -60.111  1.00  0.00     0.050 A 
HETATM   26  C   UNL     1     -42.648  56.040 -59.719  1.00  0.00     0.008 A 
HETATM   27  C   UNL     1     -43.464  56.162 -58.559  1.00  0.00     0.017 A 
ENDBRANCH  21  23
ENDBRANCH   1  21
TORSDOF 5
ENDMDL
MODEL 10
REMARK VINA RESULT:      -6.8      3.170      7.491
REMARK  5 active torsions:
REMARK  status: ('A' for Active; 'I' for Inactive)
REMARK    1  A    between atoms: C_2  and  N_3 
REMARK    2  A    between atoms: C_2  and  C_21 
REMARK       I    between atoms: N_3  and  C_5 
REMARK       I    between atoms: C_5  and  N_6 
REMARK    3  A    between atoms: N_6  and  C_7 
REMARK    4  A    between atoms: C_7  and  C_8 
REMARK    5  A    between atoms: C_10  and  C_11 
ROOT
HETATM    1  N   UNL     1     -41.810  53.542 -51.676  1.00  0.00    -0.218 N 
HETATM    2  H   UNL     1     -42.103  53.213 -50.770  1.00  0.00     0.178 HD
HETATM    3  C   UNL     1     -42.707  54.260 -52.399  1.00  0.00     0.670 C 
HETATM    4  N   UNL     1     -42.437  54.597 -53.679  1.00  0.00    -0.221 N 
HETATM    5  N   UNL     1     -43.890  54.616 -51.826  1.00  0.00    -0.231 N 
HETATM    6  C   UNL     1     -44.282  54.303 -50.454  1.00  0.00     0.165 C 
HETATM    7  H   UNL     1     -41.662  54.128 -54.125  1.00  0.00     0.178 HD
HETATM    8  H   UNL     1     -44.537  55.159 -52.378  1.00  0.00     0.177 HD
ENDROOT
BRANCH   4   9
HETATM    9  C   UNL     1     -43.055  55.696 -54.425  1.00  0.00     0.199 C 
BRANCH   9  10
HETATM   10  C   UNL     1     -42.714  56.961 -53.728  1.00  0.00     0.077 A 
HETATM   11  N   UNL     1     -43.659  57.639 -52.973  1.00  0.00    -0.225 NA
HETATM   12  C   UNL     1     -42.983  58.641 -52.436  1.00  0.00     0.179 A 
HETATM   13  O   UNL     1     -41.669  58.691 -52.825  1.00  0.00    -0.301 OA
HETATM   14  C   UNL     1     -41.511  57.619 -53.648  1.00  0.00     0.173 A 
BRANCH  12  15
HETATM   15  C   UNL     1     -43.432  59.651 -51.482  1.00  0.00     0.017 A 
HETATM   16  C   UNL     1     -42.623  60.769 -51.220  1.00  0.00     0.016 A 
HETATM   17  C   UNL     1     -43.040  61.764 -50.333  1.00  0.00     0.001 A 
HETATM   18  C   UNL     1     -44.275  61.657 -49.698  1.00  0.00     0.000 A 
HETATM   19  C   UNL     1     -45.091  60.554 -49.946  1.00  0.00     0.001 A 
HETATM   20  C   UNL     1     -44.671  59.557 -50.832  1.00  0.00     0.016 A 
ENDBRANCH  12  15
ENDBRANCH   9  10
ENDBRANCH   4   9
BRANCH   1  21
HETATM   21  C   UNL     1     -40.385  53.392 -52.020  1.00  0.00     0.135 C 
HETATM   22  C   UNL     1     -39.519  53.570 -50.775  1.00  0.00     0.038 C 
BRANCH  21  23
HETATM   23  C   UNL     1     -40.136  52.064 -52.677  1.00  0.00     0.005 A 
HETATM   24  S   UNL     1     -39.582  50.707 -51.785  1.00  0.00    -0.104 SA
HETATM   25  C   UNL     1     -39.557  49.717 -53.177  1.00  0.00     0.050 A 
HETATM   26  C   UNL     1     -39.962  50.397 -54.301  1.00  0.00     0.008 A 
HETATM   27  C   UNL     1     -40.294  51.752 -54.016  1.00  0.00     0.017 A 
ENDBRANCH  21  23
ENDBRANCH   1  21
TORSDOF 5
ENDMDL
