MODEL 1
REMARK VINA RESULT:      -8.3      0.000      0.000
REMARK  5 active torsions:
REMARK  status: ('A' for Active; 'I' for Inactive)
REMARK    1  A    between atoms: C_8  and  C_9 
REMARK    2  A    between atoms: N_10  and  N_11 
REMARK       I    between atoms: N_11  and  C_12 
REMARK    3  A    between atoms: C_12  and  C_13 
REMARK    4  A    between atoms: C_13  and  N_14 
REMARK    5  A    between atoms: N_14  and  C_15 
ROOT
HETATM    1  N   UNL     1     -41.389  55.224 -55.706  1.00  0.00    -0.246 N 
HETATM    2  C   UNL     1     -42.587  55.927 -55.837  1.00  0.00     0.255 C 
HETATM    3  O   UNL     1     -43.592  55.762 -55.149  1.00  0.00    -0.270 OA
HETATM    4  H   UNL     1     -40.738  55.239 -56.486  1.00  0.00     0.192 HD
ENDROOT
BRANCH   1   5
HETATM    5  N   UNL     1     -41.154  54.207 -54.808  1.00  0.00    -0.184 NA
HETATM    6  C   UNL     1     -40.564  54.505 -53.693  1.00  0.00     0.152 C 
BRANCH   6   7
HETATM    7  C   UNL     1     -40.318  53.474 -52.704  1.00  0.00     0.011 A 
HETATM    8  C   UNL     1     -40.048  52.091 -52.962  1.00  0.00     0.004 A 
HETATM    9  C   UNL     1     -39.927  51.313 -54.134  1.00  0.00     0.014 A 
HETATM   10  C   UNL     1     -39.886  51.458 -51.728  1.00  0.00     0.043 A 
HETATM   11  C   UNL     1     -39.657  49.944 -54.031  1.00  0.00     0.001 A 
HETATM   12  C   UNL     1     -39.504  49.343 -52.784  1.00  0.00     0.002 A 
HETATM   13  C   UNL     1     -39.615  50.089 -51.607  1.00  0.00     0.030 A 
HETATM   14  N   UNL     1     -40.042  52.421 -50.757  1.00  0.00    -0.364 N 
HETATM   15  H   UNL     1     -39.972  52.248 -49.763  1.00  0.00     0.165 HD
HETATM   16  C   UNL     1     -40.302  53.635 -51.331  1.00  0.00     0.102 A 
ENDBRANCH   6   7
ENDBRANCH   1   5
BRANCH   2  17
HETATM   17  C   UNL     1     -42.527  56.983 -56.942  1.00  0.00     0.224 C 
BRANCH  17  18
HETATM   18  N   UNL     1     -42.583  56.373 -58.272  1.00  0.00    -0.381 N 
HETATM   19  H   UNL     1     -41.750  56.469 -58.842  1.00  0.00     0.160 HD
BRANCH  18  20
HETATM   20  C   UNL     1     -43.780  56.343 -58.984  1.00  0.00     0.028 A 
HETATM   21  C   UNL     1     -44.755  57.311 -58.705  1.00  0.00     0.030 A 
HETATM   22  C   UNL     1     -45.949  57.379 -59.434  1.00  0.00     0.021 A 
HETATM   23  C   UNL     1     -46.170  56.485 -60.477  1.00  0.00     0.011 A 
HETATM   24 BR   UNL     1     -47.770  56.576 -61.476  1.00  0.00    -0.051 Br
HETATM   25  C   UNL     1     -45.206  55.536 -60.796  1.00  0.00     0.021 A 
HETATM   26  C   UNL     1     -44.017  55.475 -60.059  1.00  0.00     0.030 A 
ENDBRANCH  18  20
ENDBRANCH  17  18
ENDBRANCH   2  17
TORSDOF 5
ENDMDL
MODEL 2
REMARK VINA RESULT:      -8.0      2.698      3.039
REMARK  5 active torsions:
REMARK  status: ('A' for Active; 'I' for Inactive)
REMARK    1  A    between atoms: C_8  and  C_9 
REMARK    2  A    between atoms: N_10  and  N_11 
REMARK       I    between atoms: N_11  and  C_12 
REMARK    3  A    between atoms: C_12  and  C_13 
REMARK    4  A    between atoms: C_13  and  N_14 
REMARK    5  A    between atoms: N_14  and  C_15 
ROOT
HETATM    1  N   UNL     1     -41.394  55.808 -55.767  1.00  0.00    -0.246 N 
HETATM    2  C   UNL     1     -42.556  55.578 -56.505  1.00  0.00     0.255 C 
HETATM    3  O   UNL     1     -43.218  54.543 -56.493  1.00  0.00    -0.270 OA
HETATM    4  H   UNL     1     -40.785  56.568 -56.057  1.00  0.00     0.192 HD
ENDROOT
BRANCH   1   5
HETATM    5  N   UNL     1     -40.783  54.897 -54.934  1.00  0.00    -0.184 NA
HETATM    6  C   UNL     1     -41.317  54.684 -53.772  1.00  0.00     0.152 C 
BRANCH   6   7
HETATM    7  C   UNL     1     -40.726  53.715 -52.870  1.00  0.00     0.011 A 
HETATM    8  C   UNL     1     -40.398  52.354 -53.174  1.00  0.00     0.004 A 
HETATM    9  C   UNL     1     -40.506  51.550 -54.330  1.00  0.00     0.014 A 
HETATM   10  C   UNL     1     -39.864  51.783 -52.018  1.00  0.00     0.043 A 
HETATM   11  C   UNL     1     -40.086  50.216 -54.286  1.00  0.00     0.001 A 
HETATM   12  C   UNL     1     -39.561  49.676 -53.115  1.00  0.00     0.002 A 
HETATM   13  C   UNL     1     -39.438  50.450 -51.957  1.00  0.00     0.030 A 
HETATM   14  N   UNL     1     -39.859  52.761 -51.049  1.00  0.00    -0.364 N 
HETATM   15  H   UNL     1     -39.519  52.631 -50.106  1.00  0.00     0.165 HD
HETATM   16  C   UNL     1     -40.374  53.926 -51.549  1.00  0.00     0.102 A 
ENDBRANCH   6   7
ENDBRANCH   1   5
BRANCH   2  17
HETATM   17  C   UNL     1     -42.963  56.789 -57.346  1.00  0.00     0.224 C 
BRANCH  17  18
HETATM   18  N   UNL     1     -41.935  57.129 -58.332  1.00  0.00    -0.381 N 
HETATM   19  H   UNL     1     -41.005  56.765 -58.150  1.00  0.00     0.160 HD
BRANCH  18  20
HETATM   20  C   UNL     1     -41.964  58.358 -58.986  1.00  0.00     0.028 A 
HETATM   21  C   UNL     1     -41.749  59.526 -58.240  1.00  0.00     0.030 A 
HETATM   22  C   UNL     1     -41.696  60.785 -58.849  1.00  0.00     0.021 A 
HETATM   23  C   UNL     1     -41.834  60.888 -60.230  1.00  0.00     0.011 A 
HETATM   24 BR   UNL     1     -41.750  62.580 -61.065  1.00  0.00    -0.051 Br
HETATM   25  C   UNL     1     -42.016  59.743 -60.998  1.00  0.00     0.021 A 
HETATM   26  C   UNL     1     -42.070  58.490 -60.378  1.00  0.00     0.030 A 
ENDBRANCH  18  20
ENDBRANCH  17  18
ENDBRANCH   2  17
TORSDOF 5
ENDMDL
MODEL 3
REMARK VINA RESULT:      -7.7      2.681      3.273
REMARK  5 active torsions:
REMARK  status: ('A' for Active; 'I' for Inactive)
REMARK    1  A    between atoms: C_8  and  C_9 
REMARK    2  A    between atoms: N_10  and  N_11 
REMARK       I    between atoms: N_11  and  C_12 
REMARK    3  A    between atoms: C_12  and  C_13 
REMARK    4  A    between atoms: C_13  and  N_14 
REMARK    5  A    between atoms: N_14  and  C_15 
ROOT
HETATM    1  N   UNL     1     -42.035  57.827 -52.953  1.00  0.00    -0.246 N 
HETATM    2  C   UNL     1     -41.441  58.976 -53.477  1.00  0.00     0.255 C 
HETATM    3  O   UNL     1     -40.236  59.214 -53.493  1.00  0.00    -0.270 OA
HETATM    4  H   UNL     1     -43.028  57.858 -52.738  1.00  0.00     0.192 HD
ENDROOT
BRANCH   1   5
HETATM    5  N   UNL     1     -41.368  56.793 -52.336  1.00  0.00    -0.184 NA
HETATM    6  C   UNL     1     -41.678  55.581 -52.678  1.00  0.00     0.152 C 
BRANCH   6   7
HETATM    7  C   UNL     1     -40.985  54.459 -52.076  1.00  0.00     0.011 A 
HETATM    8  C   UNL     1     -40.610  53.238 -52.726  1.00  0.00     0.004 A 
HETATM    9  C   UNL     1     -40.751  52.738 -54.039  1.00  0.00     0.014 A 
HETATM   10  C   UNL     1     -39.977  52.434 -51.776  1.00  0.00     0.043 A 
HETATM   11  C   UNL     1     -40.265  51.464 -54.351  1.00  0.00     0.001 A 
HETATM   12  C   UNL     1     -39.641  50.686 -53.378  1.00  0.00     0.002 A 
HETATM   13  C   UNL     1     -39.484  51.157 -52.071  1.00  0.00     0.030 A 
HETATM   14  N   UNL     1     -39.960  53.141 -50.596  1.00  0.00    -0.364 N 
HETATM   15  H   UNL     1     -39.555  52.805 -49.733  1.00  0.00     0.165 HD
HETATM   16  C   UNL     1     -40.561  54.359 -50.763  1.00  0.00     0.102 A 
ENDBRANCH   6   7
ENDBRANCH   1   5
BRANCH   2  17
HETATM   17  C   UNL     1     -42.464  59.941 -54.078  1.00  0.00     0.224 C 
BRANCH  17  18
HETATM   18  N   UNL     1     -42.185  60.210 -55.489  1.00  0.00    -0.381 N 
HETATM   19  H   UNL     1     -42.358  61.159 -55.806  1.00  0.00     0.160 HD
BRANCH  18  20
HETATM   20  C   UNL     1     -42.397  59.225 -56.451  1.00  0.00     0.028 A 
HETATM   21  C   UNL     1     -43.456  58.324 -56.271  1.00  0.00     0.030 A 
HETATM   22  C   UNL     1     -43.765  57.357 -57.235  1.00  0.00     0.021 A 
HETATM   23  C   UNL     1     -43.026  57.297 -58.412  1.00  0.00     0.011 A 
HETATM   24 BR   UNL     1     -43.444  56.005 -59.725  1.00  0.00    -0.051 Br
HETATM   25  C   UNL     1     -41.991  58.199 -58.630  1.00  0.00     0.021 A 
HETATM   26  C   UNL     1     -41.689  59.160 -57.659  1.00  0.00     0.030 A 
ENDBRANCH  18  20
ENDBRANCH  17  18
ENDBRANCH   2  17
TORSDOF 5
ENDMDL
MODEL 4
REMARK VINA RESULT:      -7.4      1.620      2.274
REMARK  5 active torsions:
REMARK  status: ('A' for Active; 'I' for Inactive)
REMARK    1  A    between atoms: C_8  and  C_9 
REMARK    2  A    between atoms: N_10  and  N_11 
REMARK       I    between atoms: N_11  and  C_12 
REMARK    3  A    between atoms: C_12  and  C_13 
REMARK    4  A    between atoms: C_13  and  N_14 
REMARK    5  A    between atoms: N_14  and  C_15 
ROOT
HETATM    1  N   UNL     1     -43.309  56.594 -55.708  1.00  0.00    -0.246 N 
HETATM    2  C   UNL     1     -43.246  56.289 -57.068  1.00  0.00     0.255 C 
HETATM    3  O   UNL     1     -42.849  55.229 -57.546  1.00  0.00    -0.270 OA
HETATM    4  H   UNL     1     -43.381  57.572 -55.440  1.00  0.00     0.192 HD
ENDROOT
BRANCH   1   5
HETATM    5  N   UNL     1     -42.900  55.769 -54.684  1.00  0.00    -0.184 NA
HETATM    6  C   UNL     1     -41.668  55.857 -54.288  1.00  0.00     0.152 C 
BRANCH   6   7
HETATM    7  C   UNL     1     -41.197  55.029 -53.196  1.00  0.00     0.011 A 
HETATM    8  C   UNL     1     -40.670  53.701 -53.298  1.00  0.00     0.004 A 
HETATM    9  C   UNL     1     -40.432  52.815 -54.372  1.00  0.00     0.014 A 
HETATM   10  C   UNL     1     -40.351  53.275 -52.007  1.00  0.00     0.043 A 
HETATM   11  C   UNL     1     -39.896  51.547 -54.118  1.00  0.00     0.001 A 
HETATM   12  C   UNL     1     -39.594  51.154 -52.817  1.00  0.00     0.002 A 
HETATM   13  C   UNL     1     -39.814  52.011 -51.735  1.00  0.00     0.030 A 
HETATM   14  N   UNL     1     -40.665  54.309 -51.153  1.00  0.00    -0.364 N 
HETATM   15  H   UNL     1     -40.533  54.283 -50.151  1.00  0.00     0.165 HD
HETATM   16  C   UNL     1     -41.173  55.367 -51.856  1.00  0.00     0.102 A 
ENDBRANCH   6   7
ENDBRANCH   1   5
BRANCH   2  17
HETATM   17  C   UNL     1     -43.762  57.430 -57.947  1.00  0.00     0.224 C 
BRANCH  17  18
HETATM   18  N   UNL     1     -45.219  57.545 -57.878  1.00  0.00    -0.381 N 
HETATM   19  H   UNL     1     -45.663  57.111 -57.075  1.00  0.00     0.160 HD
BRANCH  18  20
HETATM   20  C   UNL     1     -45.984  57.542 -59.042  1.00  0.00     0.028 A 
HETATM   21  C   UNL     1     -46.118  56.344 -59.758  1.00  0.00     0.030 A 
HETATM   22  C   UNL     1     -46.930  56.259 -60.896  1.00  0.00     0.021 A 
HETATM   23  C   UNL     1     -47.642  57.376 -61.319  1.00  0.00     0.011 A 
HETATM   24 BR   UNL     1     -48.750  57.269 -62.845  1.00  0.00    -0.051 Br
HETATM   25  C   UNL     1     -47.552  58.569 -60.609  1.00  0.00     0.021 A 
HETATM   26  C   UNL     1     -46.735  58.643 -59.475  1.00  0.00     0.030 A 
ENDBRANCH  18  20
ENDBRANCH  17  18
ENDBRANCH   2  17
TORSDOF 5
ENDMDL
MODEL 5
REMARK VINA RESULT:      -7.3      3.669      4.835
REMARK  5 active torsions:
REMARK  status: ('A' for Active; 'I' for Inactive)
REMARK    1  A    between atoms: C_8  and  C_9 
REMARK    2  A    between atoms: N_10  and  N_11 
REMARK       I    between atoms: N_11  and  C_12 
REMARK    3  A    between atoms: C_12  and  C_13 
REMARK    4  A    between atoms: C_13  and  N_14 
REMARK    5  A    between atoms: N_14  and  C_15 
ROOT
HETATM    1  N   UNL     1     -43.012  55.765 -54.416  1.00  0.00    -0.246 N 
HETATM    2  C   UNL     1     -42.942  55.928 -55.800  1.00  0.00     0.255 C 
HETATM    3  O   UNL     1     -42.443  55.129 -56.590  1.00  0.00    -0.270 OA
HETATM    4  H   UNL     1     -43.183  56.588 -53.845  1.00  0.00     0.192 HD
ENDROOT
BRANCH   1   5
HETATM    5  N   UNL     1     -42.499  54.700 -53.710  1.00  0.00    -0.184 NA
HETATM    6  C   UNL     1     -41.278  54.788 -53.280  1.00  0.00     0.152 C 
BRANCH   6   7
HETATM    7  C   UNL     1     -40.701  53.704 -52.509  1.00  0.00     0.011 A 
HETATM    8  C   UNL     1     -40.381  52.392 -52.987  1.00  0.00     0.004 A 
HETATM    9  C   UNL     1     -40.486  51.747 -54.239  1.00  0.00     0.014 A 
HETATM   10  C   UNL     1     -39.859  51.669 -51.913  1.00  0.00     0.043 A 
HETATM   11  C   UNL     1     -40.076  50.416 -54.368  1.00  0.00     0.001 A 
HETATM   12  C   UNL     1     -39.563  49.723 -53.274  1.00  0.00     0.002 A 
HETATM   13  C   UNL     1     -39.444  50.337 -52.025  1.00  0.00     0.030 A 
HETATM   14  N   UNL     1     -39.854  52.512 -50.824  1.00  0.00    -0.364 N 
HETATM   15  H   UNL     1     -39.523  52.257 -49.904  1.00  0.00     0.165 HD
HETATM   16  C   UNL     1     -40.357  53.737 -51.170  1.00  0.00     0.102 A 
ENDBRANCH   6   7
ENDBRANCH   1   5
BRANCH   2  17
HETATM   17  C   UNL     1     -43.593  57.230 -56.268  1.00  0.00     0.224 C 
BRANCH  17  18
HETATM   18  N   UNL     1     -42.698  58.374 -56.084  1.00  0.00    -0.381 N 
HETATM   19  H   UNL     1     -41.828  58.349 -56.605  1.00  0.00     0.160 HD
BRANCH  18  20
HETATM   20  C   UNL     1     -42.623  59.019 -54.852  1.00  0.00     0.028 A 
HETATM   21  C   UNL     1     -43.789  59.583 -54.314  1.00  0.00     0.030 A 
HETATM   22  C   UNL     1     -43.795  60.183 -53.049  1.00  0.00     0.021 A 
HETATM   23  C   UNL     1     -42.630  60.202 -52.290  1.00  0.00     0.011 A 
HETATM   24 BR   UNL     1     -42.630  60.996 -50.576  1.00  0.00    -0.051 Br
HETATM   25  C   UNL     1     -41.467  59.622 -52.785  1.00  0.00     0.021 A 
HETATM   26  C   UNL     1     -41.472  59.028 -54.053  1.00  0.00     0.030 A 
ENDBRANCH  18  20
ENDBRANCH  17  18
ENDBRANCH   2  17
TORSDOF 5
ENDMDL
MODEL 6
REMARK VINA RESULT:      -7.3      1.267      2.869
REMARK  5 active torsions:
REMARK  status: ('A' for Active; 'I' for Inactive)
REMARK    1  A    between atoms: C_8  and  C_9 
REMARK    2  A    between atoms: N_10  and  N_11 
REMARK       I    between atoms: N_11  and  C_12 
REMARK    3  A    between atoms: C_12  and  C_13 
REMARK    4  A    between atoms: C_13  and  N_14 
REMARK    5  A    between atoms: N_14  and  C_15 
ROOT
HETATM    1  N   UNL     1     -42.021  55.114 -55.628  1.00  0.00    -0.246 N 
HETATM    2  C   UNL     1     -42.199  56.498 -55.658  1.00  0.00     0.255 C 
HETATM    3  O   UNL     1     -42.205  57.240 -54.678  1.00  0.00    -0.270 OA
HETATM    4  H   UNL     1     -42.309  54.577 -56.441  1.00  0.00     0.192 HD
ENDROOT
BRANCH   1   5
HETATM    5  N   UNL     1     -41.862  54.354 -54.491  1.00  0.00    -0.184 NA
HETATM    6  C   UNL     1     -40.718  54.402 -53.883  1.00  0.00     0.152 C 
BRANCH   6   7
HETATM    7  C   UNL     1     -40.510  53.640 -52.667  1.00  0.00     0.011 A 
HETATM    8  C   UNL     1     -40.696  54.105 -51.325  1.00  0.00     0.004 A 
HETATM    9  C   UNL     1     -41.111  55.329 -50.756  1.00  0.00     0.014 A 
HETATM   10  C   UNL     1     -40.373  53.053 -50.467  1.00  0.00     0.043 A 
HETATM   11  C   UNL     1     -41.181  55.457 -49.365  1.00  0.00     0.001 A 
HETATM   12  C   UNL     1     -40.848  54.388 -48.537  1.00  0.00     0.002 A 
HETATM   13  C   UNL     1     -40.438  53.163 -49.073  1.00  0.00     0.030 A 
HETATM   14  N   UNL     1     -40.012  51.985 -51.257  1.00  0.00    -0.364 N 
HETATM   15  H   UNL     1     -39.732  51.080 -50.903  1.00  0.00     0.165 HD
HETATM   16  C   UNL     1     -40.090  52.325 -52.580  1.00  0.00     0.102 A 
ENDBRANCH   6   7
ENDBRANCH   1   5
BRANCH   2  17
HETATM   17  C   UNL     1     -42.365  57.035 -57.080  1.00  0.00     0.224 C 
BRANCH  17  18
HETATM   18  N   UNL     1     -42.785  55.981 -58.006  1.00  0.00    -0.381 N 
HETATM   19  H   UNL     1     -42.044  55.409 -58.398  1.00  0.00     0.160 HD
BRANCH  18  20
HETATM   20  C   UNL     1     -43.880  56.176 -58.846  1.00  0.00     0.028 A 
HETATM   21  C   UNL     1     -44.373  55.085 -59.576  1.00  0.00     0.030 A 
HETATM   22  C   UNL     1     -45.512  55.198 -60.382  1.00  0.00     0.021 A 
HETATM   23  C   UNL     1     -46.191  56.410 -60.447  1.00  0.00     0.011 A 
HETATM   24 BR   UNL     1     -47.737  56.571 -61.520  1.00  0.00    -0.051 Br
HETATM   25  C   UNL     1     -45.744  57.499 -59.708  1.00  0.00     0.021 A 
HETATM   26  C   UNL     1     -44.602  57.376 -58.908  1.00  0.00     0.030 A 
ENDBRANCH  18  20
ENDBRANCH  17  18
ENDBRANCH   2  17
TORSDOF 5
ENDMDL
MODEL 7
REMARK VINA RESULT:      -7.3      6.588      7.803
REMARK  5 active torsions:
REMARK  status: ('A' for Active; 'I' for Inactive)
REMARK    1  A    between atoms: C_8  and  C_9 
REMARK    2  A    between atoms: N_10  and  N_11 
REMARK       I    between atoms: N_11  and  C_12 
REMARK    3  A    between atoms: C_12  and  C_13 
REMARK    4  A    between atoms: C_13  and  N_14 
REMARK    5  A    between atoms: N_14  and  C_15 
ROOT
HETATM    1  N   UNL     1     -41.862  58.231 -50.653  1.00  0.00    -0.246 N 
HETATM    2  C   UNL     1     -41.544  59.373 -51.388  1.00  0.00     0.255 C 
HETATM    3  O   UNL     1     -40.636  59.465 -52.212  1.00  0.00    -0.270 OA
HETATM    4  H   UNL     1     -42.430  58.342 -49.818  1.00  0.00     0.192 HD
ENDROOT
BRANCH   1   5
HETATM    5  N   UNL     1     -41.185  57.033 -50.705  1.00  0.00    -0.184 NA
HETATM    6  C   UNL     1     -41.884  55.942 -50.751  1.00  0.00     0.152 C 
BRANCH   6   7
HETATM    7  C   UNL     1     -41.218  54.657 -50.834  1.00  0.00     0.011 A 
HETATM    8  C   UNL     1     -40.853  53.959 -52.031  1.00  0.00     0.004 A 
HETATM    9  C   UNL     1     -40.983  54.235 -53.409  1.00  0.00     0.014 A 
HETATM   10  C   UNL     1     -40.247  52.761 -51.650  1.00  0.00     0.043 A 
HETATM   11  C   UNL     1     -40.513  53.309 -54.348  1.00  0.00     0.001 A 
HETATM   12  C   UNL     1     -39.916  52.122 -53.933  1.00  0.00     0.002 A 
HETATM   13  C   UNL     1     -39.769  51.824 -52.575  1.00  0.00     0.030 A 
HETATM   14  N   UNL     1     -40.234  52.734 -50.274  1.00  0.00    -0.364 N 
HETATM   15  H   UNL     1     -39.848  51.982 -49.719  1.00  0.00     0.165 HD
HETATM   16  C   UNL     1     -40.814  53.867 -49.772  1.00  0.00     0.102 A 
ENDBRANCH   6   7
ENDBRANCH   1   5
BRANCH   2  17
HETATM   17  C   UNL     1     -42.481  60.543 -51.085  1.00  0.00     0.224 C 
BRANCH  17  18
HETATM   18  N   UNL     1     -43.187  60.351 -49.816  1.00  0.00    -0.381 N 
HETATM   19  H   UNL     1     -43.156  59.416 -49.426  1.00  0.00     0.160 HD
BRANCH  18  20
HETATM   20  C   UNL     1     -44.354  61.061 -49.544  1.00  0.00     0.028 A 
HETATM   21  C   UNL     1     -44.727  61.258 -48.207  1.00  0.00     0.030 A 
HETATM   22  C   UNL     1     -45.850  62.022 -47.866  1.00  0.00     0.021 A 
HETATM   23  C   UNL     1     -46.604  62.624 -48.868  1.00  0.00     0.011 A 
HETATM   24 BR   UNL     1     -48.112  63.668 -48.419  1.00  0.00    -0.051 Br
HETATM   25  C   UNL     1     -46.238  62.472 -50.201  1.00  0.00     0.021 A 
HETATM   26  C   UNL     1     -45.115  61.703 -50.531  1.00  0.00     0.030 A 
ENDBRANCH  18  20
ENDBRANCH  17  18
ENDBRANCH   2  17
TORSDOF 5
ENDMDL
MODEL 8
REMARK VINA RESULT:      -7.3      4.224      5.235
REMARK  5 active torsions:
REMARK  status: ('A' for Active; 'I' for Inactive)
REMARK    1  A    between atoms: C_8  and  C_9 
REMARK    2  A    between atoms: N_10  and  N_11 
REMARK       I    between atoms: N_11  and  C_12 
REMARK    3  A    between atoms: C_12  and  C_13 
REMARK    4  A    between atoms: C_13  and  N_14 
REMARK    5  A    between atoms: N_14  and  C_15 
ROOT
HETATM    1  N   UNL     1     -41.569  57.542 -50.274  1.00  0.00    -0.246 N 
HETATM    2  C   UNL     1     -40.969  58.767 -50.565  1.00  0.00     0.255 C 
HETATM    3  O   UNL     1     -39.809  58.925 -50.939  1.00  0.00    -0.270 OA
HETATM    4  H   UNL     1     -42.418  57.545 -49.716  1.00  0.00     0.192 HD
ENDROOT
BRANCH   1   5
HETATM    5  N   UNL     1     -40.946  56.315 -50.324  1.00  0.00    -0.184 NA
HETATM    6  C   UNL     1     -41.601  55.321 -50.839  1.00  0.00     0.152 C 
BRANCH   6   7
HETATM    7  C   UNL     1     -40.978  54.016 -50.938  1.00  0.00     0.011 A 
HETATM    8  C   UNL     1     -40.626  53.327 -52.144  1.00  0.00     0.004 A 
HETATM    9  C   UNL     1     -40.732  53.631 -53.519  1.00  0.00     0.014 A 
HETATM   10  C   UNL     1     -40.065  52.102 -51.779  1.00  0.00     0.043 A 
HETATM   11  C   UNL     1     -40.283  52.707 -54.469  1.00  0.00     0.001 A 
HETATM   12  C   UNL     1     -39.732  51.492 -54.070  1.00  0.00     0.002 A 
HETATM   13  C   UNL     1     -39.610  51.166 -52.716  1.00  0.00     0.030 A 
HETATM   14  N   UNL     1     -40.068  52.051 -50.404  1.00  0.00    -0.364 N 
HETATM   15  H   UNL     1     -39.713  51.277 -49.859  1.00  0.00     0.165 HD
HETATM   16  C   UNL     1     -40.614  53.194 -49.888  1.00  0.00     0.102 A 
ENDBRANCH   6   7
ENDBRANCH   1   5
BRANCH   2  17
HETATM   17  C   UNL     1     -41.931  59.944 -50.395  1.00  0.00     0.224 C 
BRANCH  17  18
HETATM   18  N   UNL     1     -42.140  60.654 -51.658  1.00  0.00    -0.381 N 
HETATM   19  H   UNL     1     -42.455  61.616 -51.583  1.00  0.00     0.160 HD
BRANCH  18  20
HETATM   20  C   UNL     1     -42.604  59.973 -52.781  1.00  0.00     0.028 A 
HETATM   21  C   UNL     1     -41.790  59.919 -53.922  1.00  0.00     0.030 A 
HETATM   22  C   UNL     1     -42.168  59.192 -55.056  1.00  0.00     0.021 A 
HETATM   23  C   UNL     1     -43.365  58.482 -55.053  1.00  0.00     0.011 A 
HETATM   24 BR   UNL     1     -43.878  57.486 -56.573  1.00  0.00    -0.051 Br
HETATM   25  C   UNL     1     -44.175  58.491 -53.923  1.00  0.00     0.021 A 
HETATM   26  C   UNL     1     -43.789  59.225 -52.795  1.00  0.00     0.030 A 
ENDBRANCH  18  20
ENDBRANCH  17  18
ENDBRANCH   2  17
TORSDOF 5
ENDMDL
MODEL 9
REMARK VINA RESULT:      -7.2      3.447      4.001
REMARK  5 active torsions:
REMARK  status: ('A' for Active; 'I' for Inactive)
REMARK    1  A    between atoms: C_8  and  C_9 
REMARK    2  A    between atoms: N_10  and  N_11 
REMARK       I    between atoms: N_11  and  C_12 
REMARK    3  A    between atoms: C_12  and  C_13 
REMARK    4  A    between atoms: C_13  and  N_14 
REMARK    5  A    between atoms: N_14  and  C_15 
ROOT
HETATM    1  N   UNL     1     -42.516  57.384 -54.265  1.00  0.00    -0.246 N 
HETATM    2  C   UNL     1     -42.048  58.648 -54.625  1.00  0.00     0.255 C 
HETATM    3  O   UNL     1     -41.011  59.169 -54.220  1.00  0.00    -0.270 OA
HETATM    4  H   UNL     1     -43.496  57.172 -54.429  1.00  0.00     0.192 HD
ENDROOT
BRANCH   1   5
HETATM    5  N   UNL     1     -41.909  56.532 -53.369  1.00  0.00    -0.184 NA
HETATM    6  C   UNL     1     -41.693  55.310 -53.744  1.00  0.00     0.152 C 
BRANCH   6   7
HETATM    7  C   UNL     1     -41.033  54.382 -52.847  1.00  0.00     0.011 A 
HETATM    8  C   UNL     1     -40.608  53.049 -53.157  1.00  0.00     0.004 A 
HETATM    9  C   UNL     1     -40.659  52.244 -54.316  1.00  0.00     0.014 A 
HETATM   10  C   UNL     1     -40.033  52.513 -52.003  1.00  0.00     0.043 A 
HETATM   11  C   UNL     1     -40.144  50.944 -54.278  1.00  0.00     0.001 A 
HETATM   12  C   UNL     1     -39.580  50.439 -53.109  1.00  0.00     0.002 A 
HETATM   13  C   UNL     1     -39.512  51.214 -51.948  1.00  0.00     0.030 A 
HETATM   14  N   UNL     1     -40.098  53.485 -51.031  1.00  0.00    -0.364 N 
HETATM   15  H   UNL     1     -39.749  53.376 -50.089  1.00  0.00     0.165 HD
HETATM   16  C   UNL     1     -40.696  54.612 -51.525  1.00  0.00     0.102 A 
ENDBRANCH   6   7
ENDBRANCH   1   5
BRANCH   2  17
HETATM   17  C   UNL     1     -42.965  59.347 -55.630  1.00  0.00     0.224 C 
BRANCH  17  18
HETATM   18  N   UNL     1     -42.712  58.889 -56.997  1.00  0.00    -0.381 N 
HETATM   19  H   UNL     1     -42.437  57.918 -57.098  1.00  0.00     0.160 HD
BRANCH  18  20
HETATM   20  C   UNL     1     -42.162  59.754 -57.940  1.00  0.00     0.028 A 
HETATM   21  C   UNL     1     -42.389  59.501 -59.301  1.00  0.00     0.030 A 
HETATM   22  C   UNL     1     -41.924  60.371 -60.294  1.00  0.00     0.021 A 
HETATM   23  C   UNL     1     -41.243  61.529 -59.932  1.00  0.00     0.011 A 
HETATM   24 BR   UNL     1     -40.624  62.717 -61.263  1.00  0.00    -0.051 Br
HETATM   25  C   UNL     1     -41.033  61.821 -58.589  1.00  0.00     0.021 A 
HETATM   26  C   UNL     1     -41.499  60.942 -57.604  1.00  0.00     0.030 A 
ENDBRANCH  18  20
ENDBRANCH  17  18
ENDBRANCH   2  17
TORSDOF 5
ENDMDL
MODEL 10
REMARK VINA RESULT:      -7.2     13.951     16.085
REMARK  5 active torsions:
REMARK  status: ('A' for Active; 'I' for Inactive)
REMARK    1  A    between atoms: C_8  and  C_9 
REMARK    2  A    between atoms: N_10  and  N_11 
REMARK       I    between atoms: N_11  and  C_12 
REMARK    3  A    between atoms: C_12  and  C_13 
REMARK    4  A    between atoms: C_13  and  N_14 
REMARK    5  A    between atoms: N_14  and  C_15 
ROOT
HETATM    1  N   UNL     1     -35.667  40.525 -53.670  1.00  0.00    -0.246 N 
HETATM    2  C   UNL     1     -35.985  41.880 -53.784  1.00  0.00     0.255 C 
HETATM    3  O   UNL     1     -36.268  42.628 -52.851  1.00  0.00    -0.270 OA
HETATM    4  H   UNL     1     -35.727  39.949 -54.505  1.00  0.00     0.192 HD
ENDROOT
BRANCH   1   5
HETATM    5  N   UNL     1     -35.658  39.803 -52.498  1.00  0.00    -0.184 NA
HETATM    6  C   UNL     1     -34.560  39.779 -51.809  1.00  0.00     0.152 C 
BRANCH   6   7
HETATM    7  C   UNL     1     -34.507  39.053 -50.555  1.00  0.00     0.011 A 
HETATM    8  C   UNL     1     -33.478  39.138 -49.561  1.00  0.00     0.004 A 
HETATM    9  C   UNL     1     -32.281  39.878 -49.444  1.00  0.00     0.014 A 
HETATM   10  C   UNL     1     -33.821  38.266 -48.526  1.00  0.00     0.043 A 
HETATM   11  C   UNL     1     -31.476  39.716 -48.311  1.00  0.00     0.001 A 
HETATM   12  C   UNL     1     -31.845  38.834 -47.299  1.00  0.00     0.002 A 
HETATM   13  C   UNL     1     -33.027  38.092 -47.386  1.00  0.00     0.030 A 
HETATM   14  N   UNL     1     -35.017  37.679 -48.873  1.00  0.00    -0.364 N 
HETATM   15  H   UNL     1     -35.508  37.003 -48.304  1.00  0.00     0.165 HD
HETATM   16  C   UNL     1     -35.439  38.144 -50.088  1.00  0.00     0.102 A 
ENDBRANCH   6   7
ENDBRANCH   1   5
BRANCH   2  17
HETATM   17  C   UNL     1     -35.920  42.376 -55.229  1.00  0.00     0.224 C 
BRANCH  17  18
HETATM   18  N   UNL     1     -37.241  42.364 -55.860  1.00  0.00    -0.381 N 
HETATM   19  H   UNL     1     -38.036  42.418 -55.232  1.00  0.00     0.160 HD
BRANCH  18  20
HETATM   20  C   UNL     1     -37.461  41.626 -57.021  1.00  0.00     0.028 A 
HETATM   21  C   UNL     1     -37.015  42.145 -58.245  1.00  0.00     0.030 A 
HETATM   22  C   UNL     1     -37.142  41.421 -59.436  1.00  0.00     0.021 A 
HETATM   23  C   UNL     1     -37.701  40.147 -59.412  1.00  0.00     0.011 A 
HETATM   24 BR   UNL     1     -37.865  39.156 -61.011  1.00  0.00    -0.051 Br
HETATM   25  C   UNL     1     -38.122  39.596 -58.207  1.00  0.00     0.021 A 
HETATM   26  C   UNL     1     -37.993  40.329 -57.022  1.00  0.00     0.030 A 
ENDBRANCH  18  20
ENDBRANCH  17  18
ENDBRANCH   2  17
TORSDOF 5
ENDMDL
