MODEL 1
REMARK VINA RESULT:      -7.1      0.000      0.000
REMARK  9 active torsions:
REMARK  status: ('A' for Active; 'I' for Inactive)
REMARK    1  A    between atoms: C_2  and  C_3 
REMARK    2  A    between atoms: C_3  and  O_4 
REMARK    3  A    between atoms: O_4  and  C_5 
REMARK    4  A    between atoms: C_8  and  C_9 
REMARK    5  A    between atoms: N_10  and  N_11 
REMARK       I    between atoms: N_11  and  C_12 
REMARK    6  A    between atoms: C_12  and  C_13 
REMARK    7  A    between atoms: C_17  and  C_18 
REMARK    8  A    between atoms: C_21  and  O_22 
REMARK    9  A    between atoms: O_22  and  C_23 
ROOT
HETATM    1  N   UNL     1     -43.574  56.167 -57.158  1.00  0.00    -0.242 N 
HETATM    2  C   UNL     1     -43.487  56.177 -58.541  1.00  0.00     0.289 C 
HETATM    3  O   UNL     1     -42.609  55.607 -59.183  1.00  0.00    -0.264 OA
HETATM    4  H   UNL     1     -44.298  56.690 -56.682  1.00  0.00     0.192 HD
ENDROOT
BRANCH   2   5
HETATM    5  C   UNL     1     -44.516  56.936 -59.208  1.00  0.00     0.121 A 
HETATM    6  N   UNL     1     -44.460  58.300 -59.261  1.00  0.00    -0.272 N 
HETATM    7  H   UNL     1     -43.733  58.893 -58.868  1.00  0.00     0.189 HD
HETATM    8  N   UNL     1     -45.498  58.871 -59.888  1.00  0.00    -0.174 NA
HETATM    9  C   UNL     1     -46.252  57.841 -60.302  1.00  0.00     0.089 A 
HETATM   10  C   UNL     1     -45.671  56.607 -59.889  1.00  0.00     0.071 A 
BRANCH   9  11
HETATM   11  C   UNL     1     -47.494  58.050 -61.053  1.00  0.00    -0.005 A 
HETATM   12  C   UNL     1     -48.109  59.306 -61.102  1.00  0.00     0.016 A 
HETATM   13  C   UNL     1     -49.286  59.491 -61.837  1.00  0.00     0.037 A 
HETATM   14  C   UNL     1     -49.863  58.431 -62.540  1.00  0.00     0.068 A 
HETATM   15  C   UNL     1     -49.266  57.174 -62.484  1.00  0.00     0.037 A 
HETATM   16  C   UNL     1     -48.091  56.987 -61.744  1.00  0.00     0.016 A 
BRANCH  14  17
HETATM   17  O   UNL     1     -51.002  58.752 -63.225  1.00  0.00    -0.352 OA
BRANCH  17  18
HETATM   18  C   UNL     1     -51.934  59.605 -62.562  1.00  0.00     0.171 C 
HETATM   19  C   UNL     1     -52.861  58.732 -61.736  1.00  0.00     0.034 C 
ENDBRANCH  17  18
ENDBRANCH  14  17
ENDBRANCH   9  11
ENDBRANCH   2   5
BRANCH   1  20
HETATM   20  N   UNL     1     -42.654  55.478 -56.424  1.00  0.00    -0.184 NA
HETATM   21  C   UNL     1     -43.060  55.024 -55.282  1.00  0.00     0.150 C 
BRANCH  21  22
HETATM   22  C   UNL     1     -42.158  54.258 -54.398  1.00  0.00    -0.017 A 
HETATM   23  C   UNL     1     -42.389  54.207 -53.021  1.00  0.00     0.016 A 
HETATM   24  C   UNL     1     -41.527  53.481 -52.192  1.00  0.00     0.037 A 
HETATM   25  C   UNL     1     -40.435  52.805 -52.736  1.00  0.00     0.068 A 
HETATM   26  C   UNL     1     -40.212  52.861 -54.117  1.00  0.00     0.037 A 
HETATM   27  C   UNL     1     -41.068  53.586 -54.952  1.00  0.00     0.016 A 
BRANCH  25  28
HETATM   28  O   UNL     1     -39.523  52.061 -52.040  1.00  0.00    -0.351 OA
BRANCH  28  29
HETATM   29  C   UNL     1     -39.954  51.507 -50.796  1.00  0.00     0.175 C 
BRANCH  29  30
HETATM   30  C   UNL     1     -39.754  49.996 -50.859  1.00  0.00     0.022 C 
HETATM   31  C   UNL     1     -39.593  49.508 -52.288  1.00  0.00     0.007 C 
ENDBRANCH  29  30
ENDBRANCH  28  29
ENDBRANCH  25  28
ENDBRANCH  21  22
ENDBRANCH   1  20
TORSDOF 9
ENDMDL
MODEL 2
REMARK VINA RESULT:      -7.1      1.275     12.314
REMARK  9 active torsions:
REMARK  status: ('A' for Active; 'I' for Inactive)
REMARK    1  A    between atoms: C_2  and  C_3 
REMARK    2  A    between atoms: C_3  and  O_4 
REMARK    3  A    between atoms: O_4  and  C_5 
REMARK    4  A    between atoms: C_8  and  C_9 
REMARK    5  A    between atoms: N_10  and  N_11 
REMARK       I    between atoms: N_11  and  C_12 
REMARK    6  A    between atoms: C_12  and  C_13 
REMARK    7  A    between atoms: C_17  and  C_18 
REMARK    8  A    between atoms: C_21  and  O_22 
REMARK    9  A    between atoms: O_22  and  C_23 
ROOT
HETATM    1  N   UNL     1     -44.542  56.170 -58.544  1.00  0.00    -0.242 N 
HETATM    2  C   UNL     1     -43.453  56.939 -58.166  1.00  0.00     0.289 C 
HETATM    3  O   UNL     1     -43.041  57.911 -58.794  1.00  0.00    -0.264 OA
HETATM    4  H   UNL     1     -44.810  55.355 -58.008  1.00  0.00     0.192 HD
ENDROOT
BRANCH   2   5
HETATM    5  C   UNL     1     -42.796  56.508 -56.958  1.00  0.00     0.121 A 
HETATM    6  N   UNL     1     -42.385  57.413 -56.020  1.00  0.00    -0.272 N 
HETATM    7  H   UNL     1     -42.496  58.422 -56.062  1.00  0.00     0.189 HD
HETATM    8  N   UNL     1     -41.765  56.869 -54.963  1.00  0.00    -0.174 NA
HETATM    9  C   UNL     1     -41.801  55.547 -55.192  1.00  0.00     0.089 A 
HETATM   10  C   UNL     1     -42.435  55.280 -56.439  1.00  0.00     0.071 A 
BRANCH   9  11
HETATM   11  C   UNL     1     -41.227  54.587 -54.245  1.00  0.00    -0.005 A 
HETATM   12  C   UNL     1     -41.277  54.811 -52.864  1.00  0.00     0.016 A 
HETATM   13  C   UNL     1     -40.738  53.876 -51.973  1.00  0.00     0.037 A 
HETATM   14  C   UNL     1     -40.147  52.701 -52.443  1.00  0.00     0.068 A 
HETATM   15  C   UNL     1     -40.078  52.477 -53.816  1.00  0.00     0.037 A 
HETATM   16  C   UNL     1     -40.612  53.415 -54.708  1.00  0.00     0.016 A 
BRANCH  14  17
HETATM   17  O   UNL     1     -39.672  51.870 -51.466  1.00  0.00    -0.352 OA
BRANCH  17  18
HETATM   18  C   UNL     1     -39.468  50.505 -51.824  1.00  0.00     0.171 C 
HETATM   19  C   UNL     1     -39.806  49.649 -50.617  1.00  0.00     0.034 C 
ENDBRANCH  17  18
ENDBRANCH  14  17
ENDBRANCH   9  11
ENDBRANCH   2   5
BRANCH   1  20
HETATM   20  N   UNL     1     -45.241  56.488 -59.671  1.00  0.00    -0.184 NA
HETATM   21  C   UNL     1     -46.383  57.070 -59.488  1.00  0.00     0.150 C 
BRANCH  21  22
HETATM   22  C   UNL     1     -47.231  57.468 -60.630  1.00  0.00    -0.017 A 
HETATM   23  C   UNL     1     -47.501  58.817 -60.876  1.00  0.00     0.016 A 
HETATM   24  C   UNL     1     -48.308  59.184 -61.959  1.00  0.00     0.037 A 
HETATM   25  C   UNL     1     -48.846  58.206 -62.796  1.00  0.00     0.068 A 
HETATM   26  C   UNL     1     -48.569  56.858 -62.542  1.00  0.00     0.037 A 
HETATM   27  C   UNL     1     -47.765  56.483 -61.461  1.00  0.00     0.016 A 
BRANCH  25  28
HETATM   28  O   UNL     1     -49.644  58.430 -63.883  1.00  0.00    -0.351 OA
BRANCH  28  29
HETATM   29  C   UNL     1     -50.371  59.659 -63.909  1.00  0.00     0.175 C 
BRANCH  29  30
HETATM   30  C   UNL     1     -51.784  59.381 -63.403  1.00  0.00     0.022 C 
HETATM   31  C   UNL     1     -51.995  59.922 -61.999  1.00  0.00     0.007 C 
ENDBRANCH  29  30
ENDBRANCH  28  29
ENDBRANCH  25  28
ENDBRANCH  21  22
ENDBRANCH   1  20
TORSDOF 9
ENDMDL
MODEL 3
REMARK VINA RESULT:      -6.8     17.311     19.365
REMARK  9 active torsions:
REMARK  status: ('A' for Active; 'I' for Inactive)
REMARK    1  A    between atoms: C_2  and  C_3 
REMARK    2  A    between atoms: C_3  and  O_4 
REMARK    3  A    between atoms: O_4  and  C_5 
REMARK    4  A    between atoms: C_8  and  C_9 
REMARK    5  A    between atoms: N_10  and  N_11 
REMARK       I    between atoms: N_11  and  C_12 
REMARK    6  A    between atoms: C_12  and  C_13 
REMARK    7  A    between atoms: C_17  and  C_18 
REMARK    8  A    between atoms: C_21  and  O_22 
REMARK    9  A    between atoms: O_22  and  C_23 
ROOT
HETATM    1  N   UNL     1     -34.863  40.448 -52.849  1.00  0.00    -0.242 N 
HETATM    2  C   UNL     1     -35.517  41.587 -53.292  1.00  0.00     0.289 C 
HETATM    3  O   UNL     1     -35.592  42.634 -52.653  1.00  0.00    -0.264 OA
HETATM    4  H   UNL     1     -34.869  39.601 -53.402  1.00  0.00     0.192 HD
ENDROOT
BRANCH   2   5
HETATM    5  C   UNL     1     -36.141  41.464 -54.585  1.00  0.00     0.121 A 
HETATM    6  N   UNL     1     -36.804  42.518 -55.149  1.00  0.00    -0.272 N 
HETATM    7  H   UNL     1     -36.917  43.446 -54.751  1.00  0.00     0.189 HD
HETATM    8  N   UNL     1     -37.357  42.248 -56.340  1.00  0.00    -0.174 NA
HETATM    9  C   UNL     1     -37.014  40.975 -56.593  1.00  0.00     0.089 A 
HETATM   10  C   UNL     1     -36.254  40.445 -55.511  1.00  0.00     0.071 A 
BRANCH   9  11
HETATM   11  C   UNL     1     -37.422  40.300 -57.828  1.00  0.00    -0.005 A 
HETATM   12  C   UNL     1     -37.243  40.903 -59.078  1.00  0.00     0.016 A 
HETATM   13  C   UNL     1     -37.624  40.237 -60.249  1.00  0.00     0.037 A 
HETATM   14  C   UNL     1     -38.183  38.958 -60.193  1.00  0.00     0.068 A 
HETATM   15  C   UNL     1     -38.379  38.356 -58.951  1.00  0.00     0.037 A 
HETATM   16  C   UNL     1     -38.003  39.025 -57.780  1.00  0.00     0.016 A 
BRANCH  14  17
HETATM   17  O   UNL     1     -38.498  38.418 -61.408  1.00  0.00    -0.352 OA
BRANCH  17  18
HETATM   18  C   UNL     1     -39.768  37.778 -61.520  1.00  0.00     0.171 C 
HETATM   19  C   UNL     1     -40.150  37.750 -62.989  1.00  0.00     0.034 C 
ENDBRANCH  17  18
ENDBRANCH  14  17
ENDBRANCH   9  11
ENDBRANCH   2   5
BRANCH   1  20
HETATM   20  N   UNL     1     -34.234  40.453 -51.639  1.00  0.00    -0.184 NA
HETATM   21  C   UNL     1     -33.963  39.294 -51.133  1.00  0.00     0.150 C 
BRANCH  21  22
HETATM   22  C   UNL     1     -33.279  39.167 -49.829  1.00  0.00    -0.017 A 
HETATM   23  C   UNL     1     -33.731  38.249 -48.877  1.00  0.00     0.016 A 
HETATM   24  C   UNL     1     -33.078  38.139 -47.645  1.00  0.00     0.037 A 
HETATM   25  C   UNL     1     -31.975  38.945 -47.361  1.00  0.00     0.068 A 
HETATM   26  C   UNL     1     -31.529  39.861 -48.321  1.00  0.00     0.037 A 
HETATM   27  C   UNL     1     -32.177  39.977 -49.555  1.00  0.00     0.016 A 
BRANCH  25  28
HETATM   28  O   UNL     1     -31.250  38.934 -46.201  1.00  0.00    -0.351 OA
BRANCH  28  29
HETATM   29  C   UNL     1     -30.195  39.889 -46.089  1.00  0.00     0.175 C 
BRANCH  29  30
HETATM   30  C   UNL     1     -30.147  40.370 -44.641  1.00  0.00     0.022 C 
HETATM   31  C   UNL     1     -28.932  39.827 -43.908  1.00  0.00     0.007 C 
ENDBRANCH  29  30
ENDBRANCH  28  29
ENDBRANCH  25  28
ENDBRANCH  21  22
ENDBRANCH   1  20
TORSDOF 9
ENDMDL
MODEL 4
REMARK VINA RESULT:      -6.7      7.130      7.983
REMARK  9 active torsions:
REMARK  status: ('A' for Active; 'I' for Inactive)
REMARK    1  A    between atoms: C_2  and  C_3 
REMARK    2  A    between atoms: C_3  and  O_4 
REMARK    3  A    between atoms: O_4  and  C_5 
REMARK    4  A    between atoms: C_8  and  C_9 
REMARK    5  A    between atoms: N_10  and  N_11 
REMARK       I    between atoms: N_11  and  C_12 
REMARK    6  A    between atoms: C_12  and  C_13 
REMARK    7  A    between atoms: C_17  and  C_18 
REMARK    8  A    between atoms: C_21  and  O_22 
REMARK    9  A    between atoms: O_22  and  C_23 
ROOT
HETATM    1  N   UNL     1     -43.103  58.321 -51.630  1.00  0.00    -0.242 N 
HETATM    2  C   UNL     1     -42.796  59.553 -51.072  1.00  0.00     0.289 C 
HETATM    3  O   UNL     1     -41.707  59.837 -50.579  1.00  0.00    -0.264 OA
HETATM    4  H   UNL     1     -44.031  58.132 -51.985  1.00  0.00     0.192 HD
ENDROOT
BRANCH   2   5
HETATM    5  C   UNL     1     -43.872  60.511 -51.088  1.00  0.00     0.121 A 
HETATM    6  N   UNL     1     -43.724  61.745 -50.519  1.00  0.00    -0.272 N 
HETATM    7  H   UNL     1     -42.892  62.103 -50.057  1.00  0.00     0.189 HD
HETATM    8  N   UNL     1     -44.817  62.518 -50.586  1.00  0.00    -0.174 NA
HETATM    9  C   UNL     1     -45.713  61.781 -51.261  1.00  0.00     0.089 A 
HETATM   10  C   UNL     1     -45.159  60.511 -51.589  1.00  0.00     0.071 A 
BRANCH   9  11
HETATM   11  C   UNL     1     -47.056  62.288 -51.558  1.00  0.00    -0.005 A 
HETATM   12  C   UNL     1     -47.798  61.787 -52.634  1.00  0.00     0.016 A 
HETATM   13  C   UNL     1     -49.085  62.271 -52.894  1.00  0.00     0.037 A 
HETATM   14  C   UNL     1     -49.656  63.255 -52.084  1.00  0.00     0.068 A 
HETATM   15  C   UNL     1     -48.918  63.770 -51.020  1.00  0.00     0.037 A 
HETATM   16  C   UNL     1     -47.628  63.290 -50.762  1.00  0.00     0.016 A 
BRANCH  14  17
HETATM   17  O   UNL     1     -50.921  63.628 -52.442  1.00  0.00    -0.352 OA
BRANCH  17  18
HETATM   18  C   UNL     1     -51.948  62.649 -52.294  1.00  0.00     0.171 C 
HETATM   19  C   UNL     1     -52.991  63.206 -51.342  1.00  0.00     0.034 C 
ENDBRANCH  17  18
ENDBRANCH  14  17
ENDBRANCH   9  11
ENDBRANCH   2   5
BRANCH   1  20
HETATM   20  N   UNL     1     -42.157  57.339 -51.671  1.00  0.00    -0.184 NA
HETATM   21  C   UNL     1     -42.599  56.123 -51.684  1.00  0.00     0.150 C 
BRANCH  21  22
HETATM   22  C   UNL     1     -41.674  54.973 -51.732  1.00  0.00    -0.017 A 
HETATM   23  C   UNL     1     -40.832  54.693 -50.653  1.00  0.00     0.016 A 
HETATM   24  C   UNL     1     -39.957  53.602 -50.710  1.00  0.00     0.037 A 
HETATM   25  C   UNL     1     -39.923  52.789 -51.843  1.00  0.00     0.068 A 
HETATM   26  C   UNL     1     -40.771  53.076 -52.919  1.00  0.00     0.037 A 
HETATM   27  C   UNL     1     -41.646  54.166 -52.870  1.00  0.00     0.016 A 
BRANCH  25  28
HETATM   28  O   UNL     1     -39.121  51.697 -52.023  1.00  0.00    -0.351 OA
BRANCH  28  29
HETATM   29  C   UNL     1     -39.542  50.477 -51.413  1.00  0.00     0.175 C 
BRANCH  29  30
HETATM   30  C   UNL     1     -39.710  49.433 -52.513  1.00  0.00     0.022 C 
HETATM   31  C   UNL     1     -39.257  49.960 -53.864  1.00  0.00     0.007 C 
ENDBRANCH  29  30
ENDBRANCH  28  29
ENDBRANCH  25  28
ENDBRANCH  21  22
ENDBRANCH   1  20
TORSDOF 9
ENDMDL
MODEL 5
REMARK VINA RESULT:      -6.5     17.308     23.697
REMARK  9 active torsions:
REMARK  status: ('A' for Active; 'I' for Inactive)
REMARK    1  A    between atoms: C_2  and  C_3 
REMARK    2  A    between atoms: C_3  and  O_4 
REMARK    3  A    between atoms: O_4  and  C_5 
REMARK    4  A    between atoms: C_8  and  C_9 
REMARK    5  A    between atoms: N_10  and  N_11 
REMARK       I    between atoms: N_11  and  C_12 
REMARK    6  A    between atoms: C_12  and  C_13 
REMARK    7  A    between atoms: C_17  and  C_18 
REMARK    8  A    between atoms: C_21  and  O_22 
REMARK    9  A    between atoms: O_22  and  C_23 
ROOT
HETATM    1  N   UNL     1     -33.599  40.278 -51.965  1.00  0.00    -0.242 N 
HETATM    2  C   UNL     1     -33.213  39.029 -51.505  1.00  0.00     0.289 C 
HETATM    3  O   UNL     1     -33.211  38.009 -52.190  1.00  0.00    -0.264 OA
HETATM    4  H   UNL     1     -33.619  41.075 -51.342  1.00  0.00     0.192 HD
ENDROOT
BRANCH   2   5
HETATM    5  C   UNL     1     -32.813  38.990 -50.120  1.00  0.00     0.121 A 
HETATM    6  N   UNL     1     -33.417  38.138 -49.238  1.00  0.00    -0.272 N 
HETATM    7  H   UNL     1     -34.160  37.476 -49.447  1.00  0.00     0.189 HD
HETATM    8  N   UNL     1     -32.961  38.233 -47.981  1.00  0.00    -0.174 NA
HETATM    9  C   UNL     1     -31.990  39.157 -48.041  1.00  0.00     0.089 A 
HETATM   10  C   UNL     1     -31.870  39.661 -49.367  1.00  0.00     0.071 A 
BRANCH   9  11
HETATM   11  C   UNL     1     -31.223  39.543 -46.853  1.00  0.00    -0.005 A 
HETATM   12  C   UNL     1     -30.379  40.659 -46.865  1.00  0.00     0.016 A 
HETATM   13  C   UNL     1     -29.667  41.023 -45.717  1.00  0.00     0.037 A 
HETATM   14  C   UNL     1     -29.789  40.286 -44.537  1.00  0.00     0.068 A 
HETATM   15  C   UNL     1     -30.615  39.164 -44.520  1.00  0.00     0.037 A 
HETATM   16  C   UNL     1     -31.324  38.797 -45.670  1.00  0.00     0.016 A 
BRANCH  14  17
HETATM   17  O   UNL     1     -29.048  40.757 -43.489  1.00  0.00    -0.352 OA
BRANCH  17  18
HETATM   18  C   UNL     1     -28.408  39.786 -42.664  1.00  0.00     0.171 C 
HETATM   19  C   UNL     1     -27.082  39.424 -43.310  1.00  0.00     0.034 C 
ENDBRANCH  17  18
ENDBRANCH  14  17
ENDBRANCH   9  11
ENDBRANCH   2   5
BRANCH   1  20
HETATM   20  N   UNL     1     -33.995  40.433 -53.261  1.00  0.00    -0.184 NA
HETATM   21  C   UNL     1     -34.955  41.274 -53.468  1.00  0.00     0.150 C 
BRANCH  21  22
HETATM   22  C   UNL     1     -35.468  41.532 -54.829  1.00  0.00    -0.017 A 
HETATM   23  C   UNL     1     -36.834  41.731 -55.046  1.00  0.00     0.016 A 
HETATM   24  C   UNL     1     -37.310  41.972 -56.340  1.00  0.00     0.037 A 
HETATM   25  C   UNL     1     -36.424  42.014 -57.417  1.00  0.00     0.068 A 
HETATM   26  C   UNL     1     -35.058  41.814 -57.189  1.00  0.00     0.037 A 
HETATM   27  C   UNL     1     -34.575  41.572 -55.900  1.00  0.00     0.016 A 
BRANCH  25  28
HETATM   28  O   UNL     1     -36.759  42.241 -58.723  1.00  0.00    -0.351 OA
BRANCH  28  29
HETATM   29  C   UNL     1     -37.724  41.365 -59.306  1.00  0.00     0.175 C 
BRANCH  29  30
HETATM   30  C   UNL     1     -36.972  40.256 -60.037  1.00  0.00     0.022 C 
HETATM   31  C   UNL     1     -37.915  39.187 -60.561  1.00  0.00     0.007 C 
ENDBRANCH  29  30
ENDBRANCH  28  29
ENDBRANCH  25  28
ENDBRANCH  21  22
ENDBRANCH   1  20
TORSDOF 9
ENDMDL
MODEL 6
REMARK VINA RESULT:      -6.3      1.234      2.080
REMARK  9 active torsions:
REMARK  status: ('A' for Active; 'I' for Inactive)
REMARK    1  A    between atoms: C_2  and  C_3 
REMARK    2  A    between atoms: C_3  and  O_4 
REMARK    3  A    between atoms: O_4  and  C_5 
REMARK    4  A    between atoms: C_8  and  C_9 
REMARK    5  A    between atoms: N_10  and  N_11 
REMARK       I    between atoms: N_11  and  C_12 
REMARK    6  A    between atoms: C_12  and  C_13 
REMARK    7  A    between atoms: C_17  and  C_18 
REMARK    8  A    between atoms: C_21  and  O_22 
REMARK    9  A    between atoms: O_22  and  C_23 
ROOT
HETATM    1  N   UNL     1     -43.813  56.788 -56.764  1.00  0.00    -0.242 N 
HETATM    2  C   UNL     1     -43.721  56.428 -58.100  1.00  0.00     0.289 C 
HETATM    3  O   UNL     1     -42.928  55.600 -58.541  1.00  0.00    -0.264 OA
HETATM    4  H   UNL     1     -44.459  57.507 -56.467  1.00  0.00     0.192 HD
ENDROOT
BRANCH   2   5
HETATM    5  C   UNL     1     -44.634  57.117 -58.978  1.00  0.00     0.121 A 
HETATM    6  N   UNL     1     -44.352  58.373 -59.438  1.00  0.00    -0.272 N 
HETATM    7  H   UNL     1     -43.522  58.922 -59.233  1.00  0.00     0.189 HD
HETATM    8  N   UNL     1     -45.304  58.899 -60.221  1.00  0.00    -0.174 NA
HETATM    9  C   UNL     1     -46.236  57.938 -60.315  1.00  0.00     0.089 A 
HETATM   10  C   UNL     1     -45.854  56.804 -59.542  1.00  0.00     0.071 A 
BRANCH   9  11
HETATM   11  C   UNL     1     -47.454  58.123 -61.110  1.00  0.00    -0.005 A 
HETATM   12  C   UNL     1     -48.068  57.046 -61.759  1.00  0.00     0.016 A 
HETATM   13  C   UNL     1     -49.239  57.238 -62.500  1.00  0.00     0.037 A 
HETATM   14  C   UNL     1     -49.821  58.503 -62.602  1.00  0.00     0.068 A 
HETATM   15  C   UNL     1     -49.208  59.585 -61.972  1.00  0.00     0.037 A 
HETATM   16  C   UNL     1     -48.033  59.394 -61.234  1.00  0.00     0.016 A 
BRANCH  14  17
HETATM   17  O   UNL     1     -50.967  58.548 -63.345  1.00  0.00    -0.352 OA
BRANCH  17  18
HETATM   18  C   UNL     1     -52.113  59.132 -62.729  1.00  0.00     0.171 C 
HETATM   19  C   UNL     1     -53.098  59.496 -63.824  1.00  0.00     0.034 C 
ENDBRANCH  17  18
ENDBRANCH  14  17
ENDBRANCH   9  11
ENDBRANCH   2   5
BRANCH   1  20
HETATM   20  N   UNL     1     -42.998  56.197 -55.844  1.00  0.00    -0.184 NA
HETATM   21  C   UNL     1     -43.569  55.382 -55.018  1.00  0.00     0.150 C 
BRANCH  21  22
HETATM   22  C   UNL     1     -42.793  54.676 -53.978  1.00  0.00    -0.017 A 
HETATM   23  C   UNL     1     -41.611  54.008 -54.305  1.00  0.00     0.016 A 
HETATM   24  C   UNL     1     -40.885  53.340 -53.313  1.00  0.00     0.037 A 
HETATM   25  C   UNL     1     -41.337  53.340 -51.993  1.00  0.00     0.068 A 
HETATM   26  C   UNL     1     -42.522  54.012 -51.674  1.00  0.00     0.037 A 
HETATM   27  C   UNL     1     -43.254  54.680 -52.661  1.00  0.00     0.016 A 
BRANCH  25  28
HETATM   28  O   UNL     1     -40.723  52.730 -50.934  1.00  0.00    -0.351 OA
BRANCH  28  29
HETATM   29  C   UNL     1     -39.445  53.236 -50.550  1.00  0.00     0.175 C 
BRANCH  29  30
HETATM   30  C   UNL     1     -39.667  54.389 -49.576  1.00  0.00     0.022 C 
HETATM   31  C   UNL     1     -40.449  53.949 -48.350  1.00  0.00     0.007 C 
ENDBRANCH  29  30
ENDBRANCH  28  29
ENDBRANCH  25  28
ENDBRANCH  21  22
ENDBRANCH   1  20
TORSDOF 9
ENDMDL
MODEL 7
REMARK VINA RESULT:      -6.3     17.641     20.456
REMARK  9 active torsions:
REMARK  status: ('A' for Active; 'I' for Inactive)
REMARK    1  A    between atoms: C_2  and  C_3 
REMARK    2  A    between atoms: C_3  and  O_4 
REMARK    3  A    between atoms: O_4  and  C_5 
REMARK    4  A    between atoms: C_8  and  C_9 
REMARK    5  A    between atoms: N_10  and  N_11 
REMARK       I    between atoms: N_11  and  C_12 
REMARK    6  A    between atoms: C_12  and  C_13 
REMARK    7  A    between atoms: C_17  and  C_18 
REMARK    8  A    between atoms: C_21  and  O_22 
REMARK    9  A    between atoms: O_22  and  C_23 
ROOT
HETATM    1  N   UNL     1     -33.171  39.934 -51.078  1.00  0.00    -0.242 N 
HETATM    2  C   UNL     1     -33.886  40.979 -51.644  1.00  0.00     0.289 C 
HETATM    3  O   UNL     1     -34.378  41.906 -51.006  1.00  0.00    -0.264 OA
HETATM    4  H   UNL     1     -32.824  39.176 -51.651  1.00  0.00     0.192 HD
ENDROOT
BRANCH   2   5
HETATM    5  C   UNL     1     -34.036  40.905 -53.076  1.00  0.00     0.121 A 
HETATM    6  N   UNL     1     -32.944  40.817 -53.894  1.00  0.00    -0.272 N 
HETATM    7  H   UNL     1     -31.971  40.789 -53.604  1.00  0.00     0.189 HD
HETATM    8  N   UNL     1     -33.236  40.784 -55.201  1.00  0.00    -0.174 NA
HETATM    9  C   UNL     1     -34.577  40.812 -55.251  1.00  0.00     0.089 A 
HETATM   10  C   UNL     1     -35.117  40.894 -53.935  1.00  0.00     0.071 A 
BRANCH   9  11
HETATM   11  C   UNL     1     -35.300  40.776 -56.525  1.00  0.00    -0.005 A 
HETATM   12  C   UNL     1     -36.023  41.885 -56.980  1.00  0.00     0.016 A 
HETATM   13  C   UNL     1     -36.695  41.839 -58.207  1.00  0.00     0.037 A 
HETATM   14  C   UNL     1     -36.651  40.692 -59.003  1.00  0.00     0.068 A 
HETATM   15  C   UNL     1     -35.947  39.578 -58.550  1.00  0.00     0.037 A 
HETATM   16  C   UNL     1     -35.279  39.622 -57.320  1.00  0.00     0.016 A 
BRANCH  14  17
HETATM   17  O   UNL     1     -37.340  40.786 -60.180  1.00  0.00    -0.352 OA
BRANCH  17  18
HETATM   18  C   UNL     1     -37.369  39.623 -61.005  1.00  0.00     0.171 C 
HETATM   19  C   UNL     1     -38.636  38.852 -60.682  1.00  0.00     0.034 C 
ENDBRANCH  17  18
ENDBRANCH  14  17
ENDBRANCH   9  11
ENDBRANCH   2   5
BRANCH   1  20
HETATM   20  N   UNL     1     -32.965  39.903 -49.731  1.00  0.00    -0.184 NA
HETATM   21  C   UNL     1     -31.806  39.481 -49.340  1.00  0.00     0.150 C 
BRANCH  21  22
HETATM   22  C   UNL     1     -31.460  39.406 -47.906  1.00  0.00    -0.017 A 
HETATM   23  C   UNL     1     -32.108  38.497 -47.067  1.00  0.00     0.016 A 
HETATM   24  C   UNL     1     -31.776  38.436 -45.709  1.00  0.00     0.037 A 
HETATM   25  C   UNL     1     -30.795  39.282 -45.189  1.00  0.00     0.068 A 
HETATM   26  C   UNL     1     -30.151  40.189 -46.038  1.00  0.00     0.037 A 
HETATM   27  C   UNL     1     -30.480  40.257 -47.395  1.00  0.00     0.016 A 
BRANCH  25  28
HETATM   28  O   UNL     1     -30.377  39.321 -43.887  1.00  0.00    -0.351 OA
BRANCH  28  29
HETATM   29  C   UNL     1     -28.975  39.194 -43.654  1.00  0.00     0.175 C 
BRANCH  29  30
HETATM   30  C   UNL     1     -28.521  40.402 -42.839  1.00  0.00     0.022 C 
HETATM   31  C   UNL     1     -27.089  40.249 -42.355  1.00  0.00     0.007 C 
ENDBRANCH  29  30
ENDBRANCH  28  29
ENDBRANCH  25  28
ENDBRANCH  21  22
ENDBRANCH   1  20
TORSDOF 9
ENDMDL
MODEL 8
REMARK VINA RESULT:      -6.3      1.545      2.171
REMARK  9 active torsions:
REMARK  status: ('A' for Active; 'I' for Inactive)
REMARK    1  A    between atoms: C_2  and  C_3 
REMARK    2  A    between atoms: C_3  and  O_4 
REMARK    3  A    between atoms: O_4  and  C_5 
REMARK    4  A    between atoms: C_8  and  C_9 
REMARK    5  A    between atoms: N_10  and  N_11 
REMARK       I    between atoms: N_11  and  C_12 
REMARK    6  A    between atoms: C_12  and  C_13 
REMARK    7  A    between atoms: C_17  and  C_18 
REMARK    8  A    between atoms: C_21  and  O_22 
REMARK    9  A    between atoms: O_22  and  C_23 
ROOT
HETATM    1  N   UNL     1     -43.691  56.317 -57.324  1.00  0.00    -0.242 N 
HETATM    2  C   UNL     1     -43.640  56.447 -58.704  1.00  0.00     0.289 C 
HETATM    3  O   UNL     1     -42.862  55.833 -59.428  1.00  0.00    -0.264 OA
HETATM    4  H   UNL     1     -44.327  56.880 -56.776  1.00  0.00     0.192 HD
ENDROOT
BRANCH   2   5
HETATM    5  C   UNL     1     -44.578  57.391 -59.258  1.00  0.00     0.121 A 
HETATM    6  N   UNL     1     -44.193  58.282 -60.220  1.00  0.00    -0.272 N 
HETATM    7  H   UNL     1     -43.267  58.369 -60.630  1.00  0.00     0.189 HD
HETATM    8  N   UNL     1     -45.163  59.116 -60.620  1.00  0.00    -0.174 NA
HETATM    9  C   UNL     1     -46.245  58.736 -59.924  1.00  0.00     0.089 A 
HETATM   10  C   UNL     1     -45.917  57.658 -59.052  1.00  0.00     0.071 A 
BRANCH   9  11
HETATM   11  C   UNL     1     -47.539  59.405 -60.088  1.00  0.00    -0.005 A 
HETATM   12  C   UNL     1     -48.245  59.333 -61.295  1.00  0.00     0.016 A 
HETATM   13  C   UNL     1     -49.487  59.965 -61.429  1.00  0.00     0.037 A 
HETATM   14  C   UNL     1     -50.048  60.671 -60.363  1.00  0.00     0.068 A 
HETATM   15  C   UNL     1     -49.345  60.761 -59.163  1.00  0.00     0.037 A 
HETATM   16  C   UNL     1     -48.101  60.133 -59.030  1.00  0.00     0.016 A 
BRANCH  14  17
HETATM   17  O   UNL     1     -51.268  61.228 -60.626  1.00  0.00    -0.352 OA
BRANCH  17  18
HETATM   18  C   UNL     1     -52.305  60.988 -59.675  1.00  0.00     0.171 C 
HETATM   19  C   UNL     1     -52.782  62.332 -59.155  1.00  0.00     0.034 C 
ENDBRANCH  17  18
ENDBRANCH  14  17
ENDBRANCH   9  11
ENDBRANCH   2   5
BRANCH   1  20
HETATM   20  N   UNL     1     -42.850  55.449 -56.693  1.00  0.00    -0.184 NA
HETATM   21  C   UNL     1     -42.920  55.425 -55.401  1.00  0.00     0.150 C 
BRANCH  21  22
HETATM   22  C   UNL     1     -42.064  54.524 -54.603  1.00  0.00    -0.017 A 
HETATM   23  C   UNL     1     -40.959  53.896 -55.184  1.00  0.00     0.016 A 
HETATM   24  C   UNL     1     -40.156  53.042 -54.420  1.00  0.00     0.037 A 
HETATM   25  C   UNL     1     -40.454  52.815 -53.077  1.00  0.00     0.068 A 
HETATM   26  C   UNL     1     -41.563  53.449 -52.503  1.00  0.00     0.037 A 
HETATM   27  C   UNL     1     -42.371  54.302 -53.261  1.00  0.00     0.016 A 
BRANCH  25  28
HETATM   28  O   UNL     1     -39.752  52.009 -52.224  1.00  0.00    -0.351 OA
BRANCH  28  29
HETATM   29  C   UNL     1     -39.325  50.745 -52.732  1.00  0.00     0.175 C 
BRANCH  29  30
HETATM   30  C   UNL     1     -39.678  49.678 -51.700  1.00  0.00     0.022 C 
HETATM   31  C   UNL     1     -40.014  50.290 -50.351  1.00  0.00     0.007 C 
ENDBRANCH  29  30
ENDBRANCH  28  29
ENDBRANCH  25  28
ENDBRANCH  21  22
ENDBRANCH   1  20
TORSDOF 9
ENDMDL
MODEL 9
REMARK VINA RESULT:      -6.2      2.485     12.412
REMARK  9 active torsions:
REMARK  status: ('A' for Active; 'I' for Inactive)
REMARK    1  A    between atoms: C_2  and  C_3 
REMARK    2  A    between atoms: C_3  and  O_4 
REMARK    3  A    between atoms: O_4  and  C_5 
REMARK    4  A    between atoms: C_8  and  C_9 
REMARK    5  A    between atoms: N_10  and  N_11 
REMARK       I    between atoms: N_11  and  C_12 
REMARK    6  A    between atoms: C_12  and  C_13 
REMARK    7  A    between atoms: C_17  and  C_18 
REMARK    8  A    between atoms: C_21  and  O_22 
REMARK    9  A    between atoms: O_22  and  C_23 
ROOT
HETATM    1  N   UNL     1     -45.419  57.426 -55.744  1.00  0.00    -0.242 N 
HETATM    2  C   UNL     1     -45.030  57.921 -54.508  1.00  0.00     0.289 C 
HETATM    3  O   UNL     1     -45.325  59.035 -54.085  1.00  0.00    -0.264 OA
HETATM    4  H   UNL     1     -45.111  56.514 -56.055  1.00  0.00     0.192 HD
ENDROOT
BRANCH   2   5
HETATM    5  C   UNL     1     -44.215  57.025 -53.726  1.00  0.00     0.121 A 
HETATM    6  N   UNL     1     -44.278  57.028 -52.361  1.00  0.00    -0.272 N 
HETATM    7  H   UNL     1     -44.871  57.618 -51.783  1.00  0.00     0.189 HD
HETATM    8  N   UNL     1     -43.444  56.163 -51.768  1.00  0.00    -0.174 NA
HETATM    9  C   UNL     1     -42.832  55.532 -52.782  1.00  0.00     0.089 A 
HETATM   10  C   UNL     1     -43.285  56.050 -54.030  1.00  0.00     0.071 A 
BRANCH   9  11
HETATM   11  C   UNL     1     -41.837  54.483 -52.546  1.00  0.00    -0.005 A 
HETATM   12  C   UNL     1     -41.378  54.194 -51.256  1.00  0.00     0.016 A 
HETATM   13  C   UNL     1     -40.439  53.178 -51.047  1.00  0.00     0.037 A 
HETATM   14  C   UNL     1     -39.948  52.428 -52.118  1.00  0.00     0.068 A 
HETATM   15  C   UNL     1     -40.387  52.718 -53.408  1.00  0.00     0.037 A 
HETATM   16  C   UNL     1     -41.323  53.739 -53.618  1.00  0.00     0.016 A 
BRANCH  14  17
HETATM   17  O   UNL     1     -39.046  51.460 -51.773  1.00  0.00    -0.352 OA
BRANCH  17  18
HETATM   18  C   UNL     1     -39.575  50.182 -51.424  1.00  0.00     0.171 C 
HETATM   19  C   UNL     1     -39.615  49.333 -52.682  1.00  0.00     0.034 C 
ENDBRANCH  17  18
ENDBRANCH  14  17
ENDBRANCH   9  11
ENDBRANCH   2   5
BRANCH   1  20
HETATM   20  N   UNL     1     -46.195  58.188 -56.566  1.00  0.00    -0.184 NA
HETATM   21  C   UNL     1     -46.077  57.960 -57.834  1.00  0.00     0.150 C 
BRANCH  21  22
HETATM   22  C   UNL     1     -46.867  58.717 -58.826  1.00  0.00    -0.017 A 
HETATM   23  C   UNL     1     -47.674  59.784 -58.426  1.00  0.00     0.016 A 
HETATM   24  C   UNL     1     -48.421  60.493 -59.373  1.00  0.00     0.037 A 
HETATM   25  C   UNL     1     -48.362  60.137 -60.721  1.00  0.00     0.068 A 
HETATM   26  C   UNL     1     -47.549  59.067 -61.113  1.00  0.00     0.037 A 
HETATM   27  C   UNL     1     -46.802  58.353 -60.172  1.00  0.00     0.016 A 
BRANCH  25  28
HETATM   28  O   UNL     1     -49.037  60.747 -61.742  1.00  0.00    -0.351 OA
BRANCH  28  29
HETATM   29  C   UNL     1     -50.420  60.424 -61.887  1.00  0.00     0.175 C 
BRANCH  29  30
HETATM   30  C   UNL     1     -50.659  60.016 -63.339  1.00  0.00     0.022 C 
HETATM   31  C   UNL     1     -50.284  58.565 -63.585  1.00  0.00     0.007 C 
ENDBRANCH  29  30
ENDBRANCH  28  29
ENDBRANCH  25  28
ENDBRANCH  21  22
ENDBRANCH   1  20
TORSDOF 9
ENDMDL
MODEL 10
REMARK VINA RESULT:      -6.1      2.034      2.191
REMARK  9 active torsions:
REMARK  status: ('A' for Active; 'I' for Inactive)
REMARK    1  A    between atoms: C_2  and  C_3 
REMARK    2  A    between atoms: C_3  and  O_4 
REMARK    3  A    between atoms: O_4  and  C_5 
REMARK    4  A    between atoms: C_8  and  C_9 
REMARK    5  A    between atoms: N_10  and  N_11 
REMARK       I    between atoms: N_11  and  C_12 
REMARK    6  A    between atoms: C_12  and  C_13 
REMARK    7  A    between atoms: C_17  and  C_18 
REMARK    8  A    between atoms: C_21  and  O_22 
REMARK    9  A    between atoms: O_22  and  C_23 
ROOT
HETATM    1  N   UNL     1     -43.529  57.231 -55.840  1.00  0.00    -0.242 N 
HETATM    2  C   UNL     1     -44.706  57.790 -55.365  1.00  0.00     0.289 C 
HETATM    3  O   UNL     1     -45.079  57.728 -54.197  1.00  0.00    -0.264 OA
HETATM    4  H   UNL     1     -43.294  57.279 -56.822  1.00  0.00     0.192 HD
ENDROOT
BRANCH   2   5
HETATM    5  C   UNL     1     -45.504  58.459 -56.362  1.00  0.00     0.121 A 
HETATM    6  N   UNL     1     -45.879  59.764 -56.201  1.00  0.00    -0.272 N 
HETATM    7  H   UNL     1     -45.647  60.369 -55.418  1.00  0.00     0.189 HD
HETATM    8  N   UNL     1     -46.641  60.245 -57.193  1.00  0.00    -0.174 NA
HETATM    9  C   UNL     1     -46.743  59.230 -58.065  1.00  0.00     0.089 A 
HETATM   10  C   UNL     1     -46.047  58.087 -57.576  1.00  0.00     0.071 A 
BRANCH   9  11
HETATM   11  C   UNL     1     -47.500  59.362 -59.313  1.00  0.00    -0.005 A 
HETATM   12  C   UNL     1     -48.423  60.398 -59.497  1.00  0.00     0.016 A 
HETATM   13  C   UNL     1     -49.125  60.519 -60.701  1.00  0.00     0.037 A 
HETATM   14  C   UNL     1     -48.915  59.613 -61.744  1.00  0.00     0.068 A 
HETATM   15  C   UNL     1     -48.010  58.569 -61.565  1.00  0.00     0.037 A 
HETATM   16  C   UNL     1     -47.311  58.445 -60.358  1.00  0.00     0.016 A 
BRANCH  14  17
HETATM   17  O   UNL     1     -49.656  59.853 -62.867  1.00  0.00    -0.352 OA
BRANCH  17  18
HETATM   18  C   UNL     1     -50.577  58.837 -63.261  1.00  0.00     0.171 C 
HETATM   19  C   UNL     1     -51.742  58.859 -62.289  1.00  0.00     0.034 C 
ENDBRANCH  17  18
ENDBRANCH  14  17
ENDBRANCH   9  11
ENDBRANCH   2   5
BRANCH   1  20
HETATM   20  N   UNL     1     -42.695  56.575 -54.984  1.00  0.00    -0.184 NA
HETATM   21  C   UNL     1     -42.772  55.284 -54.990  1.00  0.00     0.150 C 
BRANCH  21  22
HETATM   22  C   UNL     1     -41.917  54.460 -54.110  1.00  0.00    -0.017 A 
HETATM   23  C   UNL     1     -41.760  54.791 -52.762  1.00  0.00     0.016 A 
HETATM   24  C   UNL     1     -40.945  54.006 -51.938  1.00  0.00     0.037 A 
HETATM   25  C   UNL     1     -40.288  52.891 -52.459  1.00  0.00     0.068 A 
HETATM   26  C   UNL     1     -40.453  52.567 -53.811  1.00  0.00     0.037 A 
HETATM   27  C   UNL     1     -41.264  53.348 -54.641  1.00  0.00     0.016 A 
BRANCH  25  28
HETATM   28  O   UNL     1     -39.470  52.044 -51.764  1.00  0.00    -0.351 OA
BRANCH  28  29
HETATM   29  C   UNL     1     -40.071  51.269 -50.727  1.00  0.00     0.175 C 
BRANCH  29  30
HETATM   30  C   UNL     1     -39.594  49.828 -50.878  1.00  0.00     0.022 C 
HETATM   31  C   UNL     1     -39.637  49.370 -52.326  1.00  0.00     0.007 C 
ENDBRANCH  29  30
ENDBRANCH  28  29
ENDBRANCH  25  28
ENDBRANCH  21  22
ENDBRANCH   1  20
TORSDOF 9
ENDMDL
