MODEL 1
REMARK VINA RESULT:      -7.7      0.000      0.000
REMARK  5 active torsions:
REMARK  status: ('A' for Active; 'I' for Inactive)
REMARK    1  A    between atoms: C_2  and  C_3 
REMARK    2  A    between atoms: C_3  and  N_4 
REMARK    3  A    between atoms: C_7  and  C_8 
REMARK    4  A    between atoms: C_8  and  O_9 
REMARK    5  A    between atoms: N_13  and  C_15 
ROOT
HETATM    1  N   UNL     1     -42.070  55.295 -53.872  1.00  0.00    -0.067 N 
HETATM    2  H   UNL     1     -42.395  54.826 -53.015  1.00  0.00     0.280 HD
HETATM    3  C   UNL     1     -42.257  56.766 -53.604  1.00  0.00     0.242 C 
HETATM    4  C   UNL     1     -42.048  57.612 -54.884  1.00  0.00     0.044 C 
HETATM    5  C   UNL     1     -42.974  57.165 -56.083  1.00  0.00    -0.029 C 
HETATM    6  C   UNL     1     -44.494  57.424 -55.844  1.00  0.00     0.037 C 
HETATM    7  C   UNL     1     -45.023  58.796 -56.271  1.00  0.00     0.236 C 
HETATM    8  N   UNL     1     -44.664  59.094 -57.707  1.00  0.00    -0.067 N 
HETATM    9  H   UNL     1     -44.977  60.063 -57.867  1.00  0.00     0.280 HD
HETATM   10  C   UNL     1     -43.157  59.149 -57.820  1.00  0.00     0.236 C 
HETATM   11  C   UNL     1     -42.530  57.809 -57.440  1.00  0.00     0.037 C 
HETATM   12  C   UNL     1     -42.741  55.618 -56.243  1.00  0.00     0.037 C 
HETATM   13  C   UNL     1     -42.946  54.794 -54.975  1.00  0.00     0.236 C 
ENDROOT
BRANCH   4  14
HETATM   14  C   UNL     1     -42.102  59.092 -54.483  1.00  0.00     0.171 C 
BRANCH  14  15
HETATM   15  O   UNL     1     -40.835  59.447 -53.957  1.00  0.00    -0.400 OA
HETATM   16  H   UNL     1     -40.434  58.664 -53.529  1.00  0.00     0.209 HD
ENDBRANCH  14  15
ENDBRANCH   4  14
BRANCH   1  17
HETATM   17  C   UNL     1     -40.618  54.841 -53.972  1.00  0.00     0.273 C 
BRANCH  17  18
HETATM   18  C   UNL     1     -40.348  53.562 -53.223  1.00  0.00    -0.033 A 
HETATM   19  C   UNL     1     -40.369  53.537 -51.818  1.00  0.00     0.010 A 
HETATM   20  C   UNL     1     -40.059  52.362 -51.128  1.00  0.00     0.024 A 
HETATM   21  C   UNL     1     -39.732  51.206 -51.831  1.00  0.00     0.034 A 
HETATM   22  C   UNL     1     -39.720  51.212 -53.224  1.00  0.00     0.024 A 
HETATM   23 CL   UNL     1     -39.335  49.768 -50.979  1.00  0.00    -0.084 Cl
HETATM   24  C   UNL     1     -40.027  52.384 -53.918  1.00  0.00     0.010 A 
ENDBRANCH  17  18
ENDBRANCH   1  17
BRANCH   8  25
HETATM   25  C   UNL     1     -45.397  58.251 -58.788  1.00  0.00     0.192 C 
HETATM   26  C   UNL     1     -46.923  58.307 -58.613  1.00  0.00     0.059 C 
HETATM   27  C   UNL     1     -47.482  59.672 -58.984  1.00  0.00     0.169 C 
HETATM   28  O   UNL     1     -47.096  60.016 -60.306  1.00  0.00    -0.391 OA
HETATM   29  C   UNL     1     -45.692  60.074 -60.519  1.00  0.00     0.169 C 
HETATM   30  C   UNL     1     -45.057  58.728 -60.208  1.00  0.00     0.059 C 
ENDBRANCH   8  25
TORSDOF 5
ENDMDL
MODEL 2
REMARK VINA RESULT:      -7.7      3.837      4.698
REMARK  5 active torsions:
REMARK  status: ('A' for Active; 'I' for Inactive)
REMARK    1  A    between atoms: C_2  and  C_3 
REMARK    2  A    between atoms: C_3  and  N_4 
REMARK    3  A    between atoms: C_7  and  C_8 
REMARK    4  A    between atoms: C_8  and  O_9 
REMARK    5  A    between atoms: N_13  and  C_15 
ROOT
HETATM    1  N   UNL     1     -41.900  54.216 -54.978  1.00  0.00    -0.067 N 
HETATM    2  H   UNL     1     -42.322  53.503 -55.590  1.00  0.00     0.280 HD
HETATM    3  C   UNL     1     -42.648  54.103 -53.676  1.00  0.00     0.242 C 
HETATM    4  C   UNL     1     -42.307  55.270 -52.717  1.00  0.00     0.044 C 
HETATM    5  C   UNL     1     -42.559  56.693 -53.355  1.00  0.00    -0.029 C 
HETATM    6  C   UNL     1     -44.061  57.011 -53.631  1.00  0.00     0.037 C 
HETATM    7  C   UNL     1     -44.838  57.662 -52.483  1.00  0.00     0.236 C 
HETATM    8  N   UNL     1     -44.130  58.896 -51.978  1.00  0.00    -0.067 N 
HETATM    9  H   UNL     1     -44.673  59.202 -51.158  1.00  0.00     0.280 HD
HETATM   10  C   UNL     1     -42.787  58.480 -51.421  1.00  0.00     0.236 C 
HETATM   11  C   UNL     1     -41.918  57.840 -52.503  1.00  0.00     0.037 C 
HETATM   12  C   UNL     1     -41.781  56.685 -54.722  1.00  0.00     0.037 C 
HETATM   13  C   UNL     1     -42.121  55.530 -55.658  1.00  0.00     0.236 C 
ENDROOT
BRANCH   4  14
HETATM   14  C   UNL     1     -42.988  54.986 -51.371  1.00  0.00     0.171 C 
BRANCH  14  15
HETATM   15  O   UNL     1     -44.054  54.082 -51.604  1.00  0.00    -0.400 OA
HETATM   16  H   UNL     1     -43.787  53.441 -52.293  1.00  0.00     0.209 HD
ENDBRANCH  14  15
ENDBRANCH   4  14
BRANCH   1  17
HETATM   17  C   UNL     1     -40.439  53.783 -54.918  1.00  0.00     0.273 C 
BRANCH  17  18
HETATM   18  C   UNL     1     -40.186  52.703 -53.898  1.00  0.00    -0.033 A 
HETATM   19  C   UNL     1     -39.916  53.033 -52.559  1.00  0.00     0.010 A 
HETATM   20  C   UNL     1     -39.624  52.031 -51.629  1.00  0.00     0.024 A 
HETATM   21  C   UNL     1     -39.603  50.697 -52.027  1.00  0.00     0.034 A 
HETATM   22  C   UNL     1     -39.881  50.353 -53.347  1.00  0.00     0.024 A 
HETATM   23 CL   UNL     1     -39.226  49.469 -50.885  1.00  0.00    -0.084 Cl
HETATM   24  C   UNL     1     -40.172  51.351 -54.280  1.00  0.00     0.010 A 
ENDBRANCH  17  18
ENDBRANCH   1  17
BRANCH   8  25
HETATM   25  C   UNL     1     -44.119  60.121 -52.935  1.00  0.00     0.192 C 
HETATM   26  C   UNL     1     -45.528  60.447 -53.454  1.00  0.00     0.059 C 
HETATM   27  C   UNL     1     -46.410  61.030 -52.361  1.00  0.00     0.169 C 
HETATM   28  O   UNL     1     -45.789  62.171 -51.788  1.00  0.00    -0.391 OA
HETATM   29  C   UNL     1     -44.518  61.925 -51.203  1.00  0.00     0.169 C 
HETATM   30  C   UNL     1     -43.557  61.375 -52.246  1.00  0.00     0.059 C 
ENDBRANCH   8  25
TORSDOF 5
ENDMDL
MODEL 3
REMARK VINA RESULT:      -7.5      3.838      5.664
REMARK  5 active torsions:
REMARK  status: ('A' for Active; 'I' for Inactive)
REMARK    1  A    between atoms: C_2  and  C_3 
REMARK    2  A    between atoms: C_3  and  N_4 
REMARK    3  A    between atoms: C_7  and  C_8 
REMARK    4  A    between atoms: C_8  and  O_9 
REMARK    5  A    between atoms: N_13  and  C_15 
ROOT
HETATM    1  N   UNL     1     -41.413  56.060 -52.485  1.00  0.00    -0.067 N 
HETATM    2  H   UNL     1     -40.538  55.859 -52.989  1.00  0.00     0.280 HD
HETATM    3  C   UNL     1     -42.404  56.431 -53.557  1.00  0.00     0.242 C 
HETATM    4  C   UNL     1     -43.711  57.001 -52.956  1.00  0.00     0.044 C 
HETATM    5  C   UNL     1     -43.470  58.237 -52.002  1.00  0.00    -0.029 C 
HETATM    6  C   UNL     1     -42.940  59.510 -52.730  1.00  0.00     0.037 C 
HETATM    7  C   UNL     1     -44.000  60.463 -53.288  1.00  0.00     0.236 C 
HETATM    8  N   UNL     1     -44.997  60.851 -52.222  1.00  0.00    -0.067 N 
HETATM    9  H   UNL     1     -45.712  61.409 -52.712  1.00  0.00     0.280 HD
HETATM   10  C   UNL     1     -45.721  59.603 -51.769  1.00  0.00     0.236 C 
HETATM   11  C   UNL     1     -44.746  58.593 -51.166  1.00  0.00     0.037 C 
HETATM   12  C   UNL     1     -42.392  57.761 -50.960  1.00  0.00     0.037 C 
HETATM   13  C   UNL     1     -41.108  57.197 -51.562  1.00  0.00     0.236 C 
ENDROOT
BRANCH   4  14
HETATM   14  C   UNL     1     -44.710  57.200 -54.105  1.00  0.00     0.171 C 
BRANCH  14  15
HETATM   15  O   UNL     1     -45.120  55.919 -54.550  1.00  0.00    -0.400 OA
HETATM   16  H   UNL     1     -45.725  56.022 -55.312  1.00  0.00     0.209 HD
ENDBRANCH  14  15
ENDBRANCH   4  14
BRANCH   1  17
HETATM   17  C   UNL     1     -41.700  54.741 -51.775  1.00  0.00     0.273 C 
BRANCH  17  18
HETATM   18  C   UNL     1     -41.047  53.558 -52.444  1.00  0.00    -0.033 A 
HETATM   19  C   UNL     1     -41.398  53.194 -53.755  1.00  0.00     0.010 A 
HETATM   20  C   UNL     1     -40.832  52.061 -54.348  1.00  0.00     0.024 A 
HETATM   21  C   UNL     1     -39.913  51.290 -53.642  1.00  0.00     0.034 A 
HETATM   22  C   UNL     1     -39.546  51.647 -52.347  1.00  0.00     0.024 A 
HETATM   23 CL   UNL     1     -39.234  49.889 -54.369  1.00  0.00    -0.084 Cl
HETATM   24  C   UNL     1     -40.109  52.776 -51.749  1.00  0.00     0.010 A 
ENDBRANCH  17  18
ENDBRANCH   1  17
BRANCH   8  25
HETATM   25  C   UNL     1     -44.468  61.778 -51.092  1.00  0.00     0.192 C 
HETATM   26  C   UNL     1     -43.916  63.098 -51.652  1.00  0.00     0.059 C 
HETATM   27  C   UNL     1     -45.028  63.998 -52.171  1.00  0.00     0.169 C 
HETATM   28  O   UNL     1     -45.989  64.226 -51.151  1.00  0.00    -0.391 OA
HETATM   29  C   UNL     1     -46.610  63.052 -50.647  1.00  0.00     0.169 C 
HETATM   30  C   UNL     1     -45.565  62.110 -50.069  1.00  0.00     0.059 C 
ENDBRANCH   8  25
TORSDOF 5
ENDMDL
MODEL 4
REMARK VINA RESULT:      -7.5      4.029      4.712
REMARK  5 active torsions:
REMARK  status: ('A' for Active; 'I' for Inactive)
REMARK    1  A    between atoms: C_2  and  C_3 
REMARK    2  A    between atoms: C_3  and  N_4 
REMARK    3  A    between atoms: C_7  and  C_8 
REMARK    4  A    between atoms: C_8  and  O_9 
REMARK    5  A    between atoms: N_13  and  C_15 
ROOT
HETATM    1  N   UNL     1     -41.897  55.529 -52.318  1.00  0.00    -0.067 N 
HETATM    2  H   UNL     1     -41.990  54.705 -51.707  1.00  0.00     0.280 HD
HETATM    3  C   UNL     1     -41.311  56.601 -51.437  1.00  0.00     0.242 C 
HETATM    4  C   UNL     1     -41.331  57.986 -52.130  1.00  0.00     0.044 C 
HETATM    5  C   UNL     1     -42.772  58.419 -52.612  1.00  0.00    -0.029 C 
HETATM    6  C   UNL     1     -43.776  58.693 -51.450  1.00  0.00     0.037 C 
HETATM    7  C   UNL     1     -43.801  60.122 -50.899  1.00  0.00     0.236 C 
HETATM    8  N   UNL     1     -44.000  61.128 -52.006  1.00  0.00    -0.067 N 
HETATM    9  H   UNL     1     -43.909  62.050 -51.553  1.00  0.00     0.280 HD
HETATM   10  C   UNL     1     -42.820  61.041 -52.948  1.00  0.00     0.236 C 
HETATM   11  C   UNL     1     -42.723  59.652 -53.577  1.00  0.00     0.037 C 
HETATM   12  C   UNL     1     -43.307  57.218 -53.474  1.00  0.00     0.037 C 
HETATM   13  C   UNL     1     -43.280  55.857 -52.784  1.00  0.00     0.236 C 
ENDROOT
BRANCH   4  14
HETATM   14  C   UNL     1     -40.578  58.974 -51.229  1.00  0.00     0.171 C 
BRANCH  14  15
HETATM   15  O   UNL     1     -39.394  59.363 -51.905  1.00  0.00    -0.400 OA
HETATM   16  H   UNL     1     -39.126  60.252 -51.599  1.00  0.00     0.209 HD
ENDBRANCH  14  15
ENDBRANCH   4  14
BRANCH   1  17
HETATM   17  C   UNL     1     -40.970  55.027 -53.419  1.00  0.00     0.273 C 
BRANCH  17  18
HETATM   18  C   UNL     1     -40.600  53.574 -53.261  1.00  0.00    -0.033 A 
HETATM   19  C   UNL     1     -40.157  53.079 -52.023  1.00  0.00     0.010 A 
HETATM   20  C   UNL     1     -39.760  51.745 -51.896  1.00  0.00     0.024 A 
HETATM   21  C   UNL     1     -39.805  50.897 -53.000  1.00  0.00     0.034 A 
HETATM   22  C   UNL     1     -40.254  51.370 -54.230  1.00  0.00     0.024 A 
HETATM   23 CL   UNL     1     -39.299  49.263 -52.844  1.00  0.00    -0.084 Cl
HETATM   24  C   UNL     1     -40.651  52.703 -54.362  1.00  0.00     0.010 A 
ENDBRANCH  17  18
ENDBRANCH   1  17
BRANCH   8  25
HETATM   25  C   UNL     1     -45.403  61.146 -52.675  1.00  0.00     0.192 C 
HETATM   26  C   UNL     1     -46.529  61.202 -51.630  1.00  0.00     0.059 C 
HETATM   27  C   UNL     1     -46.595  62.559 -50.947  1.00  0.00     0.169 C 
HETATM   28  O   UNL     1     -46.731  63.589 -51.915  1.00  0.00    -0.391 OA
HETATM   29  C   UNL     1     -45.674  63.656 -52.863  1.00  0.00     0.169 C 
HETATM   30  C   UNL     1     -45.566  62.343 -53.624  1.00  0.00     0.059 C 
ENDBRANCH   8  25
TORSDOF 5
ENDMDL
MODEL 5
REMARK VINA RESULT:      -7.4      4.206      5.990
REMARK  5 active torsions:
REMARK  status: ('A' for Active; 'I' for Inactive)
REMARK    1  A    between atoms: C_2  and  C_3 
REMARK    2  A    between atoms: C_3  and  N_4 
REMARK    3  A    between atoms: C_7  and  C_8 
REMARK    4  A    between atoms: C_8  and  O_9 
REMARK    5  A    between atoms: N_13  and  C_15 
ROOT
HETATM    1  N   UNL     1     -41.569  55.885 -52.211  1.00  0.00    -0.067 N 
HETATM    2  H   UNL     1     -40.713  55.435 -51.857  1.00  0.00     0.280 HD
HETATM    3  C   UNL     1     -41.097  57.155 -52.869  1.00  0.00     0.242 C 
HETATM    4  C   UNL     1     -42.281  58.080 -53.244  1.00  0.00     0.044 C 
HETATM    5  C   UNL     1     -43.210  58.429 -52.015  1.00  0.00    -0.029 C 
HETATM    6  C   UNL     1     -42.523  59.311 -50.927  1.00  0.00     0.037 C 
HETATM    7  C   UNL     1     -42.627  60.827 -51.119  1.00  0.00     0.236 C 
HETATM    8  N   UNL     1     -44.062  61.254 -51.304  1.00  0.00    -0.067 N 
HETATM    9  H   UNL     1     -44.019  62.262 -51.517  1.00  0.00     0.280 HD
HETATM   10  C   UNL     1     -44.592  60.614 -52.568  1.00  0.00     0.236 C 
HETATM   11  C   UNL     1     -44.557  59.090 -52.466  1.00  0.00     0.037 C 
HETATM   12  C   UNL     1     -43.601  57.046 -51.376  1.00  0.00     0.037 C 
HETATM   13  C   UNL     1     -42.428  56.140 -51.014  1.00  0.00     0.236 C 
ENDROOT
BRANCH   4  14
HETATM   14  C   UNL     1     -41.719  59.264 -54.043  1.00  0.00     0.171 C 
BRANCH  14  15
HETATM   15  O   UNL     1     -40.399  59.508 -53.587  1.00  0.00    -0.400 OA
HETATM   16  H   UNL     1     -39.855  58.708 -53.731  1.00  0.00     0.209 HD
ENDBRANCH  14  15
ENDBRANCH   4  14
BRANCH   1  17
HETATM   17  C   UNL     1     -42.126  54.836 -53.167  1.00  0.00     0.273 C 
BRANCH  17  18
HETATM   18  C   UNL     1     -41.308  53.571 -53.197  1.00  0.00    -0.033 A 
HETATM   19  C   UNL     1     -41.303  52.749 -54.337  1.00  0.00     0.010 A 
HETATM   20  C   UNL     1     -40.589  51.547 -54.337  1.00  0.00     0.024 A 
HETATM   21  C   UNL     1     -39.874  51.161 -53.207  1.00  0.00     0.034 A 
HETATM   22  C   UNL     1     -39.859  51.972 -52.075  1.00  0.00     0.024 A 
HETATM   23 CL   UNL     1     -39.013  49.674 -53.206  1.00  0.00    -0.084 Cl
HETATM   24  C   UNL     1     -40.572  53.173 -52.068  1.00  0.00     0.010 A 
ENDBRANCH  17  18
ENDBRANCH   1  17
BRANCH   8  25
HETATM   25  C   UNL     1     -44.979  61.147 -50.053  1.00  0.00     0.192 C 
HETATM   26  C   UNL     1     -44.354  61.838 -48.831  1.00  0.00     0.059 C 
HETATM   27  C   UNL     1     -44.358  63.352 -48.977  1.00  0.00     0.169 C 
HETATM   28  O   UNL     1     -45.679  63.815 -49.219  1.00  0.00    -0.391 OA
HETATM   29  C   UNL     1     -46.289  63.287 -50.389  1.00  0.00     0.169 C 
HETATM   30  C   UNL     1     -46.360  61.770 -50.304  1.00  0.00     0.059 C 
ENDBRANCH   8  25
TORSDOF 5
ENDMDL
MODEL 6
REMARK VINA RESULT:      -7.1      3.401      4.685
REMARK  5 active torsions:
REMARK  status: ('A' for Active; 'I' for Inactive)
REMARK    1  A    between atoms: C_2  and  C_3 
REMARK    2  A    between atoms: C_3  and  N_4 
REMARK    3  A    between atoms: C_7  and  C_8 
REMARK    4  A    between atoms: C_8  and  O_9 
REMARK    5  A    between atoms: N_13  and  C_15 
ROOT
HETATM    1  N   UNL     1     -41.049  55.921 -51.996  1.00  0.00    -0.067 N 
HETATM    2  H   UNL     1     -40.066  55.700 -51.785  1.00  0.00     0.280 HD
HETATM    3  C   UNL     1     -41.047  56.376 -53.432  1.00  0.00     0.242 C 
HETATM    4  C   UNL     1     -42.411  56.983 -53.843  1.00  0.00     0.044 C 
HETATM    5  C   UNL     1     -42.870  58.170 -52.908  1.00  0.00    -0.029 C 
HETATM    6  C   UNL     1     -41.976  59.444 -53.010  1.00  0.00     0.037 C 
HETATM    7  C   UNL     1     -42.370  60.464 -54.082  1.00  0.00     0.236 C 
HETATM    8  N   UNL     1     -43.821  60.857 -53.952  1.00  0.00    -0.067 N 
HETATM    9  H   UNL     1     -44.011  61.464 -54.763  1.00  0.00     0.280 HD
HETATM   10  C   UNL     1     -44.671  59.627 -54.182  1.00  0.00     0.236 C 
HETATM   11  C   UNL     1     -44.372  58.552 -53.138  1.00  0.00     0.037 C 
HETATM   12  C   UNL     1     -42.789  57.608 -51.442  1.00  0.00     0.037 C 
HETATM   13  C   UNL     1     -41.442  57.009 -51.047  1.00  0.00     0.236 C 
ENDROOT
BRANCH   4  14
HETATM   14  C   UNL     1     -42.363  57.269 -55.350  1.00  0.00     0.171 C 
BRANCH  14  15
HETATM   15  O   UNL     1     -41.684  56.194 -55.976  1.00  0.00    -0.400 OA
HETATM   16  H   UNL     1     -41.774  56.277 -56.946  1.00  0.00     0.209 HD
ENDBRANCH  14  15
ENDBRANCH   4  14
BRANCH   1  17
HETATM   17  C   UNL     1     -41.751  54.591 -51.746  1.00  0.00     0.273 C 
BRANCH  17  18
HETATM   18  C   UNL     1     -41.082  53.432 -52.439  1.00  0.00    -0.033 A 
HETATM   19  C   UNL     1     -41.441  53.079 -53.750  1.00  0.00     0.010 A 
HETATM   20  C   UNL     1     -40.859  51.967 -54.367  1.00  0.00     0.024 A 
HETATM   21  C   UNL     1     -39.917  51.205 -53.682  1.00  0.00     0.034 A 
HETATM   22  C   UNL     1     -39.542  51.550 -52.386  1.00  0.00     0.024 A 
HETATM   23 CL   UNL     1     -39.217  49.829 -54.436  1.00  0.00    -0.084 Cl
HETATM   24  C   UNL     1     -40.121  52.659 -51.765  1.00  0.00     0.010 A 
ENDBRANCH  17  18
ENDBRANCH   1  17
BRANCH   8  25
HETATM   25  C   UNL     1     -44.192  61.716 -52.711  1.00  0.00     0.192 C 
HETATM   26  C   UNL     1     -43.354  63.003 -52.641  1.00  0.00     0.059 C 
HETATM   27  C   UNL     1     -43.755  63.995 -53.722  1.00  0.00     0.169 C 
HETATM   28  O   UNL     1     -45.145  64.273 -53.639  1.00  0.00    -0.391 OA
HETATM   29  C   UNL     1     -45.988  63.139 -53.789  1.00  0.00     0.169 C 
HETATM   30  C   UNL     1     -45.677  62.109 -52.713  1.00  0.00     0.059 C 
ENDBRANCH   8  25
TORSDOF 5
ENDMDL
MODEL 7
REMARK VINA RESULT:      -6.9      5.511      9.006
REMARK  5 active torsions:
REMARK  status: ('A' for Active; 'I' for Inactive)
REMARK    1  A    between atoms: C_2  and  C_3 
REMARK    2  A    between atoms: C_3  and  N_4 
REMARK    3  A    between atoms: C_7  and  C_8 
REMARK    4  A    between atoms: C_8  and  O_9 
REMARK    5  A    between atoms: N_13  and  C_15 
ROOT
HETATM    1  N   UNL     1     -41.650  59.262 -51.664  1.00  0.00    -0.067 N 
HETATM    2  H   UNL     1     -41.306  59.908 -50.940  1.00  0.00     0.280 HD
HETATM    3  C   UNL     1     -42.536  58.290 -50.930  1.00  0.00     0.242 C 
HETATM    4  C   UNL     1     -42.945  57.097 -51.828  1.00  0.00     0.044 C 
HETATM    5  C   UNL     1     -41.709  56.331 -52.446  1.00  0.00    -0.029 C 
HETATM    6  C   UNL     1     -40.835  55.579 -51.395  1.00  0.00     0.037 C 
HETATM    7  C   UNL     1     -41.250  54.141 -51.073  1.00  0.00     0.236 C 
HETATM    8  N   UNL     1     -41.374  53.316 -52.331  1.00  0.00    -0.067 N 
HETATM    9  H   UNL     1     -41.744  52.405 -52.021  1.00  0.00     0.280 HD
HETATM   10  C   UNL     1     -42.473  53.910 -53.185  1.00  0.00     0.236 C 
HETATM   11  C   UNL     1     -42.138  55.346 -53.586  1.00  0.00     0.037 C 
HETATM   12  C   UNL     1     -40.832  57.436 -53.140  1.00  0.00     0.037 C 
HETATM   13  C   UNL     1     -40.437  58.610 -52.247  1.00  0.00     0.236 C 
ENDROOT
BRANCH   4  14
HETATM   14  C   UNL     1     -43.964  56.251 -51.052  1.00  0.00     0.171 C 
BRANCH  14  15
HETATM   15  O   UNL     1     -45.180  56.978 -50.997  1.00  0.00    -0.400 OA
HETATM   16  H   UNL     1     -45.792  56.631 -51.676  1.00  0.00     0.209 HD
ENDBRANCH  14  15
ENDBRANCH   4  14
BRANCH   1  17
HETATM   17  C   UNL     1     -42.379  60.194 -52.625  1.00  0.00     0.273 C 
BRANCH  17  18
HETATM   18  C   UNL     1     -43.549  60.901 -51.987  1.00  0.00    -0.033 A 
HETATM   19  C   UNL     1     -43.342  61.861 -50.982  1.00  0.00     0.010 A 
HETATM   20  C   UNL     1     -44.432  62.470 -50.353  1.00  0.00     0.024 A 
HETATM   21  C   UNL     1     -45.730  62.129 -50.723  1.00  0.00     0.034 A 
HETATM   22  C   UNL     1     -45.950  61.189 -51.727  1.00  0.00     0.024 A 
HETATM   23 CL   UNL     1     -47.067  62.867 -49.935  1.00  0.00    -0.084 Cl
HETATM   24  C   UNL     1     -44.864  60.576 -52.357  1.00  0.00     0.010 A 
ENDBRANCH  17  18
ENDBRANCH   1  17
BRANCH   8  25
HETATM   25  C   UNL     1     -40.047  52.982 -53.068  1.00  0.00     0.192 C 
HETATM   26  C   UNL     1     -39.124  52.108 -52.205  1.00  0.00     0.059 C 
HETATM   27  C   UNL     1     -39.659  50.692 -52.064  1.00  0.00     0.169 C 
HETATM   28  O   UNL     1     -39.869  50.119 -53.347  1.00  0.00    -0.391 OA
HETATM   29  C   UNL     1     -40.786  50.826 -54.170  1.00  0.00     0.169 C 
HETATM   30  C   UNL     1     -40.301  52.250 -54.394  1.00  0.00     0.059 C 
ENDBRANCH   8  25
TORSDOF 5
ENDMDL
MODEL 8
REMARK VINA RESULT:      -6.9     16.849     20.707
REMARK  5 active torsions:
REMARK  status: ('A' for Active; 'I' for Inactive)
REMARK    1  A    between atoms: C_2  and  C_3 
REMARK    2  A    between atoms: C_3  and  N_4 
REMARK    3  A    between atoms: C_7  and  C_8 
REMARK    4  A    between atoms: C_8  and  O_9 
REMARK    5  A    between atoms: N_13  and  C_15 
ROOT
HETATM    1  N   UNL     1     -36.661  40.275 -53.385  1.00  0.00    -0.067 N 
HETATM    2  H   UNL     1     -37.445  39.733 -53.777  1.00  0.00     0.280 HD
HETATM    3  C   UNL     1     -35.421  39.571 -53.870  1.00  0.00     0.242 C 
HETATM    4  C   UNL     1     -34.148  40.109 -53.172  1.00  0.00     0.044 C 
HETATM    5  C   UNL     1     -34.224  40.034 -51.596  1.00  0.00    -0.029 C 
HETATM    6  C   UNL     1     -34.239  38.581 -51.027  1.00  0.00     0.037 C 
HETATM    7  C   UNL     1     -32.873  37.949 -50.745  1.00  0.00     0.236 C 
HETATM    8  N   UNL     1     -32.032  38.843 -49.865  1.00  0.00    -0.067 N 
HETATM    9  H   UNL     1     -31.112  38.381 -49.812  1.00  0.00     0.280 HD
HETATM   10  C   UNL     1     -31.774  40.136 -50.606  1.00  0.00     0.236 C 
HETATM   11  C   UNL     1     -33.084  40.862 -50.912  1.00  0.00     0.037 C 
HETATM   12  C   UNL     1     -35.569  40.748 -51.203  1.00  0.00     0.037 C 
HETATM   13  C   UNL     1     -36.817  40.212 -51.899  1.00  0.00     0.236 C 
ENDROOT
BRANCH   4  14
HETATM   14  C   UNL     1     -32.932  39.450 -53.837  1.00  0.00     0.171 C 
BRANCH  14  15
HETATM   15  O   UNL     1     -32.030  40.477 -54.209  1.00  0.00    -0.400 OA
HETATM   16  H   UNL     1     -32.083  40.619 -55.175  1.00  0.00     0.209 HD
ENDBRANCH  14  15
ENDBRANCH   4  14
BRANCH   1  17
HETATM   17  C   UNL     1     -36.885  41.661 -53.978  1.00  0.00     0.273 C 
BRANCH  17  18
HETATM   18  C   UNL     1     -37.020  41.646 -55.480  1.00  0.00    -0.033 A 
HETATM   19  C   UNL     1     -38.109  41.004 -56.093  1.00  0.00     0.010 A 
HETATM   20  C   UNL     1     -38.198  40.942 -57.487  1.00  0.00     0.024 A 
HETATM   21  C   UNL     1     -37.207  41.521 -58.275  1.00  0.00     0.034 A 
HETATM   22  C   UNL     1     -36.129  42.172 -57.681  1.00  0.00     0.024 A 
HETATM   23 CL   UNL     1     -37.312  41.427 -59.987  1.00  0.00    -0.084 Cl
HETATM   24  C   UNL     1     -36.034  42.235 -56.289  1.00  0.00     0.010 A 
ENDBRANCH  17  18
ENDBRANCH   1  17
BRANCH   8  25
HETATM   25  C   UNL     1     -32.497  38.987 -48.389  1.00  0.00     0.192 C 
HETATM   26  C   UNL     1     -32.732  37.618 -47.732  1.00  0.00     0.059 C 
HETATM   27  C   UNL     1     -31.426  36.882 -47.480  1.00  0.00     0.169 C 
HETATM   28  O   UNL     1     -30.552  37.689 -46.704  1.00  0.00    -0.391 OA
HETATM   29  C   UNL     1     -30.214  38.936 -47.294  1.00  0.00     0.169 C 
HETATM   30  C   UNL     1     -31.471  39.757 -47.542  1.00  0.00     0.059 C 
ENDBRANCH   8  25
TORSDOF 5
ENDMDL
MODEL 9
REMARK VINA RESULT:      -6.8     16.424     18.964
REMARK  5 active torsions:
REMARK  status: ('A' for Active; 'I' for Inactive)
REMARK    1  A    between atoms: C_2  and  C_3 
REMARK    2  A    between atoms: C_3  and  N_4 
REMARK    3  A    between atoms: C_7  and  C_8 
REMARK    4  A    between atoms: C_8  and  O_9 
REMARK    5  A    between atoms: N_13  and  C_15 
ROOT
HETATM    1  N   UNL     1     -33.892  40.178 -50.779  1.00  0.00    -0.067 N 
HETATM    2  H   UNL     1     -33.484  40.876 -50.141  1.00  0.00     0.280 HD
HETATM    3  C   UNL     1     -32.945  40.120 -51.949  1.00  0.00     0.242 C 
HETATM    4  C   UNL     1     -33.533  39.298 -53.122  1.00  0.00     0.044 C 
HETATM    5  C   UNL     1     -34.943  39.823 -53.603  1.00  0.00    -0.029 C 
HETATM    6  C   UNL     1     -34.906  41.235 -54.266  1.00  0.00     0.037 C 
HETATM    7  C   UNL     1     -34.654  41.268 -55.776  1.00  0.00     0.236 C 
HETATM    8  N   UNL     1     -35.627  40.375 -56.508  1.00  0.00    -0.067 N 
HETATM    9  H   UNL     1     -35.319  40.392 -57.493  1.00  0.00     0.280 HD
HETATM   10  C   UNL     1     -35.400  38.950 -56.056  1.00  0.00     0.236 C 
HETATM   11  C   UNL     1     -35.655  38.804 -54.557  1.00  0.00     0.037 C 
HETATM   12  C   UNL     1     -35.832  39.893 -52.307  1.00  0.00     0.037 C 
HETATM   13  C   UNL     1     -35.242  40.702 -51.156  1.00  0.00     0.236 C 
ENDROOT
BRANCH   4  14
HETATM   14  C   UNL     1     -32.444  39.163 -54.194  1.00  0.00     0.171 C 
BRANCH  14  15
HETATM   15  O   UNL     1     -31.627  40.320 -54.133  1.00  0.00    -0.400 OA
HETATM   16  H   UNL     1     -31.968  40.918 -53.438  1.00  0.00     0.209 HD
ENDBRANCH  14  15
ENDBRANCH   4  14
BRANCH   1  17
HETATM   17  C   UNL     1     -33.929  38.919 -49.920  1.00  0.00     0.273 C 
BRANCH  17  18
HETATM   18  C   UNL     1     -32.992  38.983 -48.741  1.00  0.00    -0.033 A 
HETATM   19  C   UNL     1     -31.920  39.892 -48.727  1.00  0.00     0.010 A 
HETATM   20  C   UNL     1     -31.020  39.906 -47.658  1.00  0.00     0.024 A 
HETATM   21  C   UNL     1     -31.185  39.020 -46.596  1.00  0.00     0.034 A 
HETATM   22  C   UNL     1     -32.251  38.123 -46.590  1.00  0.00     0.024 A 
HETATM   23 CL   UNL     1     -30.067  39.029 -45.292  1.00  0.00    -0.084 Cl
HETATM   24  C   UNL     1     -33.152  38.104 -47.657  1.00  0.00     0.010 A 
ENDBRANCH  17  18
ENDBRANCH   1  17
BRANCH   8  25
HETATM   25  C   UNL     1     -37.106  40.851 -56.540  1.00  0.00     0.192 C 
HETATM   26  C   UNL     1     -37.246  42.223 -57.217  1.00  0.00     0.059 C 
HETATM   27  C   UNL     1     -37.011  42.138 -58.718  1.00  0.00     0.169 C 
HETATM   28  O   UNL     1     -37.886  41.179 -59.296  1.00  0.00    -0.391 OA
HETATM   29  C   UNL     1     -37.747  39.862 -58.781  1.00  0.00     0.169 C 
HETATM   30  C   UNL     1     -38.008  39.853 -57.283  1.00  0.00     0.059 C 
ENDBRANCH   8  25
TORSDOF 5
ENDMDL
MODEL 10
REMARK VINA RESULT:      -6.7      3.687      8.646
REMARK  5 active torsions:
REMARK  status: ('A' for Active; 'I' for Inactive)
REMARK    1  A    between atoms: C_2  and  C_3 
REMARK    2  A    between atoms: C_3  and  N_4 
REMARK    3  A    between atoms: C_7  and  C_8 
REMARK    4  A    between atoms: C_8  and  O_9 
REMARK    5  A    between atoms: N_13  and  C_15 
ROOT
HETATM    1  N   UNL     1     -42.202  58.662 -53.874  1.00  0.00    -0.067 N 
HETATM    2  H   UNL     1     -42.455  59.445 -53.256  1.00  0.00     0.280 HD
HETATM    3  C   UNL     1     -43.313  57.658 -53.704  1.00  0.00     0.242 C 
HETATM    4  C   UNL     1     -42.971  56.306 -54.377  1.00  0.00     0.044 C 
HETATM    5  C   UNL     1     -41.609  55.687 -53.871  1.00  0.00    -0.029 C 
HETATM    6  C   UNL     1     -41.631  55.237 -52.377  1.00  0.00     0.037 C 
HETATM    7  C   UNL     1     -42.097  53.804 -52.107  1.00  0.00     0.236 C 
HETATM    8  N   UNL     1     -41.318  52.813 -52.937  1.00  0.00    -0.067 N 
HETATM    9  H   UNL     1     -41.763  51.901 -52.758  1.00  0.00     0.280 HD
HETATM   10  C   UNL     1     -41.589  53.096 -54.398  1.00  0.00     0.236 C 
HETATM   11  C   UNL     1     -41.129  54.503 -54.777  1.00  0.00     0.037 C 
HETATM   12  C   UNL     1     -40.537  56.824 -54.044  1.00  0.00     0.037 C 
HETATM   13  C   UNL     1     -40.885  58.154 -53.380  1.00  0.00     0.236 C 
ENDROOT
BRANCH   4  14
HETATM   14  C   UNL     1     -44.213  55.409 -54.290  1.00  0.00     0.171 C 
BRANCH  14  15
HETATM   15  O   UNL     1     -45.352  56.220 -54.526  1.00  0.00    -0.400 OA
HETATM   16  H   UNL     1     -45.643  56.620 -53.683  1.00  0.00     0.209 HD
ENDBRANCH  14  15
ENDBRANCH   4  14
BRANCH   1  17
HETATM   17  C   UNL     1     -42.141  59.324 -55.246  1.00  0.00     0.273 C 
BRANCH  17  18
HETATM   18  C   UNL     1     -43.318  58.978 -56.121  1.00  0.00    -0.033 A 
HETATM   19  C   UNL     1     -44.588  59.518 -55.858  1.00  0.00     0.010 A 
HETATM   20  C   UNL     1     -45.688  59.147 -56.637  1.00  0.00     0.024 A 
HETATM   21  C   UNL     1     -45.528  58.242 -57.683  1.00  0.00     0.034 A 
HETATM   22  C   UNL     1     -44.273  57.709 -57.964  1.00  0.00     0.024 A 
HETATM   23 CL   UNL     1     -46.886  57.775 -58.627  1.00  0.00    -0.084 Cl
HETATM   24  C   UNL     1     -43.171  58.074 -57.187  1.00  0.00     0.010 A 
ENDBRANCH  17  18
ENDBRANCH   1  17
BRANCH   8  25
HETATM   25  C   UNL     1     -39.825  52.615 -52.549  1.00  0.00     0.192 C 
HETATM   26  C   UNL     1     -39.663  52.336 -51.047  1.00  0.00     0.059 C 
HETATM   27  C   UNL     1     -40.172  50.952 -50.672  1.00  0.00     0.169 C 
HETATM   28  O   UNL     1     -39.524  49.963 -51.459  1.00  0.00    -0.391 OA
HETATM   29  C   UNL     1     -39.709  50.105 -52.861  1.00  0.00     0.169 C 
HETATM   30  C   UNL     1     -39.185  51.455 -53.326  1.00  0.00     0.059 C 
ENDBRANCH   8  25
TORSDOF 5
ENDMDL
