MODEL 1
REMARK VINA RESULT:      -7.3      0.000      0.000
REMARK  5 active torsions:
REMARK  status: ('A' for Active; 'I' for Inactive)
REMARK    1  A    between atoms: C_2  and  C_3 
REMARK    2  A    between atoms: C_3  and  N_4 
REMARK    3  A    between atoms: C_3  and  C_14 
REMARK       I    between atoms: N_4  and  C_5 
REMARK    4  A    between atoms: C_5  and  C_6 
REMARK    5  A    between atoms: C_17  and  O_18 
ROOT
HETATM    1  C   UNL     1     -41.383  53.142 -53.975  1.00  0.00     0.117 C 
ENDROOT
BRANCH   1   2
HETATM    2  C   UNL     1     -40.083  52.391 -54.323  1.00  0.00     0.025 C 
HETATM    3  C   UNL     1     -40.243  50.876 -54.323  1.00  0.00     0.007 C 
ENDBRANCH   1   2
BRANCH   1   4
HETATM    4  N   UNL     1     -41.568  54.322 -54.812  1.00  0.00    -0.348 N 
HETATM    5  C   UNL     1     -42.669  54.488 -55.622  1.00  0.00     0.253 C 
HETATM    6  O   UNL     1     -43.574  53.669 -55.716  1.00  0.00    -0.268 OA
HETATM    7  H   UNL     1     -40.794  54.964 -54.871  1.00  0.00     0.163 HD
BRANCH   5   8
HETATM    8  C   UNL     1     -42.710  55.725 -56.439  1.00  0.00     0.050 A 
HETATM    9  C   UNL     1     -42.321  56.923 -55.847  1.00  0.00     0.133 A 
HETATM   10  N   UNL     1     -42.328  58.121 -56.484  1.00  0.00    -0.271 NA
HETATM   11  C   UNL     1     -42.729  58.117 -57.776  1.00  0.00     0.135 A 
HETATM   12  C   UNL     1     -43.116  56.971 -58.454  1.00  0.00     0.029 A 
HETATM   13 BR   UNL     1     -43.651  57.056 -60.261  1.00  0.00    -0.050 Br
HETATM   14  C   UNL     1     -43.103  55.753 -57.780  1.00  0.00     0.039 A 
ENDBRANCH   5   8
ENDBRANCH   1   4
BRANCH   1  15
HETATM   15  C   UNL     1     -41.395  53.556 -52.511  1.00  0.00    -0.035 A 
HETATM   16  C   UNL     1     -40.226  53.444 -51.747  1.00  0.00     0.012 A 
HETATM   17  C   UNL     1     -40.218  53.813 -50.400  1.00  0.00     0.037 A 
HETATM   18  C   UNL     1     -41.376  54.289 -49.783  1.00  0.00     0.068 A 
HETATM   19  C   UNL     1     -42.544  54.410 -50.534  1.00  0.00     0.037 A 
HETATM   20  C   UNL     1     -42.552  54.051 -51.887  1.00  0.00     0.012 A 
BRANCH  18  21
HETATM   21  O   UNL     1     -41.233  54.604 -48.460  1.00  0.00    -0.356 OA
HETATM   22  C   UNL     1     -40.265  53.867 -47.726  1.00  0.00     0.210 C 
ENDBRANCH  18  21
ENDBRANCH   1  15
TORSDOF 5
ENDMDL
MODEL 2
REMARK VINA RESULT:      -7.0      2.510      4.197
REMARK  5 active torsions:
REMARK  status: ('A' for Active; 'I' for Inactive)
REMARK    1  A    between atoms: C_2  and  C_3 
REMARK    2  A    between atoms: C_3  and  N_4 
REMARK    3  A    between atoms: C_3  and  C_14 
REMARK       I    between atoms: N_4  and  C_5 
REMARK    4  A    between atoms: C_5  and  C_6 
REMARK    5  A    between atoms: C_17  and  O_18 
ROOT
HETATM    1  C   UNL     1     -41.070  55.094 -51.399  1.00  0.00     0.117 C 
ENDROOT
BRANCH   1   2
HETATM    2  C   UNL     1     -42.261  54.993 -50.427  1.00  0.00     0.025 C 
HETATM    3  C   UNL     1     -43.511  54.398 -51.064  1.00  0.00     0.007 C 
ENDBRANCH   1   2
BRANCH   1   4
HETATM    4  N   UNL     1     -41.403  55.876 -52.584  1.00  0.00    -0.348 N 
HETATM    5  C   UNL     1     -41.189  57.235 -52.657  1.00  0.00     0.253 C 
HETATM    6  O   UNL     1     -40.714  57.898 -51.744  1.00  0.00    -0.268 OA
HETATM    7  H   UNL     1     -41.915  55.404 -53.312  1.00  0.00     0.163 HD
BRANCH   5   8
HETATM    8  C   UNL     1     -41.602  57.904 -53.914  1.00  0.00     0.050 A 
HETATM    9  C   UNL     1     -41.424  59.280 -54.021  1.00  0.00     0.133 A 
HETATM   10  N   UNL     1     -41.775  60.007 -55.113  1.00  0.00    -0.271 NA
HETATM   11  C   UNL     1     -42.315  59.324 -56.148  1.00  0.00     0.135 A 
HETATM   12  C   UNL     1     -42.513  57.951 -56.138  1.00  0.00     0.029 A 
HETATM   13 BR   UNL     1     -43.263  57.077 -57.632  1.00  0.00    -0.050 Br
HETATM   14  C   UNL     1     -42.147  57.225 -55.007  1.00  0.00     0.039 A 
ENDBRANCH   5   8
ENDBRANCH   1   4
BRANCH   1  15
HETATM   15  C   UNL     1     -40.598  53.712 -51.824  1.00  0.00    -0.035 A 
HETATM   16  C   UNL     1     -40.604  53.363 -53.181  1.00  0.00     0.012 A 
HETATM   17  C   UNL     1     -40.180  52.096 -53.592  1.00  0.00     0.037 A 
HETATM   18  C   UNL     1     -39.754  51.149 -52.660  1.00  0.00     0.068 A 
HETATM   19  C   UNL     1     -39.737  51.486 -51.308  1.00  0.00     0.037 A 
HETATM   20  C   UNL     1     -40.152  52.758 -50.894  1.00  0.00     0.012 A 
BRANCH  18  21
HETATM   21  O   UNL     1     -39.376  49.949 -53.195  1.00  0.00    -0.356 OA
HETATM   22  C   UNL     1     -39.646  49.748 -54.576  1.00  0.00     0.210 C 
ENDBRANCH  18  21
ENDBRANCH   1  15
TORSDOF 5
ENDMDL
MODEL 3
REMARK VINA RESULT:      -7.0      4.207      5.312
REMARK  5 active torsions:
REMARK  status: ('A' for Active; 'I' for Inactive)
REMARK    1  A    between atoms: C_2  and  C_3 
REMARK    2  A    between atoms: C_3  and  N_4 
REMARK    3  A    between atoms: C_3  and  C_14 
REMARK       I    between atoms: N_4  and  C_5 
REMARK    4  A    between atoms: C_5  and  C_6 
REMARK    5  A    between atoms: C_17  and  O_18 
ROOT
HETATM    1  C   UNL     1     -41.882  54.768 -53.993  1.00  0.00     0.117 C 
ENDROOT
BRANCH   1   2
HETATM    2  C   UNL     1     -41.529  54.999 -55.475  1.00  0.00     0.025 C 
HETATM    3  C   UNL     1     -42.739  55.338 -56.336  1.00  0.00     0.007 C 
ENDBRANCH   1   2
BRANCH   1   4
HETATM    4  N   UNL     1     -41.606  55.947 -53.180  1.00  0.00    -0.348 N 
HETATM    5  C   UNL     1     -42.606  56.756 -52.689  1.00  0.00     0.253 C 
HETATM    6  O   UNL     1     -43.798  56.564 -52.894  1.00  0.00    -0.268 OA
HETATM    7  H   UNL     1     -40.641  56.223 -53.092  1.00  0.00     0.163 HD
BRANCH   5   8
HETATM    8  C   UNL     1     -42.176  57.937 -51.902  1.00  0.00     0.050 A 
HETATM    9  C   UNL     1     -43.145  58.849 -51.494  1.00  0.00     0.133 A 
HETATM   10  N   UNL     1     -42.876  59.974 -50.783  1.00  0.00    -0.271 NA
HETATM   11  C   UNL     1     -41.581  60.187 -50.453  1.00  0.00     0.135 A 
HETATM   12  C   UNL     1     -40.551  59.324 -50.799  1.00  0.00     0.029 A 
HETATM   13 BR   UNL     1     -38.774  59.693 -50.288  1.00  0.00    -0.050 Br
HETATM   14  C   UNL     1     -40.850  58.178 -51.531  1.00  0.00     0.039 A 
ENDBRANCH   5   8
ENDBRANCH   1   4
BRANCH   1  15
HETATM   15  C   UNL     1     -41.115  53.579 -53.431  1.00  0.00    -0.035 A 
HETATM   16  C   UNL     1     -40.876  53.495 -52.053  1.00  0.00     0.012 A 
HETATM   17  C   UNL     1     -40.169  52.415 -51.518  1.00  0.00     0.037 A 
HETATM   18  C   UNL     1     -39.675  51.405 -52.345  1.00  0.00     0.068 A 
HETATM   19  C   UNL     1     -39.912  51.475 -53.716  1.00  0.00     0.037 A 
HETATM   20  C   UNL     1     -40.630  52.550 -54.254  1.00  0.00     0.012 A 
BRANCH  18  21
HETATM   21  O   UNL     1     -38.994  50.414 -51.694  1.00  0.00    -0.356 OA
HETATM   22  C   UNL     1     -39.677  49.755 -50.636  1.00  0.00     0.210 C 
ENDBRANCH  18  21
ENDBRANCH   1  15
TORSDOF 5
ENDMDL
MODEL 4
REMARK VINA RESULT:      -7.0      3.525      5.024
REMARK  5 active torsions:
REMARK  status: ('A' for Active; 'I' for Inactive)
REMARK    1  A    between atoms: C_2  and  C_3 
REMARK    2  A    between atoms: C_3  and  N_4 
REMARK    3  A    between atoms: C_3  and  C_14 
REMARK       I    between atoms: N_4  and  C_5 
REMARK    4  A    between atoms: C_5  and  C_6 
REMARK    5  A    between atoms: C_17  and  O_18 
ROOT
HETATM    1  C   UNL     1     -41.122  55.076 -50.927  1.00  0.00     0.117 C 
ENDROOT
BRANCH   1   2
HETATM    2  C   UNL     1     -42.248  54.635 -49.972  1.00  0.00     0.025 C 
HETATM    3  C   UNL     1     -43.610  54.542 -50.649  1.00  0.00     0.007 C 
ENDBRANCH   1   2
BRANCH   1   4
HETATM    4  N   UNL     1     -41.553  56.150 -51.814  1.00  0.00    -0.348 N 
HETATM    5  C   UNL     1     -41.340  57.480 -51.522  1.00  0.00     0.253 C 
HETATM    6  O   UNL     1     -40.783  57.871 -50.505  1.00  0.00    -0.268 OA
HETATM    7  H   UNL     1     -42.130  55.890 -52.598  1.00  0.00     0.163 HD
BRANCH   5   8
HETATM    8  C   UNL     1     -41.858  58.464 -52.502  1.00  0.00     0.050 A 
HETATM    9  C   UNL     1     -40.975  58.997 -53.437  1.00  0.00     0.133 A 
HETATM   10  N   UNL     1     -41.325  59.915 -54.374  1.00  0.00    -0.271 NA
HETATM   11  C   UNL     1     -42.620  60.306 -54.384  1.00  0.00     0.135 A 
HETATM   12  C   UNL     1     -43.574  59.817 -53.505  1.00  0.00     0.029 A 
HETATM   13 BR   UNL     1     -45.362  60.410 -53.598  1.00  0.00    -0.050 Br
HETATM   14  C   UNL     1     -43.193  58.877 -52.550  1.00  0.00     0.039 A 
ENDBRANCH   5   8
ENDBRANCH   1   4
BRANCH   1  15
HETATM   15  C   UNL     1     -40.627  53.903 -51.762  1.00  0.00    -0.035 A 
HETATM   16  C   UNL     1     -39.985  52.827 -51.136  1.00  0.00     0.012 A 
HETATM   17  C   UNL     1     -39.518  51.744 -51.885  1.00  0.00     0.037 A 
HETATM   18  C   UNL     1     -39.669  51.717 -53.272  1.00  0.00     0.068 A 
HETATM   19  C   UNL     1     -40.311  52.779 -53.905  1.00  0.00     0.037 A 
HETATM   20  C   UNL     1     -40.790  53.861 -53.156  1.00  0.00     0.012 A 
BRANCH  18  21
HETATM   21  O   UNL     1     -39.159  50.605 -53.882  1.00  0.00    -0.356 OA
HETATM   22  C   UNL     1     -40.071  49.802 -54.619  1.00  0.00     0.210 C 
ENDBRANCH  18  21
ENDBRANCH   1  15
TORSDOF 5
ENDMDL
MODEL 5
REMARK VINA RESULT:      -6.9      2.479      3.788
REMARK  5 active torsions:
REMARK  status: ('A' for Active; 'I' for Inactive)
REMARK    1  A    between atoms: C_2  and  C_3 
REMARK    2  A    between atoms: C_3  and  N_4 
REMARK    3  A    between atoms: C_3  and  C_14 
REMARK       I    between atoms: N_4  and  C_5 
REMARK    4  A    between atoms: C_5  and  C_6 
REMARK    5  A    between atoms: C_17  and  O_18 
ROOT
HETATM    1  C   UNL     1     -41.963  55.650 -53.755  1.00  0.00     0.117 C 
ENDROOT
BRANCH   1   2
HETATM    2  C   UNL     1     -43.235  55.788 -52.896  1.00  0.00     0.025 C 
HETATM    3  C   UNL     1     -43.149  56.907 -51.866  1.00  0.00     0.007 C 
ENDBRANCH   1   2
BRANCH   1   4
HETATM    4  N   UNL     1     -42.256  55.766 -55.179  1.00  0.00    -0.348 N 
HETATM    5  C   UNL     1     -42.284  56.979 -55.831  1.00  0.00     0.253 C 
HETATM    6  O   UNL     1     -42.076  58.052 -55.280  1.00  0.00    -0.268 OA
HETATM    7  H   UNL     1     -42.562  54.930 -55.650  1.00  0.00     0.163 HD
BRANCH   5   8
HETATM    8  C   UNL     1     -42.624  56.947 -57.274  1.00  0.00     0.050 A 
HETATM    9  C   UNL     1     -42.156  57.975 -58.088  1.00  0.00     0.133 A 
HETATM   10  N   UNL     1     -42.411  58.066 -59.418  1.00  0.00    -0.271 NA
HETATM   11  C   UNL     1     -43.156  57.075 -59.960  1.00  0.00     0.135 A 
HETATM   12  C   UNL     1     -43.649  56.002 -59.233  1.00  0.00     0.029 A 
HETATM   13 BR   UNL     1     -44.671  54.658 -60.073  1.00  0.00    -0.050 Br
HETATM   14  C   UNL     1     -43.377  55.931 -57.869  1.00  0.00     0.039 A 
ENDBRANCH   5   8
ENDBRANCH   1   4
BRANCH   1  15
HETATM   15  C   UNL     1     -41.270  54.321 -53.491  1.00  0.00    -0.035 A 
HETATM   16  C   UNL     1     -41.036  53.437 -54.552  1.00  0.00     0.012 A 
HETATM   17  C   UNL     1     -40.407  52.209 -54.329  1.00  0.00     0.037 A 
HETATM   18  C   UNL     1     -40.011  51.833 -53.044  1.00  0.00     0.068 A 
HETATM   19  C   UNL     1     -40.233  52.707 -51.982  1.00  0.00     0.037 A 
HETATM   20  C   UNL     1     -40.854  53.942 -52.204  1.00  0.00     0.012 A 
BRANCH  18  21
HETATM   21  O   UNL     1     -39.416  50.604 -52.965  1.00  0.00    -0.356 OA
HETATM   22  C   UNL     1     -39.484  49.782 -54.123  1.00  0.00     0.210 C 
ENDBRANCH  18  21
ENDBRANCH   1  15
TORSDOF 5
ENDMDL
MODEL 6
REMARK VINA RESULT:      -6.8      3.027      7.555
REMARK  5 active torsions:
REMARK  status: ('A' for Active; 'I' for Inactive)
REMARK    1  A    between atoms: C_2  and  C_3 
REMARK    2  A    between atoms: C_3  and  N_4 
REMARK    3  A    between atoms: C_3  and  C_14 
REMARK       I    between atoms: N_4  and  C_5 
REMARK    4  A    between atoms: C_5  and  C_6 
REMARK    5  A    between atoms: C_17  and  O_18 
ROOT
HETATM    1  C   UNL     1     -42.306  56.864 -54.860  1.00  0.00     0.117 C 
ENDROOT
BRANCH   1   2
HETATM    2  C   UNL     1     -41.582  58.186 -54.539  1.00  0.00     0.025 C 
HETATM    3  C   UNL     1     -41.247  58.346 -53.061  1.00  0.00     0.007 C 
ENDBRANCH   1   2
BRANCH   1   4
HETATM    4  N   UNL     1     -41.548  55.706 -54.400  1.00  0.00    -0.348 N 
HETATM    5  C   UNL     1     -42.064  54.793 -53.506  1.00  0.00     0.253 C 
HETATM    6  O   UNL     1     -43.185  54.875 -53.022  1.00  0.00    -0.268 OA
HETATM    7  H   UNL     1     -40.577  55.662 -54.665  1.00  0.00     0.163 HD
BRANCH   5   8
HETATM    8  C   UNL     1     -41.170  53.680 -53.105  1.00  0.00     0.050 A 
HETATM    9  C   UNL     1     -40.549  53.745 -51.861  1.00  0.00     0.133 A 
HETATM   10  N   UNL     1     -39.699  52.798 -51.388  1.00  0.00    -0.271 NA
HETATM   11  C   UNL     1     -39.472  51.733 -52.190  1.00  0.00     0.135 A 
HETATM   12  C   UNL     1     -40.060  51.573 -53.436  1.00  0.00     0.029 A 
HETATM   13 BR   UNL     1     -39.695  50.048 -54.484  1.00  0.00    -0.050 Br
HETATM   14  C   UNL     1     -40.927  52.558 -53.903  1.00  0.00     0.039 A 
ENDBRANCH   5   8
ENDBRANCH   1   4
BRANCH   1  15
HETATM   15  C   UNL     1     -42.563  56.735 -56.355  1.00  0.00    -0.035 A 
HETATM   16  C   UNL     1     -42.982  55.507 -56.884  1.00  0.00     0.012 A 
HETATM   17  C   UNL     1     -43.218  55.366 -58.254  1.00  0.00     0.037 A 
HETATM   18  C   UNL     1     -43.029  56.440 -59.125  1.00  0.00     0.068 A 
HETATM   19  C   UNL     1     -42.619  57.668 -58.609  1.00  0.00     0.037 A 
HETATM   20  C   UNL     1     -42.392  57.815 -57.235  1.00  0.00     0.012 A 
BRANCH  18  21
HETATM   21  O   UNL     1     -43.286  56.163 -60.439  1.00  0.00    -0.356 OA
HETATM   22  C   UNL     1     -44.507  55.496 -60.728  1.00  0.00     0.210 C 
ENDBRANCH  18  21
ENDBRANCH   1  15
TORSDOF 5
ENDMDL
MODEL 7
REMARK VINA RESULT:      -6.6      4.195      5.262
REMARK  5 active torsions:
REMARK  status: ('A' for Active; 'I' for Inactive)
REMARK    1  A    between atoms: C_2  and  C_3 
REMARK    2  A    between atoms: C_3  and  N_4 
REMARK    3  A    between atoms: C_3  and  C_14 
REMARK       I    between atoms: N_4  and  C_5 
REMARK    4  A    between atoms: C_5  and  C_6 
REMARK    5  A    between atoms: C_17  and  O_18 
ROOT
HETATM    1  C   UNL     1     -41.974  54.995 -53.974  1.00  0.00     0.117 C 
ENDROOT
BRANCH   1   2
HETATM    2  C   UNL     1     -41.595  55.234 -55.448  1.00  0.00     0.025 C 
HETATM    3  C   UNL     1     -42.773  55.097 -56.404  1.00  0.00     0.007 C 
ENDBRANCH   1   2
BRANCH   1   4
HETATM    4  N   UNL     1     -41.719  56.172 -53.152  1.00  0.00    -0.348 N 
HETATM    5  C   UNL     1     -42.733  56.905 -52.575  1.00  0.00     0.253 C 
HETATM    6  O   UNL     1     -43.921  56.641 -52.706  1.00  0.00    -0.268 OA
HETATM    7  H   UNL     1     -40.770  56.507 -53.119  1.00  0.00     0.163 HD
BRANCH   5   8
HETATM    8  C   UNL     1     -42.326  58.093 -51.787  1.00  0.00     0.050 A 
HETATM    9  C   UNL     1     -41.183  58.005 -50.997  1.00  0.00     0.133 A 
HETATM   10  N   UNL     1     -40.718  59.017 -50.221  1.00  0.00    -0.271 NA
HETATM   11  C   UNL     1     -41.419  60.173 -50.249  1.00  0.00     0.135 A 
HETATM   12  C   UNL     1     -42.556  60.360 -51.020  1.00  0.00     0.029 A 
HETATM   13 BR   UNL     1     -43.467  62.012 -51.008  1.00  0.00    -0.050 Br
HETATM   14  C   UNL     1     -43.018  59.308 -51.807  1.00  0.00     0.039 A 
ENDBRANCH   5   8
ENDBRANCH   1   4
BRANCH   1  15
HETATM   15  C   UNL     1     -41.214  53.807 -53.403  1.00  0.00    -0.035 A 
HETATM   16  C   UNL     1     -40.807  52.770 -54.253  1.00  0.00     0.012 A 
HETATM   17  C   UNL     1     -40.114  51.667 -53.747  1.00  0.00     0.037 A 
HETATM   18  C   UNL     1     -39.822  51.570 -52.385  1.00  0.00     0.068 A 
HETATM   19  C   UNL     1     -40.216  52.598 -51.532  1.00  0.00     0.037 A 
HETATM   20  C   UNL     1     -40.902  53.710 -52.038  1.00  0.00     0.012 A 
BRANCH  18  21
HETATM   21  O   UNL     1     -39.148  50.436 -52.024  1.00  0.00    -0.356 OA
HETATM   22  C   UNL     1     -39.553  49.808 -50.815  1.00  0.00     0.210 C 
ENDBRANCH  18  21
ENDBRANCH   1  15
TORSDOF 5
ENDMDL
MODEL 8
REMARK VINA RESULT:      -6.4     14.703     16.957
REMARK  5 active torsions:
REMARK  status: ('A' for Active; 'I' for Inactive)
REMARK    1  A    between atoms: C_2  and  C_3 
REMARK    2  A    between atoms: C_3  and  N_4 
REMARK    3  A    between atoms: C_3  and  C_14 
REMARK       I    between atoms: N_4  and  C_5 
REMARK    4  A    between atoms: C_5  and  C_6 
REMARK    5  A    between atoms: C_17  and  O_18 
ROOT
HETATM    1  C   UNL     1     -36.489  42.067 -55.704  1.00  0.00     0.117 C 
ENDROOT
BRANCH   1   2
HETATM    2  C   UNL     1     -35.008  42.469 -55.841  1.00  0.00     0.025 C 
HETATM    3  C   UNL     1     -34.068  41.276 -55.962  1.00  0.00     0.007 C 
ENDBRANCH   1   2
BRANCH   1   4
HETATM    4  N   UNL     1     -36.706  41.177 -54.570  1.00  0.00    -0.348 N 
HETATM    5  C   UNL     1     -36.539  41.587 -53.265  1.00  0.00     0.253 C 
HETATM    6  O   UNL     1     -36.191  42.718 -52.948  1.00  0.00    -0.268 OA
HETATM    7  H   UNL     1     -36.866  40.205 -54.778  1.00  0.00     0.163 HD
BRANCH   5   8
HETATM    8  C   UNL     1     -36.768  40.566 -52.215  1.00  0.00     0.050 A 
HETATM    9  C   UNL     1     -38.031  39.992 -52.114  1.00  0.00     0.133 A 
HETATM   10  N   UNL     1     -38.368  39.059 -51.187  1.00  0.00    -0.271 NA
HETATM   11  C   UNL     1     -37.391  38.674 -50.333  1.00  0.00     0.135 A 
HETATM   12  C   UNL     1     -36.099  39.176 -50.371  1.00  0.00     0.029 A 
HETATM   13 BR   UNL     1     -34.796  38.573 -49.148  1.00  0.00    -0.050 Br
HETATM   14  C   UNL     1     -35.777  40.134 -51.329  1.00  0.00     0.039 A 
ENDBRANCH   5   8
ENDBRANCH   1   4
BRANCH   1  15
HETATM   15  C   UNL     1     -36.989  41.395 -56.974  1.00  0.00    -0.035 A 
HETATM   16  C   UNL     1     -37.567  40.120 -56.905  1.00  0.00     0.012 A 
HETATM   17  C   UNL     1     -38.026  39.483 -58.060  1.00  0.00     0.037 A 
HETATM   18  C   UNL     1     -37.908  40.096 -59.309  1.00  0.00     0.068 A 
HETATM   19  C   UNL     1     -37.341  41.367 -59.390  1.00  0.00     0.037 A 
HETATM   20  C   UNL     1     -36.889  42.012 -58.232  1.00  0.00     0.012 A 
BRANCH  18  21
HETATM   21  O   UNL     1     -38.388  39.360 -60.356  1.00  0.00    -0.356 OA
HETATM   22  C   UNL     1     -37.578  39.299 -61.522  1.00  0.00     0.210 C 
ENDBRANCH  18  21
ENDBRANCH   1  15
TORSDOF 5
ENDMDL
MODEL 9
REMARK VINA RESULT:      -6.2      2.760      3.275
REMARK  5 active torsions:
REMARK  status: ('A' for Active; 'I' for Inactive)
REMARK    1  A    between atoms: C_2  and  C_3 
REMARK    2  A    between atoms: C_3  and  N_4 
REMARK    3  A    between atoms: C_3  and  C_14 
REMARK       I    between atoms: N_4  and  C_5 
REMARK    4  A    between atoms: C_5  and  C_6 
REMARK    5  A    between atoms: C_17  and  O_18 
ROOT
HETATM    1  C   UNL     1     -41.446  55.268 -54.789  1.00  0.00     0.117 C 
ENDROOT
BRANCH   1   2
HETATM    2  C   UNL     1     -40.151  54.471 -55.034  1.00  0.00     0.025 C 
HETATM    3  C   UNL     1     -40.239  53.021 -54.574  1.00  0.00     0.007 C 
ENDBRANCH   1   2
BRANCH   1   4
HETATM    4  N   UNL     1     -41.771  56.133 -55.917  1.00  0.00    -0.348 N 
HETATM    5  C   UNL     1     -42.650  55.756 -56.908  1.00  0.00     0.253 C 
HETATM    6  O   UNL     1     -43.223  54.675 -56.933  1.00  0.00    -0.268 OA
HETATM    7  H   UNL     1     -41.231  56.978 -56.013  1.00  0.00     0.163 HD
BRANCH   5   8
HETATM    8  C   UNL     1     -42.864  56.727 -58.008  1.00  0.00     0.050 A 
HETATM    9  C   UNL     1     -43.601  56.320 -59.117  1.00  0.00     0.133 A 
HETATM   10  N   UNL     1     -43.852  57.110 -60.192  1.00  0.00    -0.271 NA
HETATM   11  C   UNL     1     -43.355  58.367 -60.149  1.00  0.00     0.135 A 
HETATM   12  C   UNL     1     -42.627  58.866 -59.079  1.00  0.00     0.029 A 
HETATM   13 BR   UNL     1     -41.981  60.638 -59.098  1.00  0.00    -0.050 Br
HETATM   14  C   UNL     1     -42.379  58.038 -57.987  1.00  0.00     0.039 A 
ENDBRANCH   5   8
ENDBRANCH   1   4
BRANCH   1  15
HETATM   15  C   UNL     1     -41.334  56.109 -53.525  1.00  0.00    -0.035 A 
HETATM   16  C   UNL     1     -40.884  57.434 -53.609  1.00  0.00     0.012 A 
HETATM   17  C   UNL     1     -40.769  58.220 -52.460  1.00  0.00     0.037 A 
HETATM   18  C   UNL     1     -41.087  57.701 -51.205  1.00  0.00     0.068 A 
HETATM   19  C   UNL     1     -41.542  56.388 -51.109  1.00  0.00     0.037 A 
HETATM   20  C   UNL     1     -41.668  55.600 -52.260  1.00  0.00     0.012 A 
BRANCH  18  21
HETATM   21  O   UNL     1     -40.920  58.574 -50.165  1.00  0.00    -0.356 OA
HETATM   22  C   UNL     1     -40.104  59.712 -50.407  1.00  0.00     0.210 C 
ENDBRANCH  18  21
ENDBRANCH   1  15
TORSDOF 5
ENDMDL
MODEL 10
REMARK VINA RESULT:      -6.1      2.273      3.460
REMARK  5 active torsions:
REMARK  status: ('A' for Active; 'I' for Inactive)
REMARK    1  A    between atoms: C_2  and  C_3 
REMARK    2  A    between atoms: C_3  and  N_4 
REMARK    3  A    between atoms: C_3  and  C_14 
REMARK       I    between atoms: N_4  and  C_5 
REMARK    4  A    between atoms: C_5  and  C_6 
REMARK    5  A    between atoms: C_17  and  O_18 
ROOT
HETATM    1  C   UNL     1     -41.709  55.596 -52.800  1.00  0.00     0.117 C 
ENDROOT
BRANCH   1   2
HETATM    2  C   UNL     1     -42.917  55.743 -51.856  1.00  0.00     0.025 C 
HETATM    3  C   UNL     1     -43.653  54.432 -51.610  1.00  0.00     0.007 C 
ENDBRANCH   1   2
BRANCH   1   4
HETATM    4  N   UNL     1     -42.090  55.759 -54.198  1.00  0.00    -0.348 N 
HETATM    5  C   UNL     1     -41.905  56.941 -54.882  1.00  0.00     0.253 C 
HETATM    6  O   UNL     1     -41.418  57.947 -54.381  1.00  0.00    -0.268 OA
HETATM    7  H   UNL     1     -42.613  55.008 -54.618  1.00  0.00     0.163 HD
BRANCH   5   8
HETATM    8  C   UNL     1     -42.367  56.971 -56.290  1.00  0.00     0.050 A 
HETATM    9  C   UNL     1     -42.852  55.794 -56.853  1.00  0.00     0.133 A 
HETATM   10  N   UNL     1     -43.289  55.691 -58.134  1.00  0.00    -0.271 NA
HETATM   11  C   UNL     1     -43.252  56.819 -58.880  1.00  0.00     0.135 A 
HETATM   12  C   UNL     1     -42.804  58.040 -58.399  1.00  0.00     0.029 A 
HETATM   13 BR   UNL     1     -42.797  59.567 -59.506  1.00  0.00    -0.050 Br
HETATM   14  C   UNL     1     -42.358  58.123 -57.082  1.00  0.00     0.039 A 
ENDBRANCH   5   8
ENDBRANCH   1   4
BRANCH   1  15
HETATM   15  C   UNL     1     -41.038  54.242 -52.617  1.00  0.00    -0.035 A 
HETATM   16  C   UNL     1     -40.471  53.910 -51.379  1.00  0.00     0.012 A 
HETATM   17  C   UNL     1     -39.845  52.675 -51.192  1.00  0.00     0.037 A 
HETATM   18  C   UNL     1     -39.760  51.752 -52.236  1.00  0.00     0.068 A 
HETATM   19  C   UNL     1     -40.326  52.069 -53.469  1.00  0.00     0.037 A 
HETATM   20  C   UNL     1     -40.963  53.302 -53.657  1.00  0.00     0.012 A 
BRANCH  18  21
HETATM   21  O   UNL     1     -39.114  50.589 -51.920  1.00  0.00    -0.356 OA
HETATM   22  C   UNL     1     -39.567  49.408 -52.569  1.00  0.00     0.210 C 
ENDBRANCH  18  21
ENDBRANCH   1  15
TORSDOF 5
ENDMDL
