MODEL 1
REMARK VINA RESULT:      -8.2      0.000      0.000
REMARK  4 active torsions:
REMARK  status: ('A' for Active; 'I' for Inactive)
REMARK    1  A    between atoms: N_2  and  C_4 
REMARK    2  A    between atoms: N_2  and  C_16 
REMARK    3  A    between atoms: C_4  and  C_5 
REMARK    4  A    between atoms: C_16  and  C_17 
ROOT
HETATM    1  C   UNL     1     -40.928  57.487 -50.626  1.00  0.00     0.270 C 
HETATM    2  N   UNL     1     -41.579  56.194 -51.026  1.00  0.00    -0.064 N 
HETATM    3  H   UNL     1     -41.423  56.097 -52.047  1.00  0.00     0.280 HD
ENDROOT
BRANCH   2   4
HETATM    4  C   UNL     1     -40.908  54.976 -50.412  1.00  0.00     0.312 C 
BRANCH   4   5
HETATM    5  C   UNL     1     -40.605  53.907 -51.454  1.00  0.00     0.133 A 
HETATM    6  N   UNL     1     -40.290  52.713 -51.059  1.00  0.00    -0.233 NA
HETATM    7  C   UNL     1     -40.028  51.746 -52.052  1.00  0.00     0.074 A 
HETATM    8  C   UNL     1     -40.100  52.033 -53.421  1.00  0.00     0.061 A 
HETATM    9  C   UNL     1     -39.694  50.448 -51.663  1.00  0.00     0.032 A 
HETATM   10  C   UNL     1     -40.458  53.407 -53.805  1.00  0.00     0.259 A 
HETATM   11  C   UNL     1     -39.848  51.059 -54.389  1.00  0.00     0.019 A 
HETATM   12  O   UNL     1     -40.554  53.772 -54.967  1.00  0.00    -0.267 OA
HETATM   13  N   UNL     1     -40.692  54.275 -52.767  1.00  0.00    -0.309 N 
HETATM   14  H   UNL     1     -40.923  55.214 -53.068  1.00  0.00     0.170 HD
HETATM   15  C   UNL     1     -39.516  49.768 -53.984  1.00  0.00     0.001 A 
HETATM   16  C   UNL     1     -39.438  49.463 -52.624  1.00  0.00     0.002 A 
ENDBRANCH   4   5
ENDBRANCH   2   4
BRANCH   2  17
HETATM   17  C   UNL     1     -43.071  56.182 -50.821  1.00  0.00     0.276 C 
BRANCH  17  18
HETATM   18  C   UNL     1     -43.822  57.135 -51.708  1.00  0.00     0.003 A 
HETATM   19  C   UNL     1     -43.827  56.969 -53.102  1.00  0.00     0.088 A 
HETATM   20  C   UNL     1     -44.491  57.877 -53.934  1.00  0.00     0.001 A 
HETATM   21  O   UNL     1     -43.121  55.904 -53.605  1.00  0.00    -0.325 OA
HETATM   22  C   UNL     1     -44.457  57.688 -55.421  1.00  0.00     0.212 C 
HETATM   23  C   UNL     1     -45.201  58.942 -53.364  1.00  0.00     0.036 A 
HETATM   24  O   UNL     1     -43.347  56.870 -55.768  1.00  0.00    -0.362 OA
HETATM   25  C   UNL     1     -43.372  55.677 -55.001  1.00  0.00     0.345 C 
HETATM   26  C   UNL     1     -45.216  59.104 -51.981  1.00  0.00     0.035 A 
HETATM   27 CL   UNL     1     -46.072  60.419 -51.282  1.00  0.00    -0.084 Cl
HETATM   28  C   UNL     1     -44.531  58.213 -51.153  1.00  0.00     0.035 A 
ENDBRANCH  17  18
ENDBRANCH   2  17
TORSDOF 4
ENDMDL
MODEL 2
REMARK VINA RESULT:      -7.9      4.454      8.230
REMARK  4 active torsions:
REMARK  status: ('A' for Active; 'I' for Inactive)
REMARK    1  A    between atoms: N_2  and  C_4 
REMARK    2  A    between atoms: N_2  and  C_16 
REMARK    3  A    between atoms: C_4  and  C_5 
REMARK    4  A    between atoms: C_16  and  C_17 
ROOT
HETATM    1  C   UNL     1     -43.025  54.053 -55.095  1.00  0.00     0.270 C 
HETATM    2  N   UNL     1     -42.099  55.047 -55.734  1.00  0.00    -0.064 N 
HETATM    3  H   UNL     1     -42.072  54.810 -56.743  1.00  0.00     0.280 HD
ENDROOT
BRANCH   2   4
HETATM    4  C   UNL     1     -42.627  56.471 -55.682  1.00  0.00     0.312 C 
BRANCH   4   5
HETATM    5  C   UNL     1     -42.476  57.184 -57.020  1.00  0.00     0.133 A 
HETATM    6  N   UNL     1     -42.257  58.462 -57.032  1.00  0.00    -0.233 NA
HETATM    7  C   UNL     1     -42.110  59.086 -58.289  1.00  0.00     0.074 A 
HETATM    8  C   UNL     1     -42.190  58.378 -59.494  1.00  0.00     0.061 A 
HETATM    9  C   UNL     1     -41.865  60.459 -58.339  1.00  0.00     0.032 A 
HETATM   10  C   UNL     1     -42.445  56.932 -59.414  1.00  0.00     0.259 A 
HETATM   11  C   UNL     1     -42.030  59.013 -60.729  1.00  0.00     0.019 A 
HETATM   12  O   UNL     1     -42.531  56.214 -60.399  1.00  0.00    -0.267 OA
HETATM   13  N   UNL     1     -42.575  56.419 -58.147  1.00  0.00    -0.309 N 
HETATM   14  H   UNL     1     -42.762  55.424 -58.130  1.00  0.00     0.170 HD
HETATM   15  C   UNL     1     -41.786  60.384 -60.761  1.00  0.00     0.001 A 
HETATM   16  C   UNL     1     -41.704  61.106 -59.570  1.00  0.00     0.002 A 
ENDBRANCH   4   5
ENDBRANCH   2   4
BRANCH   2  17
HETATM   17  C   UNL     1     -40.679  54.953 -55.238  1.00  0.00     0.276 C 
BRANCH  17  18
HETATM   18  C   UNL     1     -40.452  53.866 -54.225  1.00  0.00     0.003 A 
HETATM   19  C   UNL     1     -40.616  54.114 -52.853  1.00  0.00     0.088 A 
HETATM   20  C   UNL     1     -40.367  53.115 -51.905  1.00  0.00     0.001 A 
HETATM   21  O   UNL     1     -40.991  55.384 -52.490  1.00  0.00    -0.325 OA
HETATM   22  C   UNL     1     -40.526  53.417 -50.445  1.00  0.00     0.212 C 
HETATM   23  C   UNL     1     -39.994  51.836 -52.334  1.00  0.00     0.036 A 
HETATM   24  O   UNL     1     -40.448  54.823 -50.242  1.00  0.00    -0.362 OA
HETATM   25  C   UNL     1     -41.360  55.483 -51.106  1.00  0.00     0.345 C 
HETATM   26  C   UNL     1     -39.846  51.575 -53.694  1.00  0.00     0.035 A 
HETATM   27 CL   UNL     1     -39.371  50.010 -54.221  1.00  0.00    -0.084 Cl
HETATM   28  C   UNL     1     -40.068  52.579 -54.638  1.00  0.00     0.035 A 
ENDBRANCH  17  18
ENDBRANCH   2  17
TORSDOF 4
ENDMDL
MODEL 3
REMARK VINA RESULT:      -7.9      3.287      8.011
REMARK  4 active torsions:
REMARK  status: ('A' for Active; 'I' for Inactive)
REMARK    1  A    between atoms: N_2  and  C_4 
REMARK    2  A    between atoms: N_2  and  C_16 
REMARK    3  A    between atoms: C_4  and  C_5 
REMARK    4  A    between atoms: C_16  and  C_17 
ROOT
HETATM    1  C   UNL     1     -40.899  55.867 -55.091  1.00  0.00     0.270 C 
HETATM    2  N   UNL     1     -42.206  55.470 -54.468  1.00  0.00    -0.064 N 
HETATM    3  H   UNL     1     -42.136  55.723 -53.465  1.00  0.00     0.280 HD
ENDROOT
BRANCH   2   4
HETATM    4  C   UNL     1     -43.384  56.274 -54.993  1.00  0.00     0.312 C 
BRANCH   4   5
HETATM    5  C   UNL     1     -44.019  57.130 -53.905  1.00  0.00     0.133 A 
HETATM    6  N   UNL     1     -44.435  58.321 -54.203  1.00  0.00    -0.233 NA
HETATM    7  C   UNL     1     -45.030  59.080 -53.172  1.00  0.00     0.074 A 
HETATM    8  C   UNL     1     -45.179  58.593 -51.868  1.00  0.00     0.061 A 
HETATM    9  C   UNL     1     -45.497  60.364 -53.460  1.00  0.00     0.032 A 
HETATM   10  C   UNL     1     -44.682  57.237 -51.593  1.00  0.00     0.259 A 
HETATM   11  C   UNL     1     -45.780  59.356 -50.864  1.00  0.00     0.019 A 
HETATM   12  O   UNL     1     -44.761  56.707 -50.494  1.00  0.00    -0.267 OA
HETATM   13  N   UNL     1     -44.119  56.580 -52.659  1.00  0.00    -0.309 N 
HETATM   14  H   UNL     1     -43.776  55.655 -52.430  1.00  0.00     0.170 HD
HETATM   15  C   UNL     1     -46.242  60.635 -51.168  1.00  0.00     0.001 A 
HETATM   16  C   UNL     1     -46.100  61.138 -52.462  1.00  0.00     0.002 A 
ENDBRANCH   4   5
ENDBRANCH   2   4
BRANCH   2  17
HETATM   17  C   UNL     1     -42.468  53.987 -54.514  1.00  0.00     0.276 C 
BRANCH  17  18
HETATM   18  C   UNL     1     -41.505  53.166 -53.703  1.00  0.00     0.003 A 
HETATM   19  C   UNL     1     -41.240  53.484 -52.362  1.00  0.00     0.088 A 
HETATM   20  C   UNL     1     -40.313  52.747 -51.616  1.00  0.00     0.001 A 
HETATM   21  O   UNL     1     -41.899  54.568 -51.837  1.00  0.00    -0.325 OA
HETATM   22  C   UNL     1     -40.032  53.126 -50.193  1.00  0.00     0.212 C 
HETATM   23  C   UNL     1     -39.676  51.646 -52.203  1.00  0.00     0.036 A 
HETATM   24  O   UNL     1     -40.412  54.480 -49.981  1.00  0.00    -0.362 OA
HETATM   25  C   UNL     1     -41.749  54.676 -50.412  1.00  0.00     0.345 C 
HETATM   26  C   UNL     1     -39.946  51.313 -53.528  1.00  0.00     0.035 A 
HETATM   27 CL   UNL     1     -39.152  49.973 -54.254  1.00  0.00    -0.084 Cl
HETATM   28  C   UNL     1     -40.850  52.065 -54.279  1.00  0.00     0.035 A 
ENDBRANCH  17  18
ENDBRANCH   2  17
TORSDOF 4
ENDMDL
MODEL 4
REMARK VINA RESULT:      -7.8      3.031      4.274
REMARK  4 active torsions:
REMARK  status: ('A' for Active; 'I' for Inactive)
REMARK    1  A    between atoms: N_2  and  C_4 
REMARK    2  A    between atoms: N_2  and  C_16 
REMARK    3  A    between atoms: C_4  and  C_5 
REMARK    4  A    between atoms: C_16  and  C_17 
ROOT
HETATM    1  C   UNL     1     -43.343  54.971 -53.636  1.00  0.00     0.270 C 
HETATM    2  N   UNL     1     -42.386  55.718 -54.521  1.00  0.00    -0.064 N 
HETATM    3  H   UNL     1     -42.650  56.718 -54.451  1.00  0.00     0.280 HD
ENDROOT
BRANCH   2   4
HETATM    4  C   UNL     1     -40.950  55.657 -54.029  1.00  0.00     0.312 C 
BRANCH   4   5
HETATM    5  C   UNL     1     -40.616  54.306 -53.410  1.00  0.00     0.133 A 
HETATM    6  N   UNL     1     -40.481  53.274 -54.184  1.00  0.00    -0.233 NA
HETATM    7  C   UNL     1     -40.159  52.042 -53.577  1.00  0.00     0.074 A 
HETATM    8  C   UNL     1     -39.983  51.907 -52.195  1.00  0.00     0.061 A 
HETATM    9  C   UNL     1     -39.998  50.912 -54.381  1.00  0.00     0.032 A 
HETATM   10  C   UNL     1     -40.155  53.112 -51.371  1.00  0.00     0.259 A 
HETATM   11  C   UNL     1     -39.654  50.679 -51.614  1.00  0.00     0.019 A 
HETATM   12  O   UNL     1     -40.024  53.115 -50.155  1.00  0.00    -0.267 OA
HETATM   13  N   UNL     1     -40.469  54.262 -52.053  1.00  0.00    -0.309 N 
HETATM   14  H   UNL     1     -40.592  55.068 -51.453  1.00  0.00     0.170 HD
HETATM   15  C   UNL     1     -39.497  49.562 -52.430  1.00  0.00     0.001 A 
HETATM   16  C   UNL     1     -39.669  49.677 -53.810  1.00  0.00     0.002 A 
ENDBRANCH   4   5
ENDBRANCH   2   4
BRANCH   2  17
HETATM   17  C   UNL     1     -42.501  55.349 -55.977  1.00  0.00     0.276 C 
BRANCH  17  18
HETATM   18  C   UNL     1     -42.710  56.522 -56.894  1.00  0.00     0.003 A 
HETATM   19  C   UNL     1     -43.260  56.347 -58.173  1.00  0.00     0.088 A 
HETATM   20  C   UNL     1     -43.419  57.432 -59.044  1.00  0.00     0.001 A 
HETATM   21  O   UNL     1     -43.595  55.067 -58.537  1.00  0.00    -0.325 OA
HETATM   22  C   UNL     1     -43.986  57.210 -60.414  1.00  0.00     0.212 C 
HETATM   23  C   UNL     1     -43.066  58.717 -58.615  1.00  0.00     0.036 A 
HETATM   24  O   UNL     1     -43.829  55.843 -60.775  1.00  0.00    -0.362 OA
HETATM   25  C   UNL     1     -44.358  55.013 -59.753  1.00  0.00     0.345 C 
HETATM   26  C   UNL     1     -42.535  58.902 -57.341  1.00  0.00     0.035 A 
HETATM   27 CL   UNL     1     -42.086  60.477 -56.820  1.00  0.00    -0.084 Cl
HETATM   28  C   UNL     1     -42.353  57.817 -56.482  1.00  0.00     0.035 A 
ENDBRANCH  17  18
ENDBRANCH   2  17
TORSDOF 4
ENDMDL
MODEL 5
REMARK VINA RESULT:      -7.7      2.589      3.829
REMARK  4 active torsions:
REMARK  status: ('A' for Active; 'I' for Inactive)
REMARK    1  A    between atoms: N_2  and  C_4 
REMARK    2  A    between atoms: N_2  and  C_16 
REMARK    3  A    between atoms: C_4  and  C_5 
REMARK    4  A    between atoms: C_16  and  C_17 
ROOT
HETATM    1  C   UNL     1     -43.244  55.737 -55.019  1.00  0.00     0.270 C 
HETATM    2  N   UNL     1     -41.955  56.176 -54.386  1.00  0.00    -0.064 N 
HETATM    3  H   UNL     1     -42.051  55.981 -53.372  1.00  0.00     0.280 HD
ENDROOT
BRANCH   2   4
HETATM    4  C   UNL     1     -40.762  55.349 -54.833  1.00  0.00     0.312 C 
BRANCH   4   5
HETATM    5  C   UNL     1     -40.502  54.173 -53.899  1.00  0.00     0.133 A 
HETATM    6  N   UNL     1     -40.305  52.997 -54.406  1.00  0.00    -0.233 NA
HETATM    7  C   UNL     1     -40.055  51.935 -53.511  1.00  0.00     0.074 A 
HETATM    8  C   UNL     1     -40.013  52.114 -52.124  1.00  0.00     0.061 A 
HETATM    9  C   UNL     1     -39.830  50.656 -54.024  1.00  0.00     0.032 A 
HETATM   10  C   UNL     1     -40.250  53.471 -51.610  1.00  0.00     0.259 A 
HETATM   11  C   UNL     1     -39.754  51.051 -51.254  1.00  0.00     0.019 A 
HETATM   12  O   UNL     1     -40.236  53.747 -50.419  1.00  0.00    -0.267 OA
HETATM   13  N   UNL     1     -40.486  54.435 -52.559  1.00  0.00    -0.309 N 
HETATM   14  H   UNL     1     -40.657  55.354 -52.169  1.00  0.00     0.170 HD
HETATM   15  C   UNL     1     -39.531  49.781 -51.782  1.00  0.00     0.001 A 
HETATM   16  C   UNL     1     -39.569  49.583 -53.162  1.00  0.00     0.002 A 
ENDBRANCH   4   5
ENDBRANCH   2   4
BRANCH   2  17
HETATM   17  C   UNL     1     -41.697  57.655 -54.511  1.00  0.00     0.276 C 
BRANCH  17  18
HETATM   18  C   UNL     1     -41.599  58.375 -53.195  1.00  0.00     0.003 A 
HETATM   19  C   UNL     1     -42.746  58.888 -52.568  1.00  0.00     0.088 A 
HETATM   20  C   UNL     1     -42.653  59.595 -51.364  1.00  0.00     0.001 A 
HETATM   21  O   UNL     1     -43.944  58.698 -53.210  1.00  0.00    -0.325 OA
HETATM   22  C   UNL     1     -43.892  60.153 -50.730  1.00  0.00     0.212 C 
HETATM   23  C   UNL     1     -41.403  59.751 -50.751  1.00  0.00     0.036 A 
HETATM   24  O   UNL     1     -44.911  60.277 -51.715  1.00  0.00    -0.362 OA
HETATM   25  C   UNL     1     -45.075  59.043 -52.394  1.00  0.00     0.345 C 
HETATM   26  C   UNL     1     -40.263  59.231 -51.357  1.00  0.00     0.035 A 
HETATM   27 CL   UNL     1     -38.727  59.438 -50.615  1.00  0.00    -0.084 Cl
HETATM   28  C   UNL     1     -40.352  58.550 -52.572  1.00  0.00     0.035 A 
ENDBRANCH  17  18
ENDBRANCH   2  17
TORSDOF 4
ENDMDL
MODEL 6
REMARK VINA RESULT:      -7.7      3.197      6.499
REMARK  4 active torsions:
REMARK  status: ('A' for Active; 'I' for Inactive)
REMARK    1  A    between atoms: N_2  and  C_4 
REMARK    2  A    between atoms: N_2  and  C_16 
REMARK    3  A    between atoms: C_4  and  C_5 
REMARK    4  A    between atoms: C_16  and  C_17 
ROOT
HETATM    1  C   UNL     1     -43.889  56.941 -51.788  1.00  0.00     0.270 C 
HETATM    2  N   UNL     1     -42.660  56.909 -52.650  1.00  0.00    -0.064 N 
HETATM    3  H   UNL     1     -42.710  56.025 -53.190  1.00  0.00     0.280 HD
ENDROOT
BRANCH   2   4
HETATM    4  C   UNL     1     -42.642  58.007 -53.701  1.00  0.00     0.312 C 
BRANCH   4   5
HETATM    5  C   UNL     1     -42.706  57.443 -55.115  1.00  0.00     0.133 A 
HETATM    6  N   UNL     1     -42.485  58.233 -56.119  1.00  0.00    -0.233 NA
HETATM    7  C   UNL     1     -42.540  57.673 -57.413  1.00  0.00     0.074 A 
HETATM    8  C   UNL     1     -42.820  56.320 -57.636  1.00  0.00     0.061 A 
HETATM    9  C   UNL     1     -42.299  58.493 -58.517  1.00  0.00     0.032 A 
HETATM   10  C   UNL     1     -43.068  55.477 -56.457  1.00  0.00     0.259 A 
HETATM   11  C   UNL     1     -42.860  55.782 -58.925  1.00  0.00     0.019 A 
HETATM   12  O   UNL     1     -43.318  54.283 -56.529  1.00  0.00    -0.267 OA
HETATM   13  N   UNL     1     -42.992  56.114 -55.242  1.00  0.00    -0.309 N 
HETATM   14  H   UNL     1     -43.181  55.507 -54.454  1.00  0.00     0.170 HD
HETATM   15  C   UNL     1     -42.617  56.614 -60.016  1.00  0.00     0.001 A 
HETATM   16  C   UNL     1     -42.337  57.966 -59.813  1.00  0.00     0.002 A 
ENDBRANCH   4   5
ENDBRANCH   2   4
BRANCH   2  17
HETATM   17  C   UNL     1     -41.375  56.856 -51.866  1.00  0.00     0.276 C 
BRANCH  17  18
HETATM   18  C   UNL     1     -40.984  55.475 -51.418  1.00  0.00     0.003 A 
HETATM   19  C   UNL     1     -40.704  54.467 -52.354  1.00  0.00     0.088 A 
HETATM   20  C   UNL     1     -40.379  53.170 -51.940  1.00  0.00     0.001 A 
HETATM   21  O   UNL     1     -40.803  54.804 -53.681  1.00  0.00    -0.325 OA
HETATM   22  C   UNL     1     -40.110  52.107 -52.964  1.00  0.00     0.212 C 
HETATM   23  C   UNL     1     -40.287  52.886 -50.572  1.00  0.00     0.036 A 
HETATM   24  O   UNL     1     -40.699  52.484 -54.203  1.00  0.00    -0.362 OA
HETATM   25  C   UNL     1     -40.277  53.793 -54.555  1.00  0.00     0.345 C 
HETATM   26  C   UNL     1     -40.546  53.884 -49.637  1.00  0.00     0.035 A 
HETATM   27 CL   UNL     1     -40.449  53.532 -47.958  1.00  0.00    -0.084 Cl
HETATM   28  C   UNL     1     -40.896  55.171 -50.050  1.00  0.00     0.035 A 
ENDBRANCH  17  18
ENDBRANCH   2  17
TORSDOF 4
ENDMDL
MODEL 7
REMARK VINA RESULT:      -7.7      4.248      7.860
REMARK  4 active torsions:
REMARK  status: ('A' for Active; 'I' for Inactive)
REMARK    1  A    between atoms: N_2  and  C_4 
REMARK    2  A    between atoms: N_2  and  C_16 
REMARK    3  A    between atoms: C_4  and  C_5 
REMARK    4  A    between atoms: C_16  and  C_17 
ROOT
HETATM    1  C   UNL     1     -43.303  55.465 -54.355  1.00  0.00     0.270 C 
HETATM    2  N   UNL     1     -42.057  55.750 -55.144  1.00  0.00    -0.064 N 
HETATM    3  H   UNL     1     -41.986  54.996 -55.852  1.00  0.00     0.280 HD
ENDROOT
BRANCH   2   4
HETATM    4  C   UNL     1     -42.144  57.035 -55.950  1.00  0.00     0.312 C 
BRANCH   4   5
HETATM    5  C   UNL     1     -43.201  56.951 -57.044  1.00  0.00     0.133 A 
HETATM    6  N   UNL     1     -43.088  56.042 -57.961  1.00  0.00    -0.233 NA
HETATM    7  C   UNL     1     -44.092  55.986 -58.951  1.00  0.00     0.074 A 
HETATM    8  C   UNL     1     -45.182  56.865 -58.967  1.00  0.00     0.061 A 
HETATM    9  C   UNL     1     -44.007  55.014 -59.949  1.00  0.00     0.032 A 
HETATM   10  C   UNL     1     -45.250  57.877 -57.903  1.00  0.00     0.259 A 
HETATM   11  C   UNL     1     -46.172  56.787 -59.950  1.00  0.00     0.019 A 
HETATM   12  O   UNL     1     -46.156  58.694 -57.815  1.00  0.00    -0.267 OA
HETATM   13  N   UNL     1     -44.226  57.851 -56.989  1.00  0.00    -0.309 N 
HETATM   14  H   UNL     1     -44.299  58.570 -56.279  1.00  0.00     0.170 HD
HETATM   15  C   UNL     1     -46.072  55.811 -60.939  1.00  0.00     0.001 A 
HETATM   16  C   UNL     1     -44.993  54.927 -60.939  1.00  0.00     0.002 A 
ENDBRANCH   4   5
ENDBRANCH   2   4
BRANCH   2  17
HETATM   17  C   UNL     1     -40.796  55.681 -54.323  1.00  0.00     0.276 C 
BRANCH  17  18
HETATM   18  C   UNL     1     -40.595  54.372 -53.612  1.00  0.00     0.003 A 
HETATM   19  C   UNL     1     -40.643  54.299 -52.211  1.00  0.00     0.088 A 
HETATM   20  C   UNL     1     -40.417  53.089 -51.544  1.00  0.00     0.001 A 
HETATM   21  O   UNL     1     -40.881  55.469 -51.534  1.00  0.00    -0.325 OA
HETATM   22  C   UNL     1     -40.449  53.047 -50.046  1.00  0.00     0.212 C 
HETATM   23  C   UNL     1     -40.185  51.926 -52.288  1.00  0.00     0.036 A 
HETATM   24  O   UNL     1     -40.237  54.356 -49.532  1.00  0.00    -0.362 OA
HETATM   25  C   UNL     1     -41.145  55.263 -50.137  1.00  0.00     0.345 C 
HETATM   26  C   UNL     1     -40.153  51.986 -53.679  1.00  0.00     0.035 A 
HETATM   27 CL   UNL     1     -39.852  50.561 -54.592  1.00  0.00    -0.084 Cl
HETATM   28  C   UNL     1     -40.352  53.197 -54.343  1.00  0.00     0.035 A 
ENDBRANCH  17  18
ENDBRANCH   2  17
TORSDOF 4
ENDMDL
MODEL 8
REMARK VINA RESULT:      -7.6      3.321      7.511
REMARK  4 active torsions:
REMARK  status: ('A' for Active; 'I' for Inactive)
REMARK    1  A    between atoms: N_2  and  C_4 
REMARK    2  A    between atoms: N_2  and  C_16 
REMARK    3  A    between atoms: C_4  and  C_5 
REMARK    4  A    between atoms: C_16  and  C_17 
ROOT
HETATM    1  C   UNL     1     -42.654  55.765 -56.539  1.00  0.00     0.270 C 
HETATM    2  N   UNL     1     -42.997  55.942 -55.088  1.00  0.00    -0.064 N 
HETATM    3  H   UNL     1     -42.132  56.280 -54.627  1.00  0.00     0.280 HD
ENDROOT
BRANCH   2   4
HETATM    4  C   UNL     1     -44.020  57.040 -54.849  1.00  0.00     0.312 C 
BRANCH   4   5
HETATM    5  C   UNL     1     -43.589  57.988 -53.737  1.00  0.00     0.133 A 
HETATM    6  N   UNL     1     -44.490  58.491 -52.952  1.00  0.00    -0.233 NA
HETATM    7  C   UNL     1     -44.052  59.355 -51.926  1.00  0.00     0.074 A 
HETATM    8  C   UNL     1     -42.702  59.674 -51.736  1.00  0.00     0.061 A 
HETATM    9  C   UNL     1     -44.994  59.908 -51.058  1.00  0.00     0.032 A 
HETATM   10  C   UNL     1     -41.729  59.076 -52.663  1.00  0.00     0.259 A 
HETATM   11  C   UNL     1     -42.287  60.524 -50.708  1.00  0.00     0.019 A 
HETATM   12  O   UNL     1     -40.526  59.281 -52.592  1.00  0.00    -0.267 OA
HETATM   13  N   UNL     1     -42.253  58.251 -53.627  1.00  0.00    -0.309 N 
HETATM   14  H   UNL     1     -41.557  57.868 -54.254  1.00  0.00     0.170 HD
HETATM   15  C   UNL     1     -43.240  61.067 -49.849  1.00  0.00     0.001 A 
HETATM   16  C   UNL     1     -44.590  60.761 -50.024  1.00  0.00     0.002 A 
ENDBRANCH   4   5
ENDBRANCH   2   4
BRANCH   2  17
HETATM   17  C   UNL     1     -43.374  54.658 -54.397  1.00  0.00     0.276 C 
BRANCH  17  18
HETATM   18  C   UNL     1     -42.248  54.018 -53.633  1.00  0.00     0.003 A 
HETATM   19  C   UNL     1     -41.859  54.509 -52.377  1.00  0.00     0.088 A 
HETATM   20  C   UNL     1     -40.786  53.940 -51.682  1.00  0.00     0.001 A 
HETATM   21  O   UNL     1     -42.552  55.589 -51.889  1.00  0.00    -0.325 OA
HETATM   22  C   UNL     1     -40.377  54.503 -50.354  1.00  0.00     0.212 C 
HETATM   23  C   UNL     1     -40.120  52.835 -52.227  1.00  0.00     0.036 A 
HETATM   24  O   UNL     1     -40.857  55.837 -50.238  1.00  0.00    -0.362 OA
HETATM   25  C   UNL     1     -42.248  55.872 -50.514  1.00  0.00     0.345 C 
HETATM   26  C   UNL     1     -40.511  52.330 -53.464  1.00  0.00     0.035 A 
HETATM   27 CL   UNL     1     -39.683  50.985 -54.141  1.00  0.00    -0.084 Cl
HETATM   28  C   UNL     1     -41.564  52.914 -54.170  1.00  0.00     0.035 A 
ENDBRANCH  17  18
ENDBRANCH   2  17
TORSDOF 4
ENDMDL
MODEL 9
REMARK VINA RESULT:      -7.6      3.361      6.756
REMARK  4 active torsions:
REMARK  status: ('A' for Active; 'I' for Inactive)
REMARK    1  A    between atoms: N_2  and  C_4 
REMARK    2  A    between atoms: N_2  and  C_16 
REMARK    3  A    between atoms: C_4  and  C_5 
REMARK    4  A    between atoms: C_16  and  C_17 
ROOT
HETATM    1  C   UNL     1     -41.013  56.978 -53.435  1.00  0.00     0.270 C 
HETATM    2  N   UNL     1     -42.421  56.749 -52.966  1.00  0.00    -0.064 N 
HETATM    3  H   UNL     1     -42.475  57.150 -52.011  1.00  0.00     0.280 HD
ENDROOT
BRANCH   2   4
HETATM    4  C   UNL     1     -43.450  57.522 -53.773  1.00  0.00     0.312 C 
BRANCH   4   5
HETATM    5  C   UNL     1     -43.040  57.664 -55.233  1.00  0.00     0.133 A 
HETATM    6  N   UNL     1     -43.270  56.684 -56.050  1.00  0.00    -0.233 NA
HETATM    7  C   UNL     1     -42.888  56.857 -57.398  1.00  0.00     0.074 A 
HETATM    8  C   UNL     1     -42.284  58.030 -57.865  1.00  0.00     0.061 A 
HETATM    9  C   UNL     1     -43.128  55.825 -58.307  1.00  0.00     0.032 A 
HETATM   10  C   UNL     1     -42.046  59.103 -56.887  1.00  0.00     0.259 A 
HETATM   11  C   UNL     1     -41.923  58.186 -59.205  1.00  0.00     0.019 A 
HETATM   12  O   UNL     1     -41.529  60.171 -57.181  1.00  0.00    -0.267 OA
HETATM   13  N   UNL     1     -42.451  58.839 -55.602  1.00  0.00    -0.309 N 
HETATM   14  H   UNL     1     -42.259  59.594 -54.955  1.00  0.00     0.170 HD
HETATM   15  C   UNL     1     -42.170  57.147 -60.100  1.00  0.00     0.001 A 
HETATM   16  C   UNL     1     -42.770  55.969 -59.653  1.00  0.00     0.002 A 
ENDBRANCH   4   5
ENDBRANCH   2   4
BRANCH   2  17
HETATM   17  C   UNL     1     -42.783  55.292 -52.836  1.00  0.00     0.276 C 
BRANCH  17  18
HETATM   18  C   UNL     1     -41.838  54.498 -51.978  1.00  0.00     0.003 A 
HETATM   19  C   UNL     1     -41.074  53.454 -52.523  1.00  0.00     0.088 A 
HETATM   20  C   UNL     1     -40.224  52.687 -51.719  1.00  0.00     0.001 A 
HETATM   21  O   UNL     1     -41.232  53.201 -53.864  1.00  0.00    -0.325 OA
HETATM   22  C   UNL     1     -39.440  51.562 -52.326  1.00  0.00     0.212 C 
HETATM   23  C   UNL     1     -40.098  52.995 -50.359  1.00  0.00     0.036 A 
HETATM   24  O   UNL     1     -40.057  51.157 -53.542  1.00  0.00    -0.362 OA
HETATM   25  C   UNL     1     -40.252  52.286 -54.378  1.00  0.00     0.345 C 
HETATM   26  C   UNL     1     -40.838  54.040 -49.813  1.00  0.00     0.035 A 
HETATM   27 CL   UNL     1     -40.697  54.408 -48.140  1.00  0.00    -0.084 Cl
HETATM   28  C   UNL     1     -41.706  54.788 -50.609  1.00  0.00     0.035 A 
ENDBRANCH  17  18
ENDBRANCH   2  17
TORSDOF 4
ENDMDL
MODEL 10
REMARK VINA RESULT:      -7.6      4.072      8.183
REMARK  4 active torsions:
REMARK  status: ('A' for Active; 'I' for Inactive)
REMARK    1  A    between atoms: N_2  and  C_4 
REMARK    2  A    between atoms: N_2  and  C_16 
REMARK    3  A    between atoms: C_4  and  C_5 
REMARK    4  A    between atoms: C_16  and  C_17 
ROOT
HETATM    1  C   UNL     1     -42.769  54.031 -55.128  1.00  0.00     0.270 C 
HETATM    2  N   UNL     1     -41.727  54.915 -55.751  1.00  0.00    -0.064 N 
HETATM    3  H   UNL     1     -41.679  54.644 -56.751  1.00  0.00     0.280 HD
ENDROOT
BRANCH   2   4
HETATM    4  C   UNL     1     -42.121  56.382 -55.763  1.00  0.00     0.312 C 
BRANCH   4   5
HETATM    5  C   UNL     1     -43.034  56.717 -56.935  1.00  0.00     0.133 A 
HETATM    6  N   UNL     1     -44.121  57.390 -56.716  1.00  0.00    -0.233 NA
HETATM    7  C   UNL     1     -44.935  57.693 -57.828  1.00  0.00     0.074 A 
HETATM    8  C   UNL     1     -44.609  57.297 -59.130  1.00  0.00     0.061 A 
HETATM    9  C   UNL     1     -46.108  58.423 -57.629  1.00  0.00     0.032 A 
HETATM   10  C   UNL     1     -43.366  56.532 -59.313  1.00  0.00     0.259 A 
HETATM   11  C   UNL     1     -45.424  57.615 -60.219  1.00  0.00     0.019 A 
HETATM   12  O   UNL     1     -42.979  56.136 -60.403  1.00  0.00    -0.267 OA
HETATM   13  N   UNL     1     -42.644  56.287 -58.171  1.00  0.00    -0.309 N 
HETATM   14  H   UNL     1     -41.802  55.747 -58.333  1.00  0.00     0.170 HD
HETATM   15  C   UNL     1     -46.591  58.345 -60.004  1.00  0.00     0.001 A 
HETATM   16  C   UNL     1     -46.933  58.748 -58.713  1.00  0.00     0.002 A 
ENDBRANCH   4   5
ENDBRANCH   2   4
BRANCH   2  17
HETATM   17  C   UNL     1     -40.345  54.705 -55.188  1.00  0.00     0.276 C 
BRANCH  17  18
HETATM   18  C   UNL     1     -40.275  53.669 -54.101  1.00  0.00     0.003 A 
HETATM   19  C   UNL     1     -40.547  54.008 -52.765  1.00  0.00     0.088 A 
HETATM   20  C   UNL     1     -40.443  53.055 -51.745  1.00  0.00     0.001 A 
HETATM   21  O   UNL     1     -40.878  55.315 -52.509  1.00  0.00    -0.325 OA
HETATM   22  C   UNL     1     -40.715  53.452 -50.325  1.00  0.00     0.212 C 
HETATM   23  C   UNL     1     -40.108  51.734 -52.067  1.00  0.00     0.036 A 
HETATM   24  O   UNL     1     -40.573  54.861 -50.193  1.00  0.00    -0.362 OA
HETATM   25  C   UNL     1     -41.363  55.516 -51.172  1.00  0.00     0.345 C 
HETATM   26  C   UNL     1     -39.853  51.386 -53.392  1.00  0.00     0.035 A 
HETATM   27 CL   UNL     1     -39.425  49.769 -53.786  1.00  0.00    -0.084 Cl
HETATM   28  C   UNL     1     -39.931  52.342 -54.405  1.00  0.00     0.035 A 
ENDBRANCH  17  18
ENDBRANCH   2  17
TORSDOF 4
ENDMDL
