MODEL 1
REMARK VINA RESULT:      -8.5      0.000      0.000
REMARK  3 active torsions:
REMARK  status: ('A' for Active; 'I' for Inactive)
REMARK    1  A    between atoms: C_2  and  C_3 
REMARK    2  A    between atoms: C_3  and  C_4 
REMARK    3  A    between atoms: C_8  and  C_9 
REMARK       I    between atoms: C_9  and  N_10 
ROOT
HETATM    1  C   UNL     1     -36.940  41.278 -58.724  1.00  0.00     0.271 C 
HETATM    2  N   UNL     1     -36.146  40.841 -57.655  1.00  0.00    -0.347 N 
HETATM    3  C   UNL     1     -35.683  39.468 -57.461  1.00  0.00     0.128 C 
HETATM    4  C   UNL     1     -34.273  39.397 -56.889  1.00  0.00     0.055 C 
HETATM    5  C   UNL     1     -34.088  40.275 -55.644  1.00  0.00     0.100 C 
HETATM    6  N   UNL     1     -34.880  39.698 -54.524  1.00  0.00    -0.273 NA
HETATM    7  C   UNL     1     -34.508  40.126 -53.238  1.00  0.00     0.036 A 
HETATM    8  C   UNL     1     -33.197  40.554 -52.959  1.00  0.00     0.056 A 
HETATM    9  N   UNL     1     -32.255  40.617 -53.990  1.00  0.00    -0.324 N 
HETATM   10  C   UNL     1     -32.572  40.342 -55.298  1.00  0.00     0.245 C 
HETATM   11  O   UNL     1     -31.677  40.280 -56.142  1.00  0.00    -0.271 OA
HETATM   12  C   UNL     1     -35.402  39.984 -52.173  1.00  0.00     0.026 A 
HETATM   13  C   UNL     1     -35.023  40.329 -50.873  1.00  0.00     0.002 A 
HETATM   14  C   UNL     1     -33.730  40.786 -50.618  1.00  0.00     0.002 A 
HETATM   15  C   UNL     1     -32.810  40.888 -51.661  1.00  0.00     0.031 A 
HETATM   16  C   UNL     1     -34.552  41.709 -55.958  1.00  0.00     0.055 C 
HETATM   17  C   UNL     1     -35.961  41.755 -56.534  1.00  0.00     0.128 C 
HETATM   18  O   UNL     1     -37.158  42.476 -58.901  1.00  0.00    -0.266 OA
HETATM   19  H   UNL     1     -35.886  39.724 -54.657  1.00  0.00     0.129 HD
HETATM   20  H   UNL     1     -31.278  40.767 -53.785  1.00  0.00     0.169 HD
ENDROOT
BRANCH   1  21
HETATM   21  C   UNL     1     -37.498  40.314 -59.641  1.00  0.00     0.119 A 
HETATM   22  N   UNL     1     -37.044  40.210 -60.928  1.00  0.00    -0.273 N 
HETATM   23  N   UNL     1     -37.637  39.240 -61.645  1.00  0.00    -0.179 NA
HETATM   24  H   UNL     1     -36.310  40.763 -61.361  1.00  0.00     0.189 HD
HETATM   25  C   UNL     1     -38.563  38.751 -60.815  1.00  0.00     0.057 A 
HETATM   26  C   UNL     1     -38.549  39.421 -59.571  1.00  0.00     0.065 A 
BRANCH  25  27
HETATM   27  C   UNL     1     -39.456  37.628 -61.234  1.00  0.00     0.065 C 
BRANCH  27  28
HETATM   28  C   UNL     1     -40.927  37.853 -60.834  1.00  0.00    -0.017 C 
HETATM   29  C   UNL     1     -41.497  36.658 -60.065  1.00  0.00     0.010 C 
HETATM   30  C   UNL     1     -41.775  38.121 -62.079  1.00  0.00     0.010 C 
ENDBRANCH  27  28
ENDBRANCH  25  27
ENDBRANCH   1  21
TORSDOF 3
ENDMDL
MODEL 2
REMARK VINA RESULT:      -8.5     17.894     19.932
REMARK  3 active torsions:
REMARK  status: ('A' for Active; 'I' for Inactive)
REMARK    1  A    between atoms: C_2  and  C_3 
REMARK    2  A    between atoms: C_3  and  C_4 
REMARK    3  A    between atoms: C_8  and  C_9 
REMARK       I    between atoms: C_9  and  N_10 
ROOT
HETATM    1  C   UNL     1     -44.234  57.789 -51.194  1.00  0.00     0.271 C 
HETATM    2  N   UNL     1     -43.158  56.897 -51.295  1.00  0.00    -0.347 N 
HETATM    3  C   UNL     1     -41.756  57.287 -51.438  1.00  0.00     0.128 C 
HETATM    4  C   UNL     1     -40.809  56.369 -50.677  1.00  0.00     0.055 C 
HETATM    5  C   UNL     1     -41.052  54.882 -50.971  1.00  0.00     0.100 C 
HETATM    6  N   UNL     1     -40.657  54.597 -52.378  1.00  0.00    -0.273 NA
HETATM    7  C   UNL     1     -40.430  53.243 -52.679  1.00  0.00     0.036 A 
HETATM    8  C   UNL     1     -40.023  52.331 -51.689  1.00  0.00     0.056 A 
HETATM    9  N   UNL     1     -39.899  52.758 -50.363  1.00  0.00    -0.324 N 
HETATM   10  C   UNL     1     -40.228  54.029 -49.963  1.00  0.00     0.245 C 
HETATM   11  O   UNL     1     -39.972  54.392 -48.813  1.00  0.00    -0.271 OA
HETATM   12  C   UNL     1     -40.456  52.814 -54.009  1.00  0.00     0.026 A 
HETATM   13  C   UNL     1     -40.153  51.489 -54.336  1.00  0.00     0.002 A 
HETATM   14  C   UNL     1     -39.785  50.587 -53.338  1.00  0.00     0.002 A 
HETATM   15  C   UNL     1     -39.707  51.011 -52.012  1.00  0.00     0.031 A 
HETATM   16  C   UNL     1     -42.539  54.554 -50.745  1.00  0.00     0.055 C 
HETATM   17  C   UNL     1     -43.467  55.488 -51.510  1.00  0.00     0.128 C 
HETATM   18  O   UNL     1     -45.364  57.387 -50.919  1.00  0.00    -0.266 OA
HETATM   19  H   UNL     1     -41.232  55.051 -53.081  1.00  0.00     0.129 HD
HETATM   20  H   UNL     1     -39.460  52.167 -49.672  1.00  0.00     0.169 HD
ENDROOT
BRANCH   1  21
HETATM   21  C   UNL     1     -44.015  59.200 -51.397  1.00  0.00     0.119 A 
HETATM   22  N   UNL     1     -44.201  59.781 -52.623  1.00  0.00    -0.273 N 
HETATM   23  N   UNL     1     -43.992  61.109 -52.642  1.00  0.00    -0.179 NA
HETATM   24  H   UNL     1     -44.494  59.317 -53.478  1.00  0.00     0.189 HD
HETATM   25  C   UNL     1     -43.580  61.384 -51.400  1.00  0.00     0.057 A 
HETATM   26  C   UNL     1     -43.530  60.219 -50.601  1.00  0.00     0.065 A 
BRANCH  25  27
HETATM   27  C   UNL     1     -43.243  62.782 -50.994  1.00  0.00     0.065 C 
BRANCH  27  28
HETATM   28  C   UNL     1     -43.811  63.156 -49.611  1.00  0.00    -0.017 C 
HETATM   29  C   UNL     1     -45.332  63.329 -49.650  1.00  0.00     0.010 C 
HETATM   30  C   UNL     1     -43.155  64.441 -49.103  1.00  0.00     0.010 C 
ENDBRANCH  27  28
ENDBRANCH  25  27
ENDBRANCH   1  21
TORSDOF 3
ENDMDL
MODEL 3
REMARK VINA RESULT:      -8.2     17.710     19.624
REMARK  3 active torsions:
REMARK  status: ('A' for Active; 'I' for Inactive)
REMARK    1  A    between atoms: C_2  and  C_3 
REMARK    2  A    between atoms: C_3  and  C_4 
REMARK    3  A    between atoms: C_8  and  C_9 
REMARK       I    between atoms: C_9  and  N_10 
ROOT
HETATM    1  C   UNL     1     -44.274  57.712 -51.100  1.00  0.00     0.271 C 
HETATM    2  N   UNL     1     -43.195  56.821 -51.180  1.00  0.00    -0.347 N 
HETATM    3  C   UNL     1     -41.787  57.211 -51.237  1.00  0.00     0.128 C 
HETATM    4  C   UNL     1     -40.881  56.260 -50.464  1.00  0.00     0.055 C 
HETATM    5  C   UNL     1     -41.112  54.787 -50.826  1.00  0.00     0.100 C 
HETATM    6  N   UNL     1     -40.646  54.554 -52.220  1.00  0.00    -0.273 NA
HETATM    7  C   UNL     1     -40.407  53.211 -52.560  1.00  0.00     0.036 A 
HETATM    8  C   UNL     1     -40.051  52.261 -51.586  1.00  0.00     0.056 A 
HETATM    9  N   UNL     1     -39.995  52.637 -50.241  1.00  0.00    -0.324 N 
HETATM   10  C   UNL     1     -40.342  53.894 -49.810  1.00  0.00     0.245 C 
HETATM   11  O   UNL     1     -40.143  54.212 -48.636  1.00  0.00    -0.271 OA
HETATM   12  C   UNL     1     -40.365  52.833 -53.905  1.00  0.00     0.026 A 
HETATM   13  C   UNL     1     -40.049  51.520 -54.267  1.00  0.00     0.002 A 
HETATM   14  C   UNL     1     -39.733  50.580 -53.287  1.00  0.00     0.002 A 
HETATM   15  C   UNL     1     -39.722  50.953 -51.943  1.00  0.00     0.031 A 
HETATM   16  C   UNL     1     -42.609  54.456 -50.688  1.00  0.00     0.055 C 
HETATM   17  C   UNL     1     -43.495  55.421 -51.463  1.00  0.00     0.128 C 
HETATM   18  O   UNL     1     -45.417  57.303 -50.898  1.00  0.00    -0.266 OA
HETATM   19  H   UNL     1     -41.184  55.036 -52.934  1.00  0.00     0.129 HD
HETATM   20  H   UNL     1     -39.592  52.019 -49.551  1.00  0.00     0.169 HD
ENDROOT
BRANCH   1  21
HETATM   21  C   UNL     1     -44.041  59.128 -51.238  1.00  0.00     0.119 A 
HETATM   22  N   UNL     1     -43.948  59.946 -50.143  1.00  0.00    -0.273 N 
HETATM   23  N   UNL     1     -43.692  61.232 -50.436  1.00  0.00    -0.179 NA
HETATM   24  H   UNL     1     -44.027  59.669 -49.169  1.00  0.00     0.189 HD
HETATM   25  C   UNL     1     -43.698  61.262 -51.772  1.00  0.00     0.057 A 
HETATM   26  C   UNL     1     -43.961  59.986 -52.318  1.00  0.00     0.065 A 
BRANCH  25  27
HETATM   27  C   UNL     1     -43.442  62.534 -52.514  1.00  0.00     0.065 C 
BRANCH  27  28
HETATM   28  C   UNL     1     -44.241  62.630 -53.829  1.00  0.00    -0.017 C 
HETATM   29  C   UNL     1     -43.471  63.399 -54.907  1.00  0.00     0.010 C 
HETATM   30  C   UNL     1     -45.591  63.302 -53.576  1.00  0.00     0.010 C 
ENDBRANCH  27  28
ENDBRANCH  25  27
ENDBRANCH   1  21
TORSDOF 3
ENDMDL
MODEL 4
REMARK VINA RESULT:      -8.1     16.877     19.627
REMARK  3 active torsions:
REMARK  status: ('A' for Active; 'I' for Inactive)
REMARK    1  A    between atoms: C_2  and  C_3 
REMARK    2  A    between atoms: C_3  and  C_4 
REMARK    3  A    between atoms: C_8  and  C_9 
REMARK       I    between atoms: C_9  and  N_10 
ROOT
HETATM    1  C   UNL     1     -42.507  56.493 -55.276  1.00  0.00     0.271 C 
HETATM    2  N   UNL     1     -42.830  56.856 -56.590  1.00  0.00    -0.347 N 
HETATM    3  C   UNL     1     -42.709  55.982 -57.756  1.00  0.00     0.128 C 
HETATM    4  C   UNL     1     -43.832  56.187 -58.764  1.00  0.00     0.055 C 
HETATM    5  C   UNL     1     -44.040  57.660 -59.138  1.00  0.00     0.100 C 
HETATM    6  N   UNL     1     -42.864  58.130 -59.921  1.00  0.00    -0.273 NA
HETATM    7  C   UNL     1     -43.069  59.298 -60.676  1.00  0.00     0.036 A 
HETATM    8  C   UNL     1     -44.347  59.655 -61.140  1.00  0.00     0.056 A 
HETATM    9  N   UNL     1     -45.453  58.872 -60.795  1.00  0.00    -0.324 N 
HETATM   10  C   UNL     1     -45.359  57.791 -59.954  1.00  0.00     0.245 C 
HETATM   11  O   UNL     1     -46.335  57.057 -59.792  1.00  0.00    -0.271 OA
HETATM   12  C   UNL     1     -41.970  60.044 -61.111  1.00  0.00     0.026 A 
HETATM   13  C   UNL     1     -42.148  61.163 -61.930  1.00  0.00     0.002 A 
HETATM   14  C   UNL     1     -43.426  61.526 -62.353  1.00  0.00     0.002 A 
HETATM   15  C   UNL     1     -44.529  60.764 -61.967  1.00  0.00     0.031 A 
HETATM   16  C   UNL     1     -44.208  58.493 -57.854  1.00  0.00     0.055 C 
HETATM   17  C   UNL     1     -43.078  58.269 -56.859  1.00  0.00     0.128 C 
HETATM   18  O   UNL     1     -42.783  57.232 -54.330  1.00  0.00    -0.266 OA
HETATM   19  H   UNL     1     -41.992  58.161 -59.401  1.00  0.00     0.129 HD
HETATM   20  H   UNL     1     -46.346  59.019 -61.243  1.00  0.00     0.169 HD
ENDROOT
BRANCH   1  21
HETATM   21  C   UNL     1     -41.859  55.230 -55.022  1.00  0.00     0.119 A 
HETATM   22  N   UNL     1     -40.504  55.085 -55.158  1.00  0.00    -0.273 N 
HETATM   23  N   UNL     1     -40.048  53.859 -54.849  1.00  0.00    -0.179 NA
HETATM   24  H   UNL     1     -39.840  55.801 -55.436  1.00  0.00     0.189 HD
HETATM   25  C   UNL     1     -41.157  53.164 -54.579  1.00  0.00     0.057 A 
HETATM   26  C   UNL     1     -42.315  53.962 -54.722  1.00  0.00     0.065 A 
BRANCH  25  27
HETATM   27  C   UNL     1     -41.086  51.726 -54.178  1.00  0.00     0.065 C 
BRANCH  27  28
HETATM   28  C   UNL     1     -39.658  51.279 -53.809  1.00  0.00    -0.017 C 
HETATM   29  C   UNL     1     -39.363  49.859 -54.299  1.00  0.00     0.010 C 
HETATM   30  C   UNL     1     -39.457  51.358 -52.295  1.00  0.00     0.010 C 
ENDBRANCH  27  28
ENDBRANCH  25  27
ENDBRANCH   1  21
TORSDOF 3
ENDMDL
MODEL 5
REMARK VINA RESULT:      -8.1     18.075     20.223
REMARK  3 active torsions:
REMARK  status: ('A' for Active; 'I' for Inactive)
REMARK    1  A    between atoms: C_2  and  C_3 
REMARK    2  A    between atoms: C_3  and  C_4 
REMARK    3  A    between atoms: C_8  and  C_9 
REMARK       I    between atoms: C_9  and  N_10 
ROOT
HETATM    1  C   UNL     1     -42.318  59.475 -52.452  1.00  0.00     0.271 C 
HETATM    2  N   UNL     1     -42.344  58.088 -52.648  1.00  0.00    -0.347 N 
HETATM    3  C   UNL     1     -43.484  57.221 -52.356  1.00  0.00     0.128 C 
HETATM    4  C   UNL     1     -43.644  56.097 -53.372  1.00  0.00     0.055 C 
HETATM    5  C   UNL     1     -42.344  55.318 -53.613  1.00  0.00     0.100 C 
HETATM    6  N   UNL     1     -42.008  54.548 -52.385  1.00  0.00    -0.273 NA
HETATM    7  C   UNL     1     -41.103  53.488 -52.566  1.00  0.00     0.036 A 
HETATM    8  C   UNL     1     -40.984  52.829 -53.803  1.00  0.00     0.056 A 
HETATM    9  N   UNL     1     -41.732  53.273 -54.898  1.00  0.00    -0.324 N 
HETATM   10  C   UNL     1     -42.540  54.381 -54.840  1.00  0.00     0.245 C 
HETATM   11  O   UNL     1     -43.280  54.647 -55.789  1.00  0.00    -0.271 OA
HETATM   12  C   UNL     1     -40.415  52.967 -51.466  1.00  0.00     0.026 A 
HETATM   13  C   UNL     1     -39.572  51.862 -51.611  1.00  0.00     0.002 A 
HETATM   14  C   UNL     1     -39.437  51.241 -52.853  1.00  0.00     0.002 A 
HETATM   15  C   UNL     1     -40.153  51.718 -53.950  1.00  0.00     0.031 A 
HETATM   16  C   UNL     1     -41.216  56.306 -53.963  1.00  0.00     0.055 C 
HETATM   17  C   UNL     1     -41.078  57.423 -52.938  1.00  0.00     0.128 C 
HETATM   18  O   UNL     1     -41.379  60.154 -52.868  1.00  0.00    -0.266 OA
HETATM   19  H   UNL     1     -41.771  55.116 -51.577  1.00  0.00     0.129 HD
HETATM   20  H   UNL     1     -41.781  52.722 -55.743  1.00  0.00     0.169 HD
ENDROOT
BRANCH   1  21
HETATM   21  C   UNL     1     -43.412  60.121 -51.771  1.00  0.00     0.119 A 
HETATM   22  N   UNL     1     -44.491  60.611 -52.459  1.00  0.00    -0.273 N 
HETATM   23  N   UNL     1     -45.444  61.149 -51.679  1.00  0.00    -0.179 NA
HETATM   24  H   UNL     1     -44.636  60.580 -53.464  1.00  0.00     0.189 HD
HETATM   25  C   UNL     1     -44.928  61.076 -50.449  1.00  0.00     0.057 A 
HETATM   26  C   UNL     1     -43.643  60.489 -50.459  1.00  0.00     0.065 A 
BRANCH  25  27
HETATM   27  C   UNL     1     -45.691  61.574 -49.264  1.00  0.00     0.065 C 
BRANCH  27  28
HETATM   28  C   UNL     1     -44.785  61.882 -48.056  1.00  0.00    -0.017 C 
HETATM   29  C   UNL     1     -45.134  61.011 -46.846  1.00  0.00     0.010 C 
HETATM   30  C   UNL     1     -44.895  63.361 -47.680  1.00  0.00     0.010 C 
ENDBRANCH  27  28
ENDBRANCH  25  27
ENDBRANCH   1  21
TORSDOF 3
ENDMDL
MODEL 6
REMARK VINA RESULT:      -8.0     15.988     17.634
REMARK  3 active torsions:
REMARK  status: ('A' for Active; 'I' for Inactive)
REMARK    1  A    between atoms: C_2  and  C_3 
REMARK    2  A    between atoms: C_3  and  C_4 
REMARK    3  A    between atoms: C_8  and  C_9 
REMARK       I    between atoms: C_9  and  N_10 
ROOT
HETATM    1  C   UNL     1     -43.775  56.791 -54.594  1.00  0.00     0.271 C 
HETATM    2  N   UNL     1     -42.773  55.965 -54.067  1.00  0.00    -0.347 N 
HETATM    3  C   UNL     1     -41.344  56.273 -54.072  1.00  0.00     0.128 C 
HETATM    4  C   UNL     1     -40.637  55.805 -52.806  1.00  0.00     0.055 C 
HETATM    5  C   UNL     1     -40.934  54.339 -52.462  1.00  0.00     0.100 C 
HETATM    6  N   UNL     1     -40.299  53.464 -53.484  1.00  0.00    -0.273 NA
HETATM    7  C   UNL     1     -40.125  52.122 -53.105  1.00  0.00     0.036 A 
HETATM    8  C   UNL     1     -39.989  51.753 -51.755  1.00  0.00     0.056 A 
HETATM    9  N   UNL     1     -40.091  52.728 -50.757  1.00  0.00    -0.324 N 
HETATM   10  C   UNL     1     -40.390  54.039 -51.034  1.00  0.00     0.245 C 
HETATM   11  O   UNL     1     -40.334  54.880 -50.136  1.00  0.00    -0.271 OA
HETATM   12  C   UNL     1     -39.927  51.144 -54.085  1.00  0.00     0.026 A 
HETATM   13  C   UNL     1     -39.671  49.818 -53.726  1.00  0.00     0.002 A 
HETATM   14  C   UNL     1     -39.575  49.461 -52.382  1.00  0.00     0.002 A 
HETATM   15  C   UNL     1     -39.722  50.432 -51.392  1.00  0.00     0.031 A 
HETATM   16  C   UNL     1     -42.458  54.123 -52.429  1.00  0.00     0.055 C 
HETATM   17  C   UNL     1     -43.144  54.602 -53.700  1.00  0.00     0.128 C 
HETATM   18  O   UNL     1     -44.965  56.535 -54.412  1.00  0.00    -0.266 OA
HETATM   19  H   UNL     1     -40.689  53.548 -54.417  1.00  0.00     0.129 HD
HETATM   20  H   UNL     1     -39.841  52.514 -49.803  1.00  0.00     0.169 HD
ENDROOT
BRANCH   1  21
HETATM   21  C   UNL     1     -43.410  57.966 -55.345  1.00  0.00     0.119 A 
HETATM   22  N   UNL     1     -43.750  59.221 -54.915  1.00  0.00    -0.273 N 
HETATM   23  N   UNL     1     -43.305  60.214 -55.704  1.00  0.00    -0.179 NA
HETATM   24  H   UNL     1     -44.267  59.456 -54.073  1.00  0.00     0.189 HD
HETATM   25  C   UNL     1     -42.723  59.574 -56.723  1.00  0.00     0.057 A 
HETATM   26  C   UNL     1     -42.806  58.172 -56.570  1.00  0.00     0.065 A 
BRANCH  25  27
HETATM   27  C   UNL     1     -42.082  60.332 -57.841  1.00  0.00     0.065 C 
BRANCH  27  28
HETATM   28  C   UNL     1     -42.639  59.941 -59.224  1.00  0.00    -0.017 C 
HETATM   29  C   UNL     1     -41.856  60.605 -60.361  1.00  0.00     0.010 C 
HETATM   30  C   UNL     1     -44.117  60.321 -59.322  1.00  0.00     0.010 C 
ENDBRANCH  27  28
ENDBRANCH  25  27
ENDBRANCH   1  21
TORSDOF 3
ENDMDL
MODEL 7
REMARK VINA RESULT:      -7.9     16.207     17.339
REMARK  3 active torsions:
REMARK  status: ('A' for Active; 'I' for Inactive)
REMARK    1  A    between atoms: C_2  and  C_3 
REMARK    2  A    between atoms: C_3  and  C_4 
REMARK    3  A    between atoms: C_8  and  C_9 
REMARK       I    between atoms: C_9  and  N_10 
ROOT
HETATM    1  C   UNL     1     -42.542  57.123 -56.945  1.00  0.00     0.271 C 
HETATM    2  N   UNL     1     -42.367  56.227 -55.882  1.00  0.00    -0.347 N 
HETATM    3  C   UNL     1     -43.235  55.085 -55.597  1.00  0.00     0.128 C 
HETATM    4  C   UNL     1     -42.464  53.873 -55.087  1.00  0.00     0.055 C 
HETATM    5  C   UNL     1     -41.515  54.211 -53.930  1.00  0.00     0.100 C 
HETATM    6  N   UNL     1     -42.322  54.561 -52.730  1.00  0.00    -0.273 NA
HETATM    7  C   UNL     1     -41.639  54.495 -51.503  1.00  0.00     0.036 A 
HETATM    8  C   UNL     1     -40.538  53.639 -51.322  1.00  0.00     0.056 A 
HETATM    9  N   UNL     1     -40.067  52.881 -52.399  1.00  0.00    -0.324 N 
HETATM   10  C   UNL     1     -40.594  52.985 -53.662  1.00  0.00     0.245 C 
HETATM   11  O   UNL     1     -40.234  52.198 -54.539  1.00  0.00    -0.271 OA
HETATM   12  C   UNL     1     -42.146  55.170 -50.389  1.00  0.00     0.026 A 
HETATM   13  C   UNL     1     -41.528  55.053 -49.141  1.00  0.00     0.002 A 
HETATM   14  C   UNL     1     -40.414  54.227 -48.986  1.00  0.00     0.002 A 
HETATM   15  C   UNL     1     -39.924  53.508 -50.076  1.00  0.00     0.031 A 
HETATM   16  C   UNL     1     -40.609  55.386 -54.340  1.00  0.00     0.055 C 
HETATM   17  C   UNL     1     -41.399  56.583 -54.851  1.00  0.00     0.128 C 
HETATM   18  O   UNL     1     -41.683  57.964 -57.211  1.00  0.00    -0.266 OA
HETATM   19  H   UNL     1     -42.865  55.414 -52.816  1.00  0.00     0.129 HD
HETATM   20  H   UNL     1     -39.386  52.149 -52.252  1.00  0.00     0.169 HD
ENDROOT
BRANCH   1  21
HETATM   21  C   UNL     1     -43.736  57.051 -57.751  1.00  0.00     0.119 A 
HETATM   22  N   UNL     1     -43.894  56.083 -58.706  1.00  0.00    -0.273 N 
HETATM   23  N   UNL     1     -45.075  56.126 -59.345  1.00  0.00    -0.179 NA
HETATM   24  H   UNL     1     -43.232  55.350 -58.945  1.00  0.00     0.189 HD
HETATM   25  C   UNL     1     -45.672  57.210 -58.840  1.00  0.00     0.057 A 
HETATM   26  C   UNL     1     -44.857  57.849 -57.878  1.00  0.00     0.065 A 
BRANCH  25  27
HETATM   27  C   UNL     1     -47.038  57.617 -59.290  1.00  0.00     0.065 C 
BRANCH  27  28
HETATM   28  C   UNL     1     -47.132  57.803 -60.817  1.00  0.00    -0.017 C 
HETATM   29  C   UNL     1     -47.964  59.034 -61.189  1.00  0.00     0.010 C 
HETATM   30  C   UNL     1     -47.735  56.555 -61.462  1.00  0.00     0.010 C 
ENDBRANCH  27  28
ENDBRANCH  25  27
ENDBRANCH   1  21
TORSDOF 3
ENDMDL
MODEL 8
REMARK VINA RESULT:      -7.8     17.898     19.865
REMARK  3 active torsions:
REMARK  status: ('A' for Active; 'I' for Inactive)
REMARK    1  A    between atoms: C_2  and  C_3 
REMARK    2  A    between atoms: C_3  and  C_4 
REMARK    3  A    between atoms: C_8  and  C_9 
REMARK       I    between atoms: C_9  and  N_10 
ROOT
HETATM    1  C   UNL     1     -43.152  54.701 -51.271  1.00  0.00     0.271 C 
HETATM    2  N   UNL     1     -43.272  56.052 -51.625  1.00  0.00    -0.347 N 
HETATM    3  C   UNL     1     -42.372  56.765 -52.529  1.00  0.00     0.128 C 
HETATM    4  C   UNL     1     -43.099  57.775 -53.408  1.00  0.00     0.055 C 
HETATM    5  C   UNL     1     -44.016  58.712 -52.611  1.00  0.00     0.100 C 
HETATM    6  N   UNL     1     -43.177  59.613 -51.775  1.00  0.00    -0.273 NA
HETATM    7  C   UNL     1     -43.817  60.775 -51.311  1.00  0.00     0.036 A 
HETATM    8  C   UNL     1     -44.893  61.349 -52.012  1.00  0.00     0.056 A 
HETATM    9  N   UNL     1     -45.384  60.721 -53.161  1.00  0.00    -0.324 N 
HETATM   10  C   UNL     1     -44.901  59.516 -53.607  1.00  0.00     0.245 C 
HETATM   11  O   UNL     1     -45.273  59.076 -54.697  1.00  0.00    -0.271 OA
HETATM   12  C   UNL     1     -43.287  61.470 -50.220  1.00  0.00     0.026 A 
HETATM   13  C   UNL     1     -43.861  62.671 -49.793  1.00  0.00     0.002 A 
HETATM   14  C   UNL     1     -44.951  63.209 -50.478  1.00  0.00     0.002 A 
HETATM   15  C   UNL     1     -45.462  62.554 -51.597  1.00  0.00     0.031 A 
HETATM   16  C   UNL     1     -44.960  57.873 -51.730  1.00  0.00     0.055 C 
HETATM   17  C   UNL     1     -44.213  56.867 -50.865  1.00  0.00     0.128 C 
HETATM   18  O   UNL     1     -44.037  54.134 -50.631  1.00  0.00    -0.266 OA
HETATM   19  H   UNL     1     -42.655  59.147 -51.039  1.00  0.00     0.129 HD
HETATM   20  H   UNL     1     -46.043  61.194 -53.762  1.00  0.00     0.169 HD
ENDROOT
BRANCH   1  21
HETATM   21  C   UNL     1     -41.984  53.958 -51.677  1.00  0.00     0.119 A 
HETATM   22  N   UNL     1     -40.865  53.903 -50.889  1.00  0.00    -0.273 N 
HETATM   23  N   UNL     1     -39.878  53.139 -51.388  1.00  0.00    -0.179 NA
HETATM   24  H   UNL     1     -40.734  54.351 -49.987  1.00  0.00     0.189 HD
HETATM   25  C   UNL     1     -40.345  52.750 -52.578  1.00  0.00     0.057 A 
HETATM   26  C   UNL     1     -41.633  53.275 -52.825  1.00  0.00     0.065 A 
BRANCH  25  27
HETATM   27  C   UNL     1     -39.537  51.863 -53.469  1.00  0.00     0.065 C 
BRANCH  27  28
HETATM   28  C   UNL     1     -40.084  50.423 -53.533  1.00  0.00    -0.017 C 
HETATM   29  C   UNL     1     -39.574  49.569 -52.369  1.00  0.00     0.010 C 
HETATM   30  C   UNL     1     -39.697  49.773 -54.862  1.00  0.00     0.010 C 
ENDBRANCH  27  28
ENDBRANCH  25  27
ENDBRANCH   1  21
TORSDOF 3
ENDMDL
MODEL 9
REMARK VINA RESULT:      -7.7     17.539     19.470
REMARK  3 active torsions:
REMARK  status: ('A' for Active; 'I' for Inactive)
REMARK    1  A    between atoms: C_2  and  C_3 
REMARK    2  A    between atoms: C_3  and  C_4 
REMARK    3  A    between atoms: C_8  and  C_9 
REMARK       I    between atoms: C_9  and  N_10 
ROOT
HETATM    1  C   UNL     1     -42.937  55.034 -53.713  1.00  0.00     0.271 C 
HETATM    2  N   UNL     1     -42.663  56.397 -53.534  1.00  0.00    -0.347 N 
HETATM    3  C   UNL     1     -41.327  56.972 -53.384  1.00  0.00     0.128 C 
HETATM    4  C   UNL     1     -41.190  58.327 -54.066  1.00  0.00     0.055 C 
HETATM    5  C   UNL     1     -42.310  59.304 -53.687  1.00  0.00     0.100 C 
HETATM    6  N   UNL     1     -42.154  59.687 -52.258  1.00  0.00    -0.273 NA
HETATM    7  C   UNL     1     -42.826  60.859 -51.870  1.00  0.00     0.036 A 
HETATM    8  C   UNL     1     -43.107  61.882 -52.793  1.00  0.00     0.056 A 
HETATM    9  N   UNL     1     -42.771  61.711 -54.139  1.00  0.00    -0.324 N 
HETATM   10  C   UNL     1     -42.232  60.545 -54.623  1.00  0.00     0.245 C 
HETATM   11  O   UNL     1     -41.829  60.497 -55.787  1.00  0.00    -0.271 OA
HETATM   12  C   UNL     1     -43.088  61.093 -50.517  1.00  0.00     0.026 A 
HETATM   13  C   UNL     1     -43.682  62.288 -50.102  1.00  0.00     0.002 A 
HETATM   14  C   UNL     1     -43.988  63.279 -51.035  1.00  0.00     0.002 A 
HETATM   15  C   UNL     1     -43.690  63.082 -52.383  1.00  0.00     0.031 A 
HETATM   16  C   UNL     1     -43.675  58.632 -53.926  1.00  0.00     0.055 C 
HETATM   17  C   UNL     1     -43.788  57.278 -53.240  1.00  0.00     0.128 C 
HETATM   18  O   UNL     1     -44.073  54.648 -53.987  1.00  0.00    -0.266 OA
HETATM   19  H   UNL     1     -42.297  58.930 -51.596  1.00  0.00     0.129 HD
HETATM   20  H   UNL     1     -42.819  62.488 -54.783  1.00  0.00     0.169 HD
ENDROOT
BRANCH   1  21
HETATM   21  C   UNL     1     -41.871  54.070 -53.591  1.00  0.00     0.119 A 
HETATM   22  N   UNL     1     -41.231  53.572 -54.695  1.00  0.00    -0.273 N 
HETATM   23  N   UNL     1     -40.236  52.713 -54.414  1.00  0.00    -0.179 NA
HETATM   24  H   UNL     1     -41.420  53.807 -55.665  1.00  0.00     0.189 HD
HETATM   25  C   UNL     1     -40.287  52.590 -53.084  1.00  0.00     0.057 A 
HETATM   26  C   UNL     1     -41.321  53.377 -52.530  1.00  0.00     0.065 A 
BRANCH  25  27
HETATM   27  C   UNL     1     -39.323  51.710 -52.356  1.00  0.00     0.065 C 
BRANCH  27  28
HETATM   28  C   UNL     1     -39.860  50.281 -52.146  1.00  0.00    -0.017 C 
HETATM   29  C   UNL     1     -39.433  49.706 -50.792  1.00  0.00     0.010 C 
HETATM   30  C   UNL     1     -39.378  49.367 -53.273  1.00  0.00     0.010 C 
ENDBRANCH  27  28
ENDBRANCH  25  27
ENDBRANCH   1  21
TORSDOF 3
ENDMDL
MODEL 10
REMARK VINA RESULT:      -7.7      3.513      5.448
REMARK  3 active torsions:
REMARK  status: ('A' for Active; 'I' for Inactive)
REMARK    1  A    between atoms: C_2  and  C_3 
REMARK    2  A    between atoms: C_3  and  C_4 
REMARK    3  A    between atoms: C_8  and  C_9 
REMARK       I    between atoms: C_9  and  N_10 
ROOT
HETATM    1  C   UNL     1     -36.046  41.768 -53.359  1.00  0.00     0.271 C 
HETATM    2  N   UNL     1     -35.609  40.765 -52.483  1.00  0.00    -0.347 N 
HETATM    3  C   UNL     1     -35.758  39.329 -52.710  1.00  0.00     0.128 C 
HETATM    4  C   UNL     1     -34.562  38.527 -52.213  1.00  0.00     0.055 C 
HETATM    5  C   UNL     1     -34.170  38.870 -50.769  1.00  0.00     0.100 C 
HETATM    6  N   UNL     1     -35.238  38.387 -49.851  1.00  0.00    -0.273 NA
HETATM    7  C   UNL     1     -34.860  38.251 -48.504  1.00  0.00     0.036 A 
HETATM    8  C   UNL     1     -33.525  38.004 -48.139  1.00  0.00     0.056 A 
HETATM    9  N   UNL     1     -32.535  37.953 -49.126  1.00  0.00    -0.324 N 
HETATM   10  C   UNL     1     -32.799  38.206 -50.449  1.00  0.00     0.245 C 
HETATM   11  O   UNL     1     -31.921  38.014 -51.293  1.00  0.00    -0.271 OA
HETATM   12  C   UNL     1     -35.842  38.205 -47.510  1.00  0.00     0.026 A 
HETATM   13  C   UNL     1     -35.492  37.989 -46.174  1.00  0.00     0.002 A 
HETATM   14  C   UNL     1     -34.159  37.780 -45.822  1.00  0.00     0.002 A 
HETATM   15  C   UNL     1     -33.172  37.776 -46.808  1.00  0.00     0.031 A 
HETATM   16  C   UNL     1     -33.985  40.393 -50.639  1.00  0.00     0.055 C 
HETATM   17  C   UNL     1     -35.190  41.174 -51.146  1.00  0.00     0.128 C 
HETATM   18  O   UNL     1     -35.745  42.946 -53.172  1.00  0.00    -0.266 OA
HETATM   19  H   UNL     1     -36.130  38.863 -49.950  1.00  0.00     0.129 HD
HETATM   20  H   UNL     1     -31.607  37.623 -48.905  1.00  0.00     0.169 HD
ENDROOT
BRANCH   1  21
HETATM   21  C   UNL     1     -36.845  41.414 -54.507  1.00  0.00     0.119 A 
HETATM   22  N   UNL     1     -38.214  41.425 -54.453  1.00  0.00    -0.273 N 
HETATM   23  N   UNL     1     -38.813  41.109 -55.614  1.00  0.00    -0.179 NA
HETATM   24  H   UNL     1     -38.789  41.665 -53.651  1.00  0.00     0.189 HD
HETATM   25  C   UNL     1     -37.796  40.806 -56.426  1.00  0.00     0.057 A 
HETATM   26  C   UNL     1     -36.552  40.933 -55.768  1.00  0.00     0.065 A 
BRANCH  25  27
HETATM   27  C   UNL     1     -38.038  40.399 -57.844  1.00  0.00     0.065 C 
BRANCH  27  28
HETATM   28  C   UNL     1     -36.929  40.878 -58.801  1.00  0.00    -0.017 C 
HETATM   29  C   UNL     1     -37.202  42.290 -59.327  1.00  0.00     0.010 C 
HETATM   30  C   UNL     1     -36.789  39.906 -59.972  1.00  0.00     0.010 C 
ENDBRANCH  27  28
ENDBRANCH  25  27
ENDBRANCH   1  21
TORSDOF 3
ENDMDL
