MODEL 1
REMARK VINA RESULT:      -9.4      0.000      0.000
REMARK  5 active torsions:
REMARK  status: ('A' for Active; 'I' for Inactive)
REMARK    1  A    between atoms: C_4  and  C_5 
REMARK    2  A    between atoms: C_10  and  C_11 
REMARK    3  A    between atoms: C_11  and  N_12 
REMARK    4  A    between atoms: N_12  and  C_14 
REMARK    5  A    between atoms: N_17  and  C_18 
ROOT
HETATM    1  N   UNL     1     -42.177  56.127 -52.082  1.00  0.00    -0.067 N 
HETATM    2  H   UNL     1     -41.771  56.579 -51.247  1.00  0.00     0.280 HD
HETATM    3  C   UNL     1     -43.592  56.616 -52.141  1.00  0.00     0.270 C 
ENDROOT
BRANCH   1   4
HETATM    4  C   UNL     1     -42.139  54.649 -51.693  1.00  0.00     0.277 C 
BRANCH   4   5
HETATM    5  C   UNL     1     -41.473  54.388 -50.398  1.00  0.00     0.016 A 
HETATM    6  C   UNL     1     -40.729  53.282 -50.004  1.00  0.00     0.069 A 
HETATM    7  N   UNL     1     -40.343  53.546 -48.709  1.00  0.00    -0.277 N 
HETATM    8  H   UNL     1     -39.751  52.982 -48.104  1.00  0.00     0.189 HD
HETATM    9  N   UNL     1     -40.828  54.702 -48.234  1.00  0.00    -0.186 NA
HETATM   10  C   UNL     1     -41.467  55.237 -49.268  1.00  0.00     0.149 A 
BRANCH   6  11
HETATM   11  C   UNL     1     -40.320  52.069 -50.705  1.00  0.00    -0.007 A 
HETATM   12  C   UNL     1     -40.010  52.110 -52.072  1.00  0.00     0.020 A 
HETATM   13  C   UNL     1     -39.647  50.944 -52.761  1.00  0.00    -0.061 A 
HETATM   14  C   UNL     1     -39.333  50.988 -54.229  1.00  0.00     0.048 C 
HETATM   15  C   UNL     1     -39.552  49.738 -52.059  1.00  0.00     0.007 A 
HETATM   16  C   UNL     1     -39.860  49.687 -50.701  1.00  0.00     0.001 A 
HETATM   17  C   UNL     1     -40.252  50.845 -50.029  1.00  0.00     0.014 A 
ENDBRANCH   6  11
ENDBRANCH   4   5
ENDBRANCH   1   4
BRANCH   1  18
HETATM   18  C   UNL     1     -41.237  56.518 -53.235  1.00  0.00     0.190 C 
HETATM   19  C   UNL     1     -40.951  55.391 -54.232  1.00  0.00     0.048 C 
HETATM   20  C   UNL     1     -41.898  55.340 -55.425  1.00  0.00     0.099 C 
HETATM   21  N   UNL     1     -41.967  56.670 -56.035  1.00  0.00    -0.268 NA
HETATM   22  C   UNL     1     -42.518  57.704 -55.149  1.00  0.00     0.099 C 
HETATM   23  C   UNL     1     -41.647  57.842 -53.898  1.00  0.00     0.048 C 
BRANCH  21  24
HETATM   24  C   UNL     1     -42.489  56.691 -57.341  1.00  0.00     0.109 A 
HETATM   25  N   UNL     1     -42.233  57.738 -58.147  1.00  0.00    -0.224 NA
HETATM   26  C   UNL     1     -42.699  57.698 -59.420  1.00  0.00     0.102 A 
HETATM   27  C   UNL     1     -42.397  58.845 -60.332  1.00  0.00     0.091 C 
HETATM   28  N   UNL     1     -43.407  56.673 -59.912  1.00  0.00    -0.348 N 
HETATM   29  H   UNL     1     -43.722  56.704 -60.880  1.00  0.00     0.167 HD
HETATM   30  C   UNL     1     -43.681  55.614 -59.136  1.00  0.00     0.009 A 
HETATM   31  C   UNL     1     -44.471  54.480 -59.705  1.00  0.00     0.068 C 
HETATM   32  C   UNL     1     -43.212  55.603 -57.821  1.00  0.00     0.069 A 
ENDBRANCH  21  24
ENDBRANCH   1  18
TORSDOF 5
ENDMDL
MODEL 2
REMARK VINA RESULT:      -9.3      1.869      2.722
REMARK  5 active torsions:
REMARK  status: ('A' for Active; 'I' for Inactive)
REMARK    1  A    between atoms: C_4  and  C_5 
REMARK    2  A    between atoms: C_10  and  C_11 
REMARK    3  A    between atoms: C_11  and  N_12 
REMARK    4  A    between atoms: N_12  and  C_14 
REMARK    5  A    between atoms: N_17  and  C_18 
ROOT
HETATM    1  N   UNL     1     -42.475  56.699 -50.588  1.00  0.00    -0.067 N 
HETATM    2  H   UNL     1     -42.609  57.018 -49.615  1.00  0.00     0.280 HD
HETATM    3  C   UNL     1     -43.412  55.541 -50.751  1.00  0.00     0.270 C 
ENDROOT
BRANCH   1   4
HETATM    4  C   UNL     1     -41.026  56.214 -50.567  1.00  0.00     0.277 C 
BRANCH   4   5
HETATM    5  C   UNL     1     -40.832  54.939 -49.841  1.00  0.00     0.016 A 
HETATM    6  C   UNL     1     -40.567  53.673 -50.349  1.00  0.00     0.069 A 
HETATM    7  N   UNL     1     -40.482  52.850 -49.250  1.00  0.00    -0.277 N 
HETATM    8  H   UNL     1     -40.260  51.858 -49.224  1.00  0.00     0.189 HD
HETATM    9  N   UNL     1     -40.729  53.480 -48.093  1.00  0.00    -0.186 NA
HETATM   10  C   UNL     1     -40.889  54.752 -48.441  1.00  0.00     0.149 A 
BRANCH   6  11
HETATM   11  C   UNL     1     -40.347  53.183 -51.706  1.00  0.00    -0.007 A 
HETATM   12  C   UNL     1     -40.714  53.965 -52.811  1.00  0.00     0.020 A 
HETATM   13  C   UNL     1     -40.536  53.488 -54.118  1.00  0.00    -0.061 A 
HETATM   14  C   UNL     1     -40.946  54.320 -55.299  1.00  0.00     0.048 C 
HETATM   15  C   UNL     1     -39.944  52.236 -54.314  1.00  0.00     0.007 A 
HETATM   16  C   UNL     1     -39.578  51.451 -53.222  1.00  0.00     0.001 A 
HETATM   17  C   UNL     1     -39.789  51.918 -51.924  1.00  0.00     0.014 A 
ENDBRANCH   6  11
ENDBRANCH   4   5
ENDBRANCH   1   4
BRANCH   1  18
HETATM   18  C   UNL     1     -42.727  57.950 -51.447  1.00  0.00     0.190 C 
HETATM   19  C   UNL     1     -41.773  58.107 -52.636  1.00  0.00     0.048 C 
HETATM   20  C   UNL     1     -42.268  57.485 -53.936  1.00  0.00     0.099 C 
HETATM   21  N   UNL     1     -43.630  57.956 -54.201  1.00  0.00    -0.268 NA
HETATM   22  C   UNL     1     -44.608  57.550 -53.184  1.00  0.00     0.099 C 
HETATM   23  C   UNL     1     -44.209  58.114 -51.818  1.00  0.00     0.048 C 
BRANCH  21  24
HETATM   24  C   UNL     1     -44.066  57.775 -55.526  1.00  0.00     0.109 A 
HETATM   25  N   UNL     1     -43.316  57.061 -56.386  1.00  0.00    -0.224 NA
HETATM   26  C   UNL     1     -43.794  56.854 -57.638  1.00  0.00     0.102 A 
HETATM   27  C   UNL     1     -42.980  56.038 -58.592  1.00  0.00     0.091 C 
HETATM   28  N   UNL     1     -44.971  57.330 -58.063  1.00  0.00    -0.348 N 
HETATM   29  H   UNL     1     -45.275  57.132 -59.015  1.00  0.00     0.167 HD
HETATM   30  C   UNL     1     -45.744  58.047 -57.233  1.00  0.00     0.009 A 
HETATM   31  C   UNL     1     -47.055  58.568 -57.728  1.00  0.00     0.068 C 
HETATM   32  C   UNL     1     -45.300  58.277 -55.930  1.00  0.00     0.069 A 
ENDBRANCH  21  24
ENDBRANCH   1  18
TORSDOF 5
ENDMDL
MODEL 3
REMARK VINA RESULT:      -9.3      1.536      2.423
REMARK  5 active torsions:
REMARK  status: ('A' for Active; 'I' for Inactive)
REMARK    1  A    between atoms: C_4  and  C_5 
REMARK    2  A    between atoms: C_10  and  C_11 
REMARK    3  A    between atoms: C_11  and  N_12 
REMARK    4  A    between atoms: N_12  and  C_14 
REMARK    5  A    between atoms: N_17  and  C_18 
ROOT
HETATM    1  N   UNL     1     -42.648  56.525 -50.585  1.00  0.00    -0.067 N 
HETATM    2  H   UNL     1     -42.827  56.741 -49.591  1.00  0.00     0.280 HD
HETATM    3  C   UNL     1     -43.505  55.332 -50.886  1.00  0.00     0.270 C 
ENDROOT
BRANCH   1   4
HETATM    4  C   UNL     1     -41.172  56.129 -50.564  1.00  0.00     0.277 C 
BRANCH   4   5
HETATM    5  C   UNL     1     -40.898  54.880 -49.819  1.00  0.00     0.016 A 
HETATM    6  C   UNL     1     -40.571  53.622 -50.312  1.00  0.00     0.069 A 
HETATM    7  N   UNL     1     -40.425  52.823 -49.200  1.00  0.00    -0.277 N 
HETATM    8  H   UNL     1     -40.147  51.845 -49.162  1.00  0.00     0.189 HD
HETATM    9  N   UNL     1     -40.689  53.459 -48.050  1.00  0.00    -0.186 NA
HETATM   10  C   UNL     1     -40.924  54.713 -48.416  1.00  0.00     0.149 A 
BRANCH   6  11
HETATM   11  C   UNL     1     -40.343  53.122 -51.663  1.00  0.00    -0.007 A 
HETATM   12  C   UNL     1     -40.656  53.916 -52.776  1.00  0.00     0.020 A 
HETATM   13  C   UNL     1     -40.470  53.431 -54.079  1.00  0.00    -0.061 A 
HETATM   14  C   UNL     1     -40.822  54.278 -55.269  1.00  0.00     0.048 C 
HETATM   15  C   UNL     1     -39.926  52.156 -54.262  1.00  0.00     0.007 A 
HETATM   16  C   UNL     1     -39.614  51.358 -53.162  1.00  0.00     0.001 A 
HETATM   17  C   UNL     1     -39.832  51.835 -51.869  1.00  0.00     0.014 A 
ENDBRANCH   6  11
ENDBRANCH   4   5
ENDBRANCH   1   4
BRANCH   1  18
HETATM   18  C   UNL     1     -42.958  57.834 -51.331  1.00  0.00     0.190 C 
HETATM   19  C   UNL     1     -41.747  58.476 -52.017  1.00  0.00     0.048 C 
HETATM   20  C   UNL     1     -41.538  58.055 -53.465  1.00  0.00     0.099 C 
HETATM   21  N   UNL     1     -42.795  58.226 -54.198  1.00  0.00    -0.268 NA
HETATM   22  C   UNL     1     -43.891  57.381 -53.705  1.00  0.00     0.099 C 
HETATM   23  C   UNL     1     -44.190  57.710 -52.241  1.00  0.00     0.048 C 
BRANCH  21  24
HETATM   24  C   UNL     1     -42.662  58.241 -55.598  1.00  0.00     0.109 A 
HETATM   25  N   UNL     1     -42.201  59.345 -56.214  1.00  0.00    -0.224 NA
HETATM   26  C   UNL     1     -42.025  59.305 -57.558  1.00  0.00     0.102 A 
HETATM   27  C   UNL     1     -41.487  60.518 -58.249  1.00  0.00     0.091 C 
HETATM   28  N   UNL     1     -42.296  58.225 -58.303  1.00  0.00    -0.348 N 
HETATM   29  H   UNL     1     -42.136  58.261 -59.308  1.00  0.00     0.167 HD
HETATM   30  C   UNL     1     -42.759  57.109 -57.722  1.00  0.00     0.009 A 
HETATM   31  C   UNL     1     -43.053  55.915 -58.572  1.00  0.00     0.068 C 
HETATM   32  C   UNL     1     -42.945  57.097 -56.339  1.00  0.00     0.069 A 
ENDBRANCH  21  24
ENDBRANCH   1  18
TORSDOF 5
ENDMDL
MODEL 4
REMARK VINA RESULT:      -9.1      1.611      3.027
REMARK  5 active torsions:
REMARK  status: ('A' for Active; 'I' for Inactive)
REMARK    1  A    between atoms: C_4  and  C_5 
REMARK    2  A    between atoms: C_10  and  C_11 
REMARK    3  A    between atoms: C_11  and  N_12 
REMARK    4  A    between atoms: N_12  and  C_14 
REMARK    5  A    between atoms: N_17  and  C_18 
ROOT
HETATM    1  N   UNL     1     -42.432  56.938 -50.550  1.00  0.00    -0.067 N 
HETATM    2  H   UNL     1     -42.565  57.214 -49.564  1.00  0.00     0.280 HD
HETATM    3  C   UNL     1     -43.395  55.811 -50.773  1.00  0.00     0.270 C 
ENDROOT
BRANCH   1   4
HETATM    4  C   UNL     1     -40.995  56.418 -50.545  1.00  0.00     0.277 C 
BRANCH   4   5
HETATM    5  C   UNL     1     -40.846  55.079 -49.932  1.00  0.00     0.016 A 
HETATM    6  C   UNL     1     -40.662  53.849 -50.552  1.00  0.00     0.069 A 
HETATM    7  N   UNL     1     -40.586  52.933 -49.527  1.00  0.00    -0.277 N 
HETATM    8  H   UNL     1     -40.415  51.932 -49.592  1.00  0.00     0.189 HD
HETATM    9  N   UNL     1     -40.764  53.475 -48.315  1.00  0.00    -0.186 NA
HETATM   10  C   UNL     1     -40.868  54.778 -48.551  1.00  0.00     0.149 A 
BRANCH   6  11
HETATM   11  C   UNL     1     -40.509  53.464 -51.952  1.00  0.00    -0.007 A 
HETATM   12  C   UNL     1     -40.108  52.163 -52.290  1.00  0.00     0.020 A 
HETATM   13  C   UNL     1     -39.928  51.794 -53.631  1.00  0.00    -0.061 A 
HETATM   14  C   UNL     1     -39.480  50.406 -53.990  1.00  0.00     0.048 C 
HETATM   15  C   UNL     1     -40.196  52.727 -54.638  1.00  0.00     0.007 A 
HETATM   16  C   UNL     1     -40.594  54.022 -54.312  1.00  0.00     0.001 A 
HETATM   17  C   UNL     1     -40.740  54.392 -52.974  1.00  0.00     0.014 A 
ENDBRANCH   6  11
ENDBRANCH   4   5
ENDBRANCH   1   4
BRANCH   1  18
HETATM   18  C   UNL     1     -42.650  58.233 -51.351  1.00  0.00     0.190 C 
HETATM   19  C   UNL     1     -41.407  58.740 -52.090  1.00  0.00     0.048 C 
HETATM   20  C   UNL     1     -41.267  58.237 -53.521  1.00  0.00     0.099 C 
HETATM   21  N   UNL     1     -42.523  58.479 -54.236  1.00  0.00    -0.268 NA
HETATM   22  C   UNL     1     -43.672  57.752 -53.683  1.00  0.00     0.099 C 
HETATM   23  C   UNL     1     -43.908  58.171 -52.230  1.00  0.00     0.048 C 
BRANCH  21  24
HETATM   24  C   UNL     1     -42.421  58.420 -55.638  1.00  0.00     0.109 A 
HETATM   25  N   UNL     1     -42.715  57.274 -56.281  1.00  0.00    -0.224 NA
HETATM   26  C   UNL     1     -42.667  57.268 -57.636  1.00  0.00     0.102 A 
HETATM   27  C   UNL     1     -43.018  56.007 -58.361  1.00  0.00     0.091 C 
HETATM   28  N   UNL     1     -42.335  58.342 -58.365  1.00  0.00    -0.348 N 
HETATM   29  H   UNL     1     -42.325  58.270 -59.381  1.00  0.00     0.167 HD
HETATM   30  C   UNL     1     -42.035  59.498 -57.756  1.00  0.00     0.009 A 
HETATM   31  C   UNL     1     -41.669  60.685 -58.589  1.00  0.00     0.068 C 
HETATM   32  C   UNL     1     -42.082  59.558 -56.362  1.00  0.00     0.069 A 
ENDBRANCH  21  24
ENDBRANCH   1  18
TORSDOF 5
ENDMDL
MODEL 5
REMARK VINA RESULT:      -8.5      1.975      8.520
REMARK  5 active torsions:
REMARK  status: ('A' for Active; 'I' for Inactive)
REMARK    1  A    between atoms: C_4  and  C_5 
REMARK    2  A    between atoms: C_10  and  C_11 
REMARK    3  A    between atoms: C_11  and  N_12 
REMARK    4  A    between atoms: N_12  and  C_14 
REMARK    5  A    between atoms: N_17  and  C_18 
ROOT
HETATM    1  N   UNL     1     -43.498  57.534 -54.755  1.00  0.00    -0.067 N 
HETATM    2  H   UNL     1     -44.046  56.715 -54.447  1.00  0.00     0.280 HD
HETATM    3  C   UNL     1     -43.568  58.503 -53.614  1.00  0.00     0.270 C 
ENDROOT
BRANCH   1   4
HETATM    4  C   UNL     1     -44.323  58.042 -55.938  1.00  0.00     0.277 C 
BRANCH   4   5
HETATM    5  C   UNL     1     -43.506  58.582 -57.048  1.00  0.00     0.016 A 
HETATM    6  C   UNL     1     -43.407  58.135 -58.359  1.00  0.00     0.069 A 
HETATM    7  N   UNL     1     -42.513  58.986 -58.968  1.00  0.00    -0.277 N 
HETATM    8  H   UNL     1     -42.219  58.996 -59.942  1.00  0.00     0.189 HD
HETATM    9  N   UNL     1     -41.996  59.899 -58.134  1.00  0.00    -0.186 NA
HETATM   10  C   UNL     1     -42.632  59.692 -56.987  1.00  0.00     0.149 A 
BRANCH   6  11
HETATM   11  C   UNL     1     -44.074  57.060 -59.086  1.00  0.00    -0.007 A 
HETATM   12  C   UNL     1     -45.336  57.269 -59.663  1.00  0.00     0.020 A 
HETATM   13  C   UNL     1     -45.998  56.232 -60.335  1.00  0.00    -0.061 A 
HETATM   14  C   UNL     1     -47.357  56.454 -60.936  1.00  0.00     0.048 C 
HETATM   15  C   UNL     1     -45.368  54.990 -60.466  1.00  0.00     0.007 A 
HETATM   16  C   UNL     1     -44.116  54.772 -59.896  1.00  0.00     0.001 A 
HETATM   17  C   UNL     1     -43.476  55.799 -59.199  1.00  0.00     0.014 A 
ENDBRANCH   6  11
ENDBRANCH   4   5
ENDBRANCH   1   4
BRANCH   1  18
HETATM   18  C   UNL     1     -42.118  56.963 -55.125  1.00  0.00     0.190 C 
HETATM   19  C   UNL     1     -41.098  56.976 -53.982  1.00  0.00     0.048 C 
HETATM   20  C   UNL     1     -41.062  55.704 -53.145  1.00  0.00     0.099 C 
HETATM   21  N   UNL     1     -40.939  54.549 -54.038  1.00  0.00    -0.268 NA
HETATM   22  C   UNL     1     -42.076  54.378 -54.951  1.00  0.00     0.099 C 
HETATM   23  C   UNL     1     -42.220  55.611 -55.847  1.00  0.00     0.048 C 
BRANCH  21  24
HETATM   24  C   UNL     1     -40.519  53.362 -53.410  1.00  0.00     0.109 A 
HETATM   25  N   UNL     1     -40.556  53.268 -52.068  1.00  0.00    -0.224 NA
HETATM   26  C   UNL     1     -40.204  52.089 -51.498  1.00  0.00     0.102 A 
HETATM   27  C   UNL     1     -40.267  51.965 -50.008  1.00  0.00     0.091 C 
HETATM   28  N   UNL     1     -39.814  51.019 -52.202  1.00  0.00    -0.348 N 
HETATM   29  H   UNL     1     -39.568  50.161 -51.711  1.00  0.00     0.167 HD
HETATM   30  C   UNL     1     -39.764  51.079 -53.541  1.00  0.00     0.009 A 
HETATM   31  C   UNL     1     -39.328  49.872 -54.308  1.00  0.00     0.068 C 
HETATM   32  C   UNL     1     -40.129  52.267 -54.176  1.00  0.00     0.069 A 
ENDBRANCH  21  24
ENDBRANCH   1  18
TORSDOF 5
ENDMDL
MODEL 6
REMARK VINA RESULT:      -8.4      2.275      3.293
REMARK  5 active torsions:
REMARK  status: ('A' for Active; 'I' for Inactive)
REMARK    1  A    between atoms: C_4  and  C_5 
REMARK    2  A    between atoms: C_10  and  C_11 
REMARK    3  A    between atoms: C_11  and  N_12 
REMARK    4  A    between atoms: N_12  and  C_14 
REMARK    5  A    between atoms: N_17  and  C_18 
ROOT
HETATM    1  N   UNL     1     -43.302  56.862 -53.582  1.00  0.00    -0.067 N 
HETATM    2  H   UNL     1     -43.348  57.580 -52.842  1.00  0.00     0.280 HD
HETATM    3  C   UNL     1     -44.616  56.953 -54.297  1.00  0.00     0.270 C 
ENDROOT
BRANCH   1   4
HETATM    4  C   UNL     1     -43.227  55.570 -52.767  1.00  0.00     0.277 C 
BRANCH   4   5
HETATM    5  C   UNL     1     -42.227  55.608 -51.677  1.00  0.00     0.016 A 
HETATM    6  C   UNL     1     -41.175  54.736 -51.423  1.00  0.00     0.069 A 
HETATM    7  N   UNL     1     -40.561  55.226 -50.293  1.00  0.00    -0.277 N 
HETATM    8  H   UNL     1     -39.727  54.873 -49.829  1.00  0.00     0.189 HD
HETATM    9  N   UNL     1     -41.173  56.302 -49.779  1.00  0.00    -0.186 NA
HETATM   10  C   UNL     1     -42.147  56.567 -50.641  1.00  0.00     0.149 A 
BRANCH   6  11
HETATM   11  C   UNL     1     -40.677  53.561 -52.132  1.00  0.00    -0.007 A 
HETATM   12  C   UNL     1     -40.290  52.416 -51.422  1.00  0.00     0.020 A 
HETATM   13  C   UNL     1     -39.780  51.294 -52.092  1.00  0.00    -0.061 A 
HETATM   14  C   UNL     1     -39.349  50.075 -51.327  1.00  0.00     0.048 C 
HETATM   15  C   UNL     1     -39.700  51.310 -53.488  1.00  0.00     0.007 A 
HETATM   16  C   UNL     1     -40.080  52.445 -54.202  1.00  0.00     0.001 A 
HETATM   17  C   UNL     1     -40.556  53.570 -53.526  1.00  0.00     0.014 A 
ENDBRANCH   6  11
ENDBRANCH   4   5
ENDBRANCH   1   4
BRANCH   1  18
HETATM   18  C   UNL     1     -42.029  57.201 -54.378  1.00  0.00     0.190 C 
HETATM   19  C   UNL     1     -42.079  56.801 -55.856  1.00  0.00     0.048 C 
HETATM   20  C   UNL     1     -42.590  57.888 -56.793  1.00  0.00     0.099 C 
HETATM   21  N   UNL     1     -41.848  59.125 -56.537  1.00  0.00    -0.268 NA
HETATM   22  C   UNL     1     -42.037  59.663 -55.184  1.00  0.00     0.099 C 
HETATM   23  C   UNL     1     -41.563  58.645 -54.144  1.00  0.00     0.048 C 
BRANCH  21  24
HETATM   24  C   UNL     1     -41.939  60.087 -57.559  1.00  0.00     0.109 A 
HETATM   25  N   UNL     1     -40.920  60.941 -57.767  1.00  0.00    -0.224 NA
HETATM   26  C   UNL     1     -41.014  61.815 -58.800  1.00  0.00     0.102 A 
HETATM   27  C   UNL     1     -39.874  62.750 -59.055  1.00  0.00     0.091 C 
HETATM   28  N   UNL     1     -42.073  61.875 -59.617  1.00  0.00    -0.348 N 
HETATM   29  H   UNL     1     -42.077  62.552 -60.379  1.00  0.00     0.167 HD
HETATM   30  C   UNL     1     -43.107  61.040 -59.438  1.00  0.00     0.009 A 
HETATM   31  C   UNL     1     -44.278  61.123 -60.363  1.00  0.00     0.068 C 
HETATM   32  C   UNL     1     -43.052  60.114 -58.395  1.00  0.00     0.069 A 
ENDBRANCH  21  24
ENDBRANCH   1  18
TORSDOF 5
ENDMDL
MODEL 7
REMARK VINA RESULT:      -8.4      1.888      3.085
REMARK  5 active torsions:
REMARK  status: ('A' for Active; 'I' for Inactive)
REMARK    1  A    between atoms: C_4  and  C_5 
REMARK    2  A    between atoms: C_10  and  C_11 
REMARK    3  A    between atoms: C_11  and  N_12 
REMARK    4  A    between atoms: N_12  and  C_14 
REMARK    5  A    between atoms: N_17  and  C_18 
ROOT
HETATM    1  N   UNL     1     -41.765  57.738 -53.472  1.00  0.00    -0.067 N 
HETATM    2  H   UNL     1     -41.048  57.183 -53.965  1.00  0.00     0.280 HD
HETATM    3  C   UNL     1     -41.382  59.168 -53.708  1.00  0.00     0.270 C 
ENDROOT
BRANCH   1   4
HETATM    4  C   UNL     1     -41.519  57.354 -52.013  1.00  0.00     0.277 C 
BRANCH   4   5
HETATM    5  C   UNL     1     -42.605  56.544 -51.417  1.00  0.00     0.016 A 
HETATM    6  C   UNL     1     -42.654  55.172 -51.199  1.00  0.00     0.069 A 
HETATM    7  N   UNL     1     -43.883  54.939 -50.625  1.00  0.00    -0.277 N 
HETATM    8  H   UNL     1     -44.261  54.057 -50.288  1.00  0.00     0.189 HD
HETATM    9  N   UNL     1     -44.637  56.042 -50.515  1.00  0.00    -0.186 NA
HETATM   10  C   UNL     1     -43.849  57.021 -50.944  1.00  0.00     0.149 A 
BRANCH   6  11
HETATM   11  C   UNL     1     -41.685  54.104 -51.421  1.00  0.00    -0.007 A 
HETATM   12  C   UNL     1     -41.394  53.670 -52.723  1.00  0.00     0.020 A 
HETATM   13  C   UNL     1     -40.488  52.623 -52.944  1.00  0.00    -0.061 A 
HETATM   14  C   UNL     1     -40.192  52.148 -54.338  1.00  0.00     0.048 C 
HETATM   15  C   UNL     1     -39.838  52.039 -51.851  1.00  0.00     0.007 A 
HETATM   16  C   UNL     1     -40.122  52.462 -50.554  1.00  0.00     0.001 A 
HETATM   17  C   UNL     1     -41.049  53.483 -50.339  1.00  0.00     0.014 A 
ENDBRANCH   6  11
ENDBRANCH   4   5
ENDBRANCH   1   4
BRANCH   1  18
HETATM   18  C   UNL     1     -43.104  57.252 -54.053  1.00  0.00     0.190 C 
HETATM   19  C   UNL     1     -43.960  58.354 -54.686  1.00  0.00     0.048 C 
HETATM   20  C   UNL     1     -43.734  58.559 -56.178  1.00  0.00     0.099 C 
HETATM   21  N   UNL     1     -43.835  57.265 -56.858  1.00  0.00    -0.268 NA
HETATM   22  C   UNL     1     -42.814  56.294 -56.443  1.00  0.00     0.099 C 
HETATM   23  C   UNL     1     -42.937  56.011 -54.944  1.00  0.00     0.048 C 
BRANCH  21  24
HETATM   24  C   UNL     1     -44.024  57.345 -58.249  1.00  0.00     0.109 A 
HETATM   25  N   UNL     1     -44.316  56.233 -58.949  1.00  0.00    -0.224 NA
HETATM   26  C   UNL     1     -44.553  56.356 -60.279  1.00  0.00     0.102 A 
HETATM   27  C   UNL     1     -44.905  55.129 -61.062  1.00  0.00     0.091 C 
HETATM   28  N   UNL     1     -44.504  57.525 -60.930  1.00  0.00    -0.348 N 
HETATM   29  H   UNL     1     -44.700  57.547 -61.930  1.00  0.00     0.167 HD
HETATM   30  C   UNL     1     -44.215  58.652 -60.264  1.00  0.00     0.009 A 
HETATM   31  C   UNL     1     -44.168  59.946 -61.009  1.00  0.00     0.068 C 
HETATM   32  C   UNL     1     -43.975  58.580 -58.891  1.00  0.00     0.069 A 
ENDBRANCH  21  24
ENDBRANCH   1  18
TORSDOF 5
ENDMDL
MODEL 8
REMARK VINA RESULT:      -8.4      2.627      6.839
REMARK  5 active torsions:
REMARK  status: ('A' for Active; 'I' for Inactive)
REMARK    1  A    between atoms: C_4  and  C_5 
REMARK    2  A    between atoms: C_10  and  C_11 
REMARK    3  A    between atoms: C_11  and  N_12 
REMARK    4  A    between atoms: N_12  and  C_14 
REMARK    5  A    between atoms: N_17  and  C_18 
ROOT
HETATM    1  N   UNL     1     -43.370  57.798 -55.089  1.00  0.00    -0.067 N 
HETATM    2  H   UNL     1     -42.894  57.751 -54.174  1.00  0.00     0.280 HD
HETATM    3  C   UNL     1     -42.648  58.869 -55.850  1.00  0.00     0.270 C 
ENDROOT
BRANCH   1   4
HETATM    4  C   UNL     1     -44.770  58.273 -54.698  1.00  0.00     0.277 C 
BRANCH   4   5
HETATM    5  C   UNL     1     -44.782  59.231 -53.570  1.00  0.00     0.016 A 
HETATM    6  C   UNL     1     -44.272  59.077 -52.286  1.00  0.00     0.069 A 
HETATM    7  N   UNL     1     -44.549  60.261 -51.641  1.00  0.00    -0.277 N 
HETATM    8  H   UNL     1     -44.292  60.535 -50.695  1.00  0.00     0.189 HD
HETATM    9  N   UNL     1     -45.243  61.127 -52.392  1.00  0.00    -0.186 NA
HETATM   10  C   UNL     1     -45.339  60.530 -53.574  1.00  0.00     0.149 A 
BRANCH   6  11
HETATM   11  C   UNL     1     -43.538  57.993 -51.641  1.00  0.00    -0.007 A 
HETATM   12  C   UNL     1     -44.197  56.814 -51.266  1.00  0.00     0.020 A 
HETATM   13  C   UNL     1     -43.507  55.781 -50.617  1.00  0.00    -0.061 A 
HETATM   14  C   UNL     1     -44.220  54.526 -50.200  1.00  0.00     0.048 C 
HETATM   15  C   UNL     1     -42.134  55.918 -50.383  1.00  0.00     0.007 A 
HETATM   16  C   UNL     1     -41.470  57.087 -50.750  1.00  0.00     0.001 A 
HETATM   17  C   UNL     1     -42.171  58.124 -51.367  1.00  0.00     0.014 A 
ENDBRANCH   6  11
ENDBRANCH   4   5
ENDBRANCH   1   4
BRANCH   1  18
HETATM   18  C   UNL     1     -43.303  56.363 -55.638  1.00  0.00     0.190 C 
HETATM   19  C   UNL     1     -41.911  55.926 -56.107  1.00  0.00     0.048 C 
HETATM   20  C   UNL     1     -41.068  55.235 -55.043  1.00  0.00     0.099 C 
HETATM   21  N   UNL     1     -41.855  54.158 -54.437  1.00  0.00    -0.268 NA
HETATM   22  C   UNL     1     -43.058  54.623 -53.734  1.00  0.00     0.099 C 
HETATM   23  C   UNL     1     -43.988  55.350 -54.709  1.00  0.00     0.048 C 
BRANCH  21  24
HETATM   24  C   UNL     1     -41.101  53.208 -53.725  1.00  0.00     0.109 A 
HETATM   25  N   UNL     1     -40.906  53.365 -52.403  1.00  0.00    -0.224 NA
HETATM   26  C   UNL     1     -40.226  52.399 -51.735  1.00  0.00     0.102 A 
HETATM   27  C   UNL     1     -40.028  52.550 -50.259  1.00  0.00     0.091 C 
HETATM   28  N   UNL     1     -39.734  51.303 -52.327  1.00  0.00    -0.348 N 
HETATM   29  H   UNL     1     -39.239  50.613 -51.765  1.00  0.00     0.167 HD
HETATM   30  C   UNL     1     -39.909  51.116 -53.643  1.00  0.00     0.009 A 
HETATM   31  C   UNL     1     -39.353  49.885 -54.283  1.00  0.00     0.068 C 
HETATM   32  C   UNL     1     -40.612  52.077 -54.372  1.00  0.00     0.069 A 
ENDBRANCH  21  24
ENDBRANCH   1  18
TORSDOF 5
ENDMDL
MODEL 9
REMARK VINA RESULT:      -8.3      4.392      7.509
REMARK  5 active torsions:
REMARK  status: ('A' for Active; 'I' for Inactive)
REMARK    1  A    between atoms: C_4  and  C_5 
REMARK    2  A    between atoms: C_10  and  C_11 
REMARK    3  A    between atoms: C_11  and  N_12 
REMARK    4  A    between atoms: N_12  and  C_14 
REMARK    5  A    between atoms: N_17  and  C_18 
ROOT
HETATM    1  N   UNL     1     -42.249  57.343 -51.806  1.00  0.00    -0.067 N 
HETATM    2  H   UNL     1     -41.632  57.661 -51.042  1.00  0.00     0.280 HD
HETATM    3  C   UNL     1     -43.110  56.279 -51.194  1.00  0.00     0.270 C 
ENDROOT
BRANCH   1   4
HETATM    4  C   UNL     1     -41.253  56.725 -52.786  1.00  0.00     0.277 C 
BRANCH   4   5
HETATM    5  C   UNL     1     -41.886  55.917 -53.852  1.00  0.00     0.016 A 
HETATM    6  C   UNL     1     -41.732  54.565 -54.134  1.00  0.00     0.069 A 
HETATM    7  N   UNL     1     -42.540  54.326 -55.222  1.00  0.00    -0.277 N 
HETATM    8  H   UNL     1     -42.718  53.439 -55.688  1.00  0.00     0.189 HD
HETATM    9  N   UNL     1     -43.148  55.427 -55.686  1.00  0.00    -0.186 NA
HETATM   10  C   UNL     1     -42.797  56.379 -54.830  1.00  0.00     0.149 A 
BRANCH   6  11
HETATM   11  C   UNL     1     -40.969  53.504 -53.484  1.00  0.00    -0.007 A 
HETATM   12  C   UNL     1     -40.604  52.353 -54.197  1.00  0.00     0.020 A 
HETATM   13  C   UNL     1     -39.900  51.315 -53.572  1.00  0.00    -0.061 A 
HETATM   14  C   UNL     1     -39.526  50.075 -54.334  1.00  0.00     0.048 C 
HETATM   15  C   UNL     1     -39.521  51.455 -52.232  1.00  0.00     0.007 A 
HETATM   16  C   UNL     1     -39.880  52.595 -51.515  1.00  0.00     0.001 A 
HETATM   17  C   UNL     1     -40.611  53.610 -52.135  1.00  0.00     0.014 A 
ENDBRANCH   6  11
ENDBRANCH   4   5
ENDBRANCH   1   4
BRANCH   1  18
HETATM   18  C   UNL     1     -42.942  58.622 -52.306  1.00  0.00     0.190 C 
HETATM   19  C   UNL     1     -44.470  58.603 -52.193  1.00  0.00     0.048 C 
HETATM   20  C   UNL     1     -45.020  59.178 -50.894  1.00  0.00     0.099 C 
HETATM   21  N   UNL     1     -44.424  60.496 -50.666  1.00  0.00    -0.268 NA
HETATM   22  C   UNL     1     -42.967  60.468 -50.488  1.00  0.00     0.099 C 
HETATM   23  C   UNL     1     -42.297  59.896 -51.740  1.00  0.00     0.048 C 
BRANCH  21  24
HETATM   24  C   UNL     1     -45.105  61.295 -49.729  1.00  0.00     0.109 A 
HETATM   25  N   UNL     1     -46.123  62.077 -50.132  1.00  0.00    -0.224 NA
HETATM   26  C   UNL     1     -46.798  62.786 -49.193  1.00  0.00     0.102 A 
HETATM   27  C   UNL     1     -47.950  63.638 -49.627  1.00  0.00     0.091 C 
HETATM   28  N   UNL     1     -46.497  62.754 -47.889  1.00  0.00    -0.348 N 
HETATM   29  H   UNL     1     -47.049  63.307 -47.236  1.00  0.00     0.167 HD
HETATM   30  C   UNL     1     -45.487  61.986 -47.453  1.00  0.00     0.009 A 
HETATM   31  C   UNL     1     -45.169  61.963 -45.993  1.00  0.00     0.068 C 
HETATM   32  C   UNL     1     -44.770  61.227 -48.380  1.00  0.00     0.069 A 
ENDBRANCH  21  24
ENDBRANCH   1  18
TORSDOF 5
ENDMDL
MODEL 10
REMARK VINA RESULT:      -8.2     14.224     18.643
REMARK  5 active torsions:
REMARK  status: ('A' for Active; 'I' for Inactive)
REMARK    1  A    between atoms: C_4  and  C_5 
REMARK    2  A    between atoms: C_10  and  C_11 
REMARK    3  A    between atoms: C_11  and  N_12 
REMARK    4  A    between atoms: N_12  and  C_14 
REMARK    5  A    between atoms: N_17  and  C_18 
ROOT
HETATM    1  N   UNL     1     -33.428  39.485 -54.423  1.00  0.00    -0.067 N 
HETATM    2  H   UNL     1     -33.238  38.898 -55.251  1.00  0.00     0.280 HD
HETATM    3  C   UNL     1     -34.600  38.838 -53.747  1.00  0.00     0.270 C 
ENDROOT
BRANCH   1   4
HETATM    4  C   UNL     1     -33.845  40.810 -55.060  1.00  0.00     0.277 C 
BRANCH   4   5
HETATM    5  C   UNL     1     -35.090  41.379 -54.497  1.00  0.00     0.016 A 
HETATM    6  C   UNL     1     -36.343  41.495 -55.086  1.00  0.00     0.069 A 
HETATM    7  N   UNL     1     -37.138  42.094 -54.136  1.00  0.00    -0.277 N 
HETATM    8  H   UNL     1     -38.132  42.305 -54.191  1.00  0.00     0.189 HD
HETATM    9  N   UNL     1     -36.477  42.417 -53.016  1.00  0.00    -0.186 NA
HETATM   10  C   UNL     1     -35.253  41.940 -53.210  1.00  0.00     0.149 A 
BRANCH   6  11
HETATM   11  C   UNL     1     -36.864  41.076 -56.383  1.00  0.00    -0.007 A 
HETATM   12  C   UNL     1     -36.808  41.943 -57.485  1.00  0.00     0.020 A 
HETATM   13  C   UNL     1     -37.335  41.561 -58.726  1.00  0.00    -0.061 A 
HETATM   14  C   UNL     1     -37.289  42.498 -59.899  1.00  0.00     0.048 C 
HETATM   15  C   UNL     1     -37.883  40.282 -58.872  1.00  0.00     0.007 A 
HETATM   16  C   UNL     1     -37.945  39.415 -57.783  1.00  0.00     0.001 A 
HETATM   17  C   UNL     1     -37.448  39.814 -56.542  1.00  0.00     0.014 A 
ENDBRANCH   6  11
ENDBRANCH   4   5
ENDBRANCH   1   4
BRANCH   1  18
HETATM   18  C   UNL     1     -32.095  39.524 -53.657  1.00  0.00     0.190 C 
HETATM   19  C   UNL     1     -31.950  40.708 -52.694  1.00  0.00     0.048 C 
HETATM   20  C   UNL     1     -32.411  40.431 -51.270  1.00  0.00     0.099 C 
HETATM   21  N   UNL     1     -31.777  39.199 -50.795  1.00  0.00    -0.268 NA
HETATM   22  C   UNL     1     -32.153  38.003 -51.560  1.00  0.00     0.099 C 
HETATM   23  C   UNL     1     -31.744  38.169 -53.026  1.00  0.00     0.048 C 
BRANCH  21  24
HETATM   24  C   UNL     1     -31.806  39.024 -49.399  1.00  0.00     0.109 A 
HETATM   25  N   UNL     1     -30.883  39.630 -48.630  1.00  0.00    -0.224 NA
HETATM   26  C   UNL     1     -30.976  39.491 -47.284  1.00  0.00     0.102 A 
HETATM   27  C   UNL     1     -29.971  40.184 -46.419  1.00  0.00     0.091 C 
HETATM   28  N   UNL     1     -31.935  38.774 -46.684  1.00  0.00    -0.348 N 
HETATM   29  H   UNL     1     -31.951  38.716 -45.667  1.00  0.00     0.167 HD
HETATM   30  C   UNL     1     -32.870  38.155 -47.420  1.00  0.00     0.009 A 
HETATM   31  C   UNL     1     -33.932  37.362 -46.730  1.00  0.00     0.068 C 
HETATM   32  C   UNL     1     -32.823  38.279 -48.810  1.00  0.00     0.069 A 
ENDBRANCH  21  24
ENDBRANCH   1  18
TORSDOF 5
ENDMDL
