MODEL 1
REMARK VINA RESULT:      -9.2      0.000      0.000
REMARK  2 active torsions:
REMARK  status: ('A' for Active; 'I' for Inactive)
REMARK    1  A    between atoms: C_5  and  N_6 
REMARK    2  A    between atoms: C_8  and  C_9 
REMARK       I    between atoms: C_9  and  N_10 
ROOT
HETATM    1  C   UNL     1     -41.544  57.861 -50.947  1.00  0.00     0.279 C 
HETATM    2  N   UNL     1     -42.756  58.238 -51.574  1.00  0.00    -0.301 N 
HETATM    3  C   UNL     1     -43.228  59.599 -51.586  1.00  0.00     0.067 A 
HETATM    4  C   UNL     1     -44.232  59.988 -52.484  1.00  0.00     0.079 A 
HETATM    5  C   UNL     1     -44.652  61.315 -52.499  1.00  0.00     0.148 A 
HETATM    6  N   UNL     1     -44.167  62.272 -51.682  1.00  0.00    -0.271 NA
HETATM    7  C   UNL     1     -43.220  61.880 -50.808  1.00  0.00     0.118 A 
HETATM    8  C   UNL     1     -42.733  60.582 -50.721  1.00  0.00     0.051 A 
HETATM    9  N   UNL     1     -44.806  59.084 -53.380  1.00  0.00    -0.323 N 
HETATM   10  C   UNL     1     -44.499  57.759 -53.397  1.00  0.00     0.240 C 
HETATM   11  O   UNL     1     -45.055  57.007 -54.198  1.00  0.00    -0.271 OA
HETATM   12  C   UNL     1     -43.545  57.253 -52.328  1.00  0.00     0.235 C 
HETATM   13  O   UNL     1     -40.695  58.684 -50.594  1.00  0.00    -0.265 OA
HETATM   14  H   UNL     1     -45.491  59.390 -54.059  1.00  0.00     0.169 HD
ENDROOT
BRANCH   1  15
HETATM   15  C   UNL     1     -41.238  56.423 -50.739  1.00  0.00     0.147 A 
HETATM   16  N   UNL     1     -41.016  55.532 -51.714  1.00  0.00    -0.162 NA
HETATM   17  N   UNL     1     -40.776  54.331 -51.104  1.00  0.00    -0.238 N 
HETATM   18  C   UNL     1     -40.877  54.462 -49.720  1.00  0.00     0.035 A 
HETATM   19  C   UNL     1     -41.191  55.784 -49.482  1.00  0.00     0.066 A 
HETATM   20  C   UNL     1     -40.680  53.408 -48.697  1.00  0.00     0.070 C 
BRANCH  17  21
HETATM   21  C   UNL     1     -40.467  53.201 -51.933  1.00  0.00     0.058 A 
HETATM   22  C   UNL     1     -40.857  53.230 -53.286  1.00  0.00     0.032 A 
HETATM   23  C   UNL     1     -40.566  52.166 -54.149  1.00  0.00     0.009 A 
HETATM   24  C   UNL     1     -39.888  51.041 -53.680  1.00  0.00    -0.062 A 
HETATM   25  C   UNL     1     -39.544  49.905 -54.596  1.00  0.00     0.048 C 
HETATM   26  C   UNL     1     -39.501  51.002 -52.338  1.00  0.00     0.009 A 
HETATM   27  C   UNL     1     -39.790  52.068 -51.473  1.00  0.00     0.032 A 
ENDBRANCH  17  21
ENDBRANCH   1  15
TORSDOF 2
ENDMDL
MODEL 2
REMARK VINA RESULT:      -8.6      3.140      3.605
REMARK  2 active torsions:
REMARK  status: ('A' for Active; 'I' for Inactive)
REMARK    1  A    between atoms: C_5  and  N_6 
REMARK    2  A    between atoms: C_8  and  C_9 
REMARK       I    between atoms: C_9  and  N_10 
ROOT
HETATM    1  C   UNL     1     -41.474  58.321 -54.249  1.00  0.00     0.279 C 
HETATM    2  N   UNL     1     -42.245  58.248 -55.435  1.00  0.00    -0.301 N 
HETATM    3  C   UNL     1     -42.599  59.418 -56.198  1.00  0.00     0.067 A 
HETATM    4  C   UNL     1     -43.060  59.285 -57.515  1.00  0.00     0.079 A 
HETATM    5  C   UNL     1     -43.368  60.431 -58.245  1.00  0.00     0.148 A 
HETATM    6  N   UNL     1     -43.272  61.685 -57.760  1.00  0.00    -0.271 NA
HETATM    7  C   UNL     1     -42.851  61.797 -56.485  1.00  0.00     0.118 A 
HETATM    8  C   UNL     1     -42.515  60.716 -55.680  1.00  0.00     0.051 A 
HETATM    9  N   UNL     1     -43.196  58.036 -58.123  1.00  0.00    -0.323 N 
HETATM   10  C   UNL     1     -42.974  56.864 -57.470  1.00  0.00     0.240 C 
HETATM   11  O   UNL     1     -43.131  55.792 -58.055  1.00  0.00    -0.271 OA
HETATM   12  C   UNL     1     -42.641  56.946 -55.990  1.00  0.00     0.235 C 
HETATM   13  O   UNL     1     -40.849  59.333 -53.925  1.00  0.00    -0.265 OA
HETATM   14  H   UNL     1     -43.478  57.958 -59.091  1.00  0.00     0.169 HD
ENDROOT
BRANCH   1  15
HETATM   15  C   UNL     1     -41.361  57.130 -53.369  1.00  0.00     0.147 A 
HETATM   16  N   UNL     1     -40.989  55.907 -53.770  1.00  0.00    -0.162 NA
HETATM   17  N   UNL     1     -41.016  55.104 -52.662  1.00  0.00    -0.238 N 
HETATM   18  C   UNL     1     -41.441  55.827 -51.550  1.00  0.00     0.035 A 
HETATM   19  C   UNL     1     -41.682  57.110 -51.996  1.00  0.00     0.066 A 
HETATM   20  C   UNL     1     -41.598  55.337 -50.159  1.00  0.00     0.070 C 
BRANCH  17  21
HETATM   21  C   UNL     1     -40.619  53.733 -52.811  1.00  0.00     0.058 A 
HETATM   22  C   UNL     1     -40.892  53.079 -54.028  1.00  0.00     0.032 A 
HETATM   23  C   UNL     1     -40.511  51.749 -54.240  1.00  0.00     0.009 A 
HETATM   24  C   UNL     1     -39.855  51.034 -53.238  1.00  0.00    -0.062 A 
HETATM   25  C   UNL     1     -39.414  49.618 -53.457  1.00  0.00     0.048 C 
HETATM   26  C   UNL     1     -39.583  51.673 -52.026  1.00  0.00     0.009 A 
HETATM   27  C   UNL     1     -39.963  53.007 -51.812  1.00  0.00     0.032 A 
ENDBRANCH  17  21
ENDBRANCH   1  15
TORSDOF 2
ENDMDL
MODEL 3
REMARK VINA RESULT:      -8.6      1.516      2.014
REMARK  2 active torsions:
REMARK  status: ('A' for Active; 'I' for Inactive)
REMARK    1  A    between atoms: C_5  and  N_6 
REMARK    2  A    between atoms: C_8  and  C_9 
REMARK       I    between atoms: C_9  and  N_10 
ROOT
HETATM    1  C   UNL     1     -41.839  58.659 -52.816  1.00  0.00     0.279 C 
HETATM    2  N   UNL     1     -43.098  58.994 -53.372  1.00  0.00    -0.301 N 
HETATM    3  C   UNL     1     -43.466  60.349 -53.688  1.00  0.00     0.067 A 
HETATM    4  C   UNL     1     -44.557  60.604 -54.531  1.00  0.00     0.079 A 
HETATM    5  C   UNL     1     -44.877  61.921 -54.848  1.00  0.00     0.148 A 
HETATM    6  N   UNL     1     -44.212  62.996 -54.377  1.00  0.00    -0.271 NA
HETATM    7  C   UNL     1     -43.182  62.738 -53.549  1.00  0.00     0.118 A 
HETATM    8  C   UNL     1     -42.782  61.460 -53.180  1.00  0.00     0.051 A 
HETATM    9  N   UNL     1     -45.317  59.570 -55.080  1.00  0.00    -0.323 N 
HETATM   10  C   UNL     1     -45.114  58.258 -54.781  1.00  0.00     0.240 C 
HETATM   11  O   UNL     1     -45.831  57.393 -55.282  1.00  0.00    -0.271 OA
HETATM   12  C   UNL     1     -44.056  57.940 -53.738  1.00  0.00     0.235 C 
HETATM   13  O   UNL     1     -40.891  59.449 -52.797  1.00  0.00    -0.265 OA
HETATM   14  H   UNL     1     -46.068  59.765 -55.729  1.00  0.00     0.169 HD
ENDROOT
BRANCH   1  15
HETATM   15  C   UNL     1     -41.612  57.297 -52.271  1.00  0.00     0.147 A 
HETATM   16  N   UNL     1     -41.261  56.225 -52.995  1.00  0.00    -0.162 NA
HETATM   17  N   UNL     1     -41.157  55.177 -52.121  1.00  0.00    -0.238 N 
HETATM   18  C   UNL     1     -41.476  55.589 -50.829  1.00  0.00     0.035 A 
HETATM   19  C   UNL     1     -41.787  56.930 -50.921  1.00  0.00     0.066 A 
HETATM   20  C   UNL     1     -41.477  54.770 -49.594  1.00  0.00     0.070 C 
BRANCH  17  21
HETATM   21  C   UNL     1     -40.751  53.902 -52.640  1.00  0.00     0.058 A 
HETATM   22  C   UNL     1     -39.987  53.051 -51.819  1.00  0.00     0.032 A 
HETATM   23  C   UNL     1     -39.579  51.787 -52.262  1.00  0.00     0.009 A 
HETATM   24  C   UNL     1     -39.915  51.344 -53.541  1.00  0.00    -0.062 A 
HETATM   25  C   UNL     1     -39.511  49.983 -54.022  1.00  0.00     0.048 C 
HETATM   26  C   UNL     1     -40.670  52.183 -54.364  1.00  0.00     0.009 A 
HETATM   27  C   UNL     1     -41.082  53.449 -53.922  1.00  0.00     0.032 A 
ENDBRANCH  17  21
ENDBRANCH   1  15
TORSDOF 2
ENDMDL
MODEL 4
REMARK VINA RESULT:      -8.5     16.946     18.836
REMARK  2 active torsions:
REMARK  status: ('A' for Active; 'I' for Inactive)
REMARK    1  A    between atoms: C_5  and  N_6 
REMARK    2  A    between atoms: C_8  and  C_9 
REMARK       I    between atoms: C_9  and  N_10 
ROOT
HETATM    1  C   UNL     1     -36.413  40.576 -55.279  1.00  0.00     0.279 C 
HETATM    2  N   UNL     1     -35.078  40.765 -54.847  1.00  0.00    -0.301 N 
HETATM    3  C   UNL     1     -34.722  40.845 -53.454  1.00  0.00     0.067 A 
HETATM    4  C   UNL     1     -33.385  40.694 -53.059  1.00  0.00     0.079 A 
HETATM    5  C   UNL     1     -33.068  40.745 -51.704  1.00  0.00     0.148 A 
HETATM    6  N   UNL     1     -33.970  40.954 -50.724  1.00  0.00    -0.271 NA
HETATM    7  C   UNL     1     -35.246  41.122 -51.118  1.00  0.00     0.118 A 
HETATM    8  C   UNL     1     -35.661  41.081 -52.443  1.00  0.00     0.051 A 
HETATM    9  N   UNL     1     -32.367  40.471 -53.987  1.00  0.00    -0.323 N 
HETATM   10  C   UNL     1     -32.575  40.462 -55.331  1.00  0.00     0.240 C 
HETATM   11  O   UNL     1     -31.632  40.280 -56.100  1.00  0.00    -0.271 OA
HETATM   12  C   UNL     1     -33.975  40.794 -55.819  1.00  0.00     0.235 C 
HETATM   13  O   UNL     1     -37.314  40.220 -54.516  1.00  0.00    -0.265 OA
HETATM   14  H   UNL     1     -31.415  40.310 -53.684  1.00  0.00     0.169 HD
ENDROOT
BRANCH   1  15
HETATM   15  C   UNL     1     -36.757  40.760 -56.712  1.00  0.00     0.147 A 
HETATM   16  N   UNL     1     -37.113  39.780 -57.553  1.00  0.00    -0.162 NA
HETATM   17  N   UNL     1     -37.341  40.367 -58.768  1.00  0.00    -0.238 N 
HETATM   18  C   UNL     1     -37.098  41.737 -58.699  1.00  0.00     0.035 A 
HETATM   19  C   UNL     1     -36.705  41.990 -57.400  1.00  0.00     0.066 A 
HETATM   20  C   UNL     1     -37.236  42.735 -59.785  1.00  0.00     0.070 C 
BRANCH  17  21
HETATM   21  C   UNL     1     -37.779  39.531 -59.851  1.00  0.00     0.058 A 
HETATM   22  C   UNL     1     -38.970  38.796 -59.697  1.00  0.00     0.032 A 
HETATM   23  C   UNL     1     -39.457  37.980 -60.725  1.00  0.00     0.009 A 
HETATM   24  C   UNL     1     -38.762  37.870 -61.930  1.00  0.00    -0.062 A 
HETATM   25  C   UNL     1     -39.284  37.023 -63.051  1.00  0.00     0.048 C 
HETATM   26  C   UNL     1     -37.578  38.593 -62.089  1.00  0.00     0.009 A 
HETATM   27  C   UNL     1     -37.089  39.413 -61.061  1.00  0.00     0.032 A 
ENDBRANCH  17  21
ENDBRANCH   1  15
TORSDOF 2
ENDMDL
MODEL 5
REMARK VINA RESULT:      -8.5      3.965      7.220
REMARK  2 active torsions:
REMARK  status: ('A' for Active; 'I' for Inactive)
REMARK    1  A    between atoms: C_5  and  N_6 
REMARK    2  A    between atoms: C_8  and  C_9 
REMARK       I    between atoms: C_9  and  N_10 
ROOT
HETATM    1  C   UNL     1     -42.493  56.302 -52.785  1.00  0.00     0.279 C 
HETATM    2  N   UNL     1     -41.566  55.255 -52.558  1.00  0.00    -0.301 N 
HETATM    3  C   UNL     1     -41.221  54.804 -51.235  1.00  0.00     0.067 A 
HETATM    4  C   UNL     1     -40.576  53.572 -51.058  1.00  0.00     0.079 A 
HETATM    5  C   UNL     1     -40.278  53.141 -49.767  1.00  0.00     0.148 A 
HETATM    6  N   UNL     1     -40.552  53.847 -48.652  1.00  0.00    -0.271 NA
HETATM    7  C   UNL     1     -41.149  55.040 -48.838  1.00  0.00     0.118 A 
HETATM    8  C   UNL     1     -41.491  55.552 -50.083  1.00  0.00     0.051 A 
HETATM    9  N   UNL     1     -40.247  52.754 -52.139  1.00  0.00    -0.323 N 
HETATM   10  C   UNL     1     -40.448  53.117 -53.435  1.00  0.00     0.240 C 
HETATM   11  O   UNL     1     -40.117  52.360 -54.347  1.00  0.00    -0.271 OA
HETATM   12  C   UNL     1     -40.983  54.517 -53.687  1.00  0.00     0.235 C 
HETATM   13  O   UNL     1     -43.246  56.724 -51.904  1.00  0.00    -0.265 OA
HETATM   14  H   UNL     1     -39.831  51.843 -51.994  1.00  0.00     0.169 HD
ENDROOT
BRANCH   1  15
HETATM   15  C   UNL     1     -42.615  56.898 -54.139  1.00  0.00     0.147 A 
HETATM   16  N   UNL     1     -43.197  56.308 -55.192  1.00  0.00    -0.162 NA
HETATM   17  N   UNL     1     -43.096  57.184 -56.239  1.00  0.00    -0.238 N 
HETATM   18  C   UNL     1     -42.415  58.333 -55.846  1.00  0.00     0.035 A 
HETATM   19  C   UNL     1     -42.087  58.149 -54.519  1.00  0.00     0.066 A 
HETATM   20  C   UNL     1     -42.104  59.526 -56.670  1.00  0.00     0.070 C 
BRANCH  17  21
HETATM   21  C   UNL     1     -43.682  56.807 -57.495  1.00  0.00     0.058 A 
HETATM   22  C   UNL     1     -43.184  55.668 -58.157  1.00  0.00     0.032 A 
HETATM   23  C   UNL     1     -43.728  55.239 -59.374  1.00  0.00     0.009 A 
HETATM   24  C   UNL     1     -44.776  55.943 -59.966  1.00  0.00    -0.062 A 
HETATM   25  C   UNL     1     -45.389  55.482 -61.254  1.00  0.00     0.048 C 
HETATM   26  C   UNL     1     -45.274  57.076 -59.318  1.00  0.00     0.009 A 
HETATM   27  C   UNL     1     -44.732  57.506 -58.098  1.00  0.00     0.032 A 
ENDBRANCH  17  21
ENDBRANCH   1  15
TORSDOF 2
ENDMDL
MODEL 6
REMARK VINA RESULT:      -8.4      3.272      8.429
REMARK  2 active torsions:
REMARK  status: ('A' for Active; 'I' for Inactive)
REMARK    1  A    between atoms: C_5  and  N_6 
REMARK    2  A    between atoms: C_8  and  C_9 
REMARK       I    between atoms: C_9  and  N_10 
ROOT
HETATM    1  C   UNL     1     -40.551  54.016 -54.479  1.00  0.00     0.279 C 
HETATM    2  N   UNL     1     -40.606  53.316 -53.250  1.00  0.00    -0.301 N 
HETATM    3  C   UNL     1     -40.201  51.939 -53.127  1.00  0.00     0.067 A 
HETATM    4  C   UNL     1     -39.951  51.389 -51.862  1.00  0.00     0.079 A 
HETATM    5  C   UNL     1     -39.532  50.064 -51.769  1.00  0.00     0.148 A 
HETATM    6  N   UNL     1     -39.365  49.248 -52.828  1.00  0.00    -0.271 NA
HETATM    7  C   UNL     1     -39.632  49.781 -54.035  1.00  0.00     0.118 A 
HETATM    8  C   UNL     1     -40.049  51.092 -54.231  1.00  0.00     0.051 A 
HETATM    9  N   UNL     1     -40.088  52.141 -50.695  1.00  0.00    -0.323 N 
HETATM   10  C   UNL     1     -40.546  53.423 -50.685  1.00  0.00     0.240 C 
HETATM   11  O   UNL     1     -40.665  54.028 -49.620  1.00  0.00    -0.271 OA
HETATM   12  C   UNL     1     -40.997  54.008 -52.013  1.00  0.00     0.235 C 
HETATM   13  O   UNL     1     -39.931  53.592 -55.458  1.00  0.00    -0.265 OA
HETATM   14  H   UNL     1     -39.853  51.748 -49.793  1.00  0.00     0.169 HD
ENDROOT
BRANCH   1  15
HETATM   15  C   UNL     1     -41.217  55.337 -54.606  1.00  0.00     0.147 A 
HETATM   16  N   UNL     1     -42.298  55.587 -55.357  1.00  0.00    -0.162 NA
HETATM   17  N   UNL     1     -42.589  56.915 -55.199  1.00  0.00    -0.238 N 
HETATM   18  C   UNL     1     -41.659  57.518 -54.356  1.00  0.00     0.035 A 
HETATM   19  C   UNL     1     -40.771  56.526 -53.993  1.00  0.00     0.066 A 
HETATM   20  C   UNL     1     -41.619  58.935 -53.920  1.00  0.00     0.070 C 
BRANCH  17  21
HETATM   21  C   UNL     1     -43.741  57.440 -55.877  1.00  0.00     0.058 A 
HETATM   22  C   UNL     1     -43.796  57.353 -57.281  1.00  0.00     0.032 A 
HETATM   23  C   UNL     1     -44.901  57.829 -57.996  1.00  0.00     0.009 A 
HETATM   24  C   UNL     1     -45.977  58.413 -57.326  1.00  0.00    -0.062 A 
HETATM   25  C   UNL     1     -47.181  58.903 -58.073  1.00  0.00     0.048 C 
HETATM   26  C   UNL     1     -45.930  58.506 -55.934  1.00  0.00     0.009 A 
HETATM   27  C   UNL     1     -44.824  58.028 -55.216  1.00  0.00     0.032 A 
ENDBRANCH  17  21
ENDBRANCH   1  15
TORSDOF 2
ENDMDL
MODEL 7
REMARK VINA RESULT:      -8.4      2.557      8.410
REMARK  2 active torsions:
REMARK  status: ('A' for Active; 'I' for Inactive)
REMARK    1  A    between atoms: C_5  and  N_6 
REMARK    2  A    between atoms: C_8  and  C_9 
REMARK       I    between atoms: C_9  and  N_10 
ROOT
HETATM    1  C   UNL     1     -40.608  54.206 -54.357  1.00  0.00     0.279 C 
HETATM    2  N   UNL     1     -40.577  53.431 -53.173  1.00  0.00    -0.301 N 
HETATM    3  C   UNL     1     -40.213  52.037 -53.172  1.00  0.00     0.067 A 
HETATM    4  C   UNL     1     -39.870  51.401 -51.971  1.00  0.00     0.079 A 
HETATM    5  C   UNL     1     -39.491  50.061 -51.997  1.00  0.00     0.148 A 
HETATM    6  N   UNL     1     -39.449  49.308 -53.116  1.00  0.00    -0.271 NA
HETATM    7  C   UNL     1     -39.804  49.925 -54.258  1.00  0.00     0.118 A 
HETATM    8  C   UNL     1     -40.190  51.258 -54.334  1.00  0.00     0.051 A 
HETATM    9  N   UNL     1     -39.874  52.080 -50.752  1.00  0.00    -0.323 N 
HETATM   10  C   UNL     1     -40.284  53.371 -50.623  1.00  0.00     0.240 C 
HETATM   11  O   UNL     1     -40.285  53.911 -49.517  1.00  0.00    -0.271 OA
HETATM   12  C   UNL     1     -40.831  54.054 -51.866  1.00  0.00     0.235 C 
HETATM   13  O   UNL     1     -40.094  53.826 -55.412  1.00  0.00    -0.265 OA
HETATM   14  H   UNL     1     -39.573  51.624 -49.901  1.00  0.00     0.169 HD
ENDROOT
BRANCH   1  15
HETATM   15  C   UNL     1     -41.236  55.551 -54.342  1.00  0.00     0.147 A 
HETATM   16  N   UNL     1     -41.506  56.264 -53.240  1.00  0.00    -0.162 NA
HETATM   17  N   UNL     1     -42.080  57.434 -53.658  1.00  0.00    -0.238 N 
HETATM   18  C   UNL     1     -42.200  57.446 -55.046  1.00  0.00     0.035 A 
HETATM   19  C   UNL     1     -41.686  56.243 -55.486  1.00  0.00     0.066 A 
HETATM   20  C   UNL     1     -42.756  58.526 -55.896  1.00  0.00     0.070 C 
BRANCH  17  21
HETATM   21  C   UNL     1     -42.435  58.407 -52.664  1.00  0.00     0.058 A 
HETATM   22  C   UNL     1     -43.786  58.521 -52.284  1.00  0.00     0.032 A 
HETATM   23  C   UNL     1     -44.192  59.436 -51.305  1.00  0.00     0.009 A 
HETATM   24  C   UNL     1     -43.258  60.269 -50.688  1.00  0.00    -0.062 A 
HETATM   25  C   UNL     1     -43.669  61.235 -49.618  1.00  0.00     0.048 C 
HETATM   26  C   UNL     1     -41.916  60.165 -51.061  1.00  0.00     0.009 A 
HETATM   27  C   UNL     1     -41.508  59.247 -52.040  1.00  0.00     0.032 A 
ENDBRANCH  17  21
ENDBRANCH   1  15
TORSDOF 2
ENDMDL
MODEL 8
REMARK VINA RESULT:      -8.3      2.147      7.967
REMARK  2 active torsions:
REMARK  status: ('A' for Active; 'I' for Inactive)
REMARK    1  A    between atoms: C_5  and  N_6 
REMARK    2  A    between atoms: C_8  and  C_9 
REMARK       I    between atoms: C_9  and  N_10 
ROOT
HETATM    1  C   UNL     1     -41.550  54.922 -51.050  1.00  0.00     0.279 C 
HETATM    2  N   UNL     1     -40.994  54.322 -52.205  1.00  0.00    -0.301 N 
HETATM    3  C   UNL     1     -40.455  52.986 -52.197  1.00  0.00     0.067 A 
HETATM    4  C   UNL     1     -40.228  52.311 -53.404  1.00  0.00     0.079 A 
HETATM    5  C   UNL     1     -39.734  51.010 -53.372  1.00  0.00     0.148 A 
HETATM    6  N   UNL     1     -39.431  50.344 -52.239  1.00  0.00    -0.271 NA
HETATM    7  C   UNL     1     -39.630  51.012 -51.088  1.00  0.00     0.118 A 
HETATM    8  C   UNL     1     -40.124  52.309 -51.017  1.00  0.00     0.051 A 
HETATM    9  N   UNL     1     -40.508  52.900 -54.638  1.00  0.00    -0.323 N 
HETATM   10  C   UNL     1     -40.938  54.184 -54.768  1.00  0.00     0.240 C 
HETATM   11  O   UNL     1     -41.148  54.655 -55.886  1.00  0.00    -0.271 OA
HETATM   12  C   UNL     1     -41.033  55.016 -53.500  1.00  0.00     0.235 C 
HETATM   13  O   UNL     1     -41.839  54.276 -50.039  1.00  0.00    -0.265 OA
HETATM   14  H   UNL     1     -40.391  52.383 -55.499  1.00  0.00     0.169 HD
ENDROOT
BRANCH   1  15
HETATM   15  C   UNL     1     -41.850  56.377 -51.047  1.00  0.00     0.147 A 
HETATM   16  N   UNL     1     -42.985  56.931 -51.492  1.00  0.00    -0.162 NA
HETATM   17  N   UNL     1     -42.859  58.283 -51.315  1.00  0.00    -0.238 N 
HETATM   18  C   UNL     1     -41.611  58.587 -50.775  1.00  0.00     0.035 A 
HETATM   19  C   UNL     1     -40.956  57.382 -50.622  1.00  0.00     0.066 A 
HETATM   20  C   UNL     1     -41.082  59.925 -50.421  1.00  0.00     0.070 C 
BRANCH  17  21
HETATM   21  C   UNL     1     -43.967  59.119 -51.682  1.00  0.00     0.058 A 
HETATM   22  C   UNL     1     -45.074  59.190 -50.815  1.00  0.00     0.032 A 
HETATM   23  C   UNL     1     -46.176  60.004 -51.108  1.00  0.00     0.009 A 
HETATM   24  C   UNL     1     -46.203  60.759 -52.280  1.00  0.00    -0.062 A 
HETATM   25  C   UNL     1     -47.361  61.658 -52.596  1.00  0.00     0.048 C 
HETATM   26  C   UNL     1     -45.110  60.692 -53.147  1.00  0.00     0.009 A 
HETATM   27  C   UNL     1     -44.005  59.880 -52.854  1.00  0.00     0.032 A 
ENDBRANCH  17  21
ENDBRANCH   1  15
TORSDOF 2
ENDMDL
MODEL 9
REMARK VINA RESULT:      -8.3      4.531      6.130
REMARK  2 active torsions:
REMARK  status: ('A' for Active; 'I' for Inactive)
REMARK    1  A    between atoms: C_5  and  N_6 
REMARK    2  A    between atoms: C_8  and  C_9 
REMARK       I    between atoms: C_9  and  N_10 
ROOT
HETATM    1  C   UNL     1     -44.046  58.589 -56.445  1.00  0.00     0.279 C 
HETATM    2  N   UNL     1     -44.223  58.023 -57.731  1.00  0.00    -0.301 N 
HETATM    3  C   UNL     1     -45.355  58.338 -58.563  1.00  0.00     0.067 A 
HETATM    4  C   UNL     1     -45.328  58.034 -59.931  1.00  0.00     0.079 A 
HETATM    5  C   UNL     1     -46.422  58.375 -60.723  1.00  0.00     0.148 A 
HETATM    6  N   UNL     1     -47.538  58.970 -60.256  1.00  0.00    -0.271 NA
HETATM    7  C   UNL     1     -47.561  59.234 -58.936  1.00  0.00     0.118 A 
HETATM    8  C   UNL     1     -46.518  58.939 -58.067  1.00  0.00     0.051 A 
HETATM    9  N   UNL     1     -44.225  57.421 -60.526  1.00  0.00    -0.323 N 
HETATM   10  C   UNL     1     -43.139  57.003 -59.822  1.00  0.00     0.240 C 
HETATM   11  O   UNL     1     -42.204  56.448 -60.400  1.00  0.00    -0.271 OA
HETATM   12  C   UNL     1     -43.192  57.150 -58.310  1.00  0.00     0.235 C 
HETATM   13  O   UNL     1     -44.696  59.561 -56.052  1.00  0.00    -0.265 OA
HETATM   14  H   UNL     1     -44.197  57.256 -61.524  1.00  0.00     0.169 HD
ENDROOT
BRANCH   1  15
HETATM   15  C   UNL     1     -43.012  58.038 -55.532  1.00  0.00     0.147 A 
HETATM   16  N   UNL     1     -42.770  56.735 -55.339  1.00  0.00    -0.162 NA
HETATM   17  N   UNL     1     -41.751  56.654 -54.428  1.00  0.00    -0.238 N 
HETATM   18  C   UNL     1     -41.364  57.929 -54.020  1.00  0.00     0.035 A 
HETATM   19  C   UNL     1     -42.176  58.812 -54.701  1.00  0.00     0.066 A 
HETATM   20  C   UNL     1     -40.294  58.283 -53.057  1.00  0.00     0.070 C 
BRANCH  17  21
HETATM   21  C   UNL     1     -41.266  55.351 -54.069  1.00  0.00     0.058 A 
HETATM   22  C   UNL     1     -40.666  54.556 -55.064  1.00  0.00     0.032 A 
HETATM   23  C   UNL     1     -40.156  53.286 -54.771  1.00  0.00     0.009 A 
HETATM   24  C   UNL     1     -40.242  52.773 -53.476  1.00  0.00    -0.062 A 
HETATM   25  C   UNL     1     -39.677  51.426 -53.137  1.00  0.00     0.048 C 
HETATM   26  C   UNL     1     -40.839  53.553 -52.484  1.00  0.00     0.009 A 
HETATM   27  C   UNL     1     -41.349  54.827 -52.776  1.00  0.00     0.032 A 
ENDBRANCH  17  21
ENDBRANCH   1  15
TORSDOF 2
ENDMDL
MODEL 10
REMARK VINA RESULT:      -8.3      3.695      4.811
REMARK  2 active torsions:
REMARK  status: ('A' for Active; 'I' for Inactive)
REMARK    1  A    between atoms: C_5  and  N_6 
REMARK    2  A    between atoms: C_8  and  C_9 
REMARK       I    between atoms: C_9  and  N_10 
ROOT
HETATM    1  C   UNL     1     -42.795  56.757 -56.251  1.00  0.00     0.279 C 
HETATM    2  N   UNL     1     -42.324  58.084 -56.100  1.00  0.00    -0.301 N 
HETATM    3  C   UNL     1     -42.206  58.991 -57.212  1.00  0.00     0.067 A 
HETATM    4  C   UNL     1     -42.065  60.368 -56.984  1.00  0.00     0.079 A 
HETATM    5  C   UNL     1     -41.983  61.231 -58.074  1.00  0.00     0.148 A 
HETATM    6  N   UNL     1     -42.009  60.829 -59.361  1.00  0.00    -0.271 NA
HETATM    7  C   UNL     1     -42.120  59.503 -59.565  1.00  0.00     0.118 A 
HETATM    8  C   UNL     1     -42.215  58.565 -58.545  1.00  0.00     0.051 A 
HETATM    9  N   UNL     1     -42.029  60.898 -55.694  1.00  0.00    -0.323 N 
HETATM   10  C   UNL     1     -42.046  60.128 -54.573  1.00  0.00     0.240 C 
HETATM   11  O   UNL     1     -41.990  60.654 -53.462  1.00  0.00    -0.271 OA
HETATM   12  C   UNL     1     -42.022  58.621 -54.766  1.00  0.00     0.235 C 
HETATM   13  O   UNL     1     -43.365  56.367 -57.274  1.00  0.00    -0.265 OA
HETATM   14  H   UNL     1     -41.981  61.898 -55.545  1.00  0.00     0.169 HD
ENDROOT
BRANCH   1  15
HETATM   15  C   UNL     1     -42.651  55.791 -55.132  1.00  0.00     0.147 A 
HETATM   16  N   UNL     1     -41.835  54.730 -55.129  1.00  0.00    -0.162 NA
HETATM   17  N   UNL     1     -42.004  54.105 -53.923  1.00  0.00    -0.238 N 
HETATM   18  C   UNL     1     -42.965  54.770 -53.164  1.00  0.00     0.035 A 
HETATM   19  C   UNL     1     -43.397  55.830 -53.935  1.00  0.00     0.066 A 
HETATM   20  C   UNL     1     -43.435  54.427 -51.801  1.00  0.00     0.070 C 
BRANCH  17  21
HETATM   21  C   UNL     1     -41.207  52.944 -53.645  1.00  0.00     0.058 A 
HETATM   22  C   UNL     1     -41.261  51.858 -54.539  1.00  0.00     0.032 A 
HETATM   23  C   UNL     1     -40.491  50.707 -54.332  1.00  0.00     0.009 A 
HETATM   24  C   UNL     1     -39.655  50.607 -53.220  1.00  0.00    -0.062 A 
HETATM   25  C   UNL     1     -38.803  49.394 -52.997  1.00  0.00     0.048 C 
HETATM   26  C   UNL     1     -39.598  51.679 -52.325  1.00  0.00     0.009 A 
HETATM   27  C   UNL     1     -40.366  52.834 -52.532  1.00  0.00     0.032 A 
ENDBRANCH  17  21
ENDBRANCH   1  15
TORSDOF 2
ENDMDL
