MODEL 1
REMARK VINA RESULT:      -9.0      0.000      0.000
REMARK  3 active torsions:
REMARK  status: ('A' for Active; 'I' for Inactive)
REMARK    1  A    between atoms: N_4  and  C_5 
REMARK    2  A    between atoms: C_15  and  C_16 
REMARK       I    between atoms: C_16  and  N_17 
REMARK    3  A    between atoms: N_17  and  C_18 
ROOT
HETATM    1  C   UNL     1     -41.335  56.485 -50.805  1.00  0.00     0.073 C 
HETATM    2  C   UNL     1     -41.175  55.412 -51.816  1.00  0.00     0.069 A 
HETATM    3  N   UNL     1     -40.585  54.254 -51.489  1.00  0.00    -0.170 NA
HETATM    4  N   UNL     1     -40.650  53.479 -52.615  1.00  0.00    -0.216 N 
HETATM    5  C   UNL     1     -41.155  54.221 -53.673  1.00  0.00     0.145 A 
HETATM    6  C   UNL     1     -41.534  55.444 -53.175  1.00  0.00     0.087 A 
HETATM    7  N   UNL     1     -41.246  53.912 -54.989  1.00  0.00    -0.349 N 
HETATM    8  C   UNL     1     -41.752  54.871 -55.852  1.00  0.00     0.111 A 
HETATM    9  C   UNL     1     -42.196  56.092 -55.478  1.00  0.00     0.098 A 
HETATM   10  C   UNL     1     -42.116  56.465 -54.023  1.00  0.00     0.205 A 
HETATM   11  O   UNL     1     -42.501  57.553 -53.604  1.00  0.00    -0.286 OA
HETATM   12  H   UNL     1     -40.764  53.126 -55.423  1.00  0.00     0.167 HD
ENDROOT
BRANCH   9  13
HETATM   13  C   UNL     1     -42.717  57.010 -56.543  1.00  0.00     0.261 C 
HETATM   14  N   UNL     1     -41.745  57.525 -57.373  1.00  0.00    -0.320 N 
HETATM   15  H   UNL     1     -40.780  57.311 -57.122  1.00  0.00     0.169 HD
HETATM   16  O   UNL     1     -43.917  57.259 -56.584  1.00  0.00    -0.267 OA
BRANCH  14  17
HETATM   17  C   UNL     1     -41.892  58.366 -58.500  1.00  0.00     0.073 A 
HETATM   18  C   UNL     1     -41.980  57.961 -59.837  1.00  0.00     0.143 A 
HETATM   19  F   UNL     1     -41.873  56.679 -60.207  1.00  0.00    -0.204 F 
HETATM   20  C   UNL     1     -42.126  58.896 -60.865  1.00  0.00     0.044 A 
HETATM   21  C   UNL     1     -42.174  60.257 -60.578  1.00  0.00     0.003 A 
HETATM   22  C   UNL     1     -42.069  60.683 -59.258  1.00  0.00     0.002 A 
HETATM   23  C   UNL     1     -41.925  59.745 -58.230  1.00  0.00     0.033 A 
ENDBRANCH  14  17
ENDBRANCH   9  13
BRANCH   4  24
HETATM   24  C   UNL     1     -40.238  52.117 -52.563  1.00  0.00     0.060 A 
HETATM   25  C   UNL     1     -39.885  51.497 -51.358  1.00  0.00     0.031 A 
HETATM   26  C   UNL     1     -39.490  50.155 -51.348  1.00  0.00     0.002 A 
HETATM   27  C   UNL     1     -39.435  49.430 -52.537  1.00  0.00     0.000 A 
HETATM   28  C   UNL     1     -39.759  50.046 -53.743  1.00  0.00     0.002 A 
HETATM   29  C   UNL     1     -40.150  51.387 -53.760  1.00  0.00     0.031 A 
ENDBRANCH   4  24
TORSDOF 3
ENDMDL
MODEL 2
REMARK VINA RESULT:      -8.9      2.490      8.487
REMARK  3 active torsions:
REMARK  status: ('A' for Active; 'I' for Inactive)
REMARK    1  A    between atoms: N_4  and  C_5 
REMARK    2  A    between atoms: C_15  and  C_16 
REMARK       I    between atoms: C_16  and  N_17 
REMARK    3  A    between atoms: N_17  and  C_18 
ROOT
HETATM    1  C   UNL     1     -42.109  60.148 -53.083  1.00  0.00     0.073 C 
HETATM    2  C   UNL     1     -42.089  59.427 -54.380  1.00  0.00     0.069 A 
HETATM    3  N   UNL     1     -42.254  60.094 -55.530  1.00  0.00    -0.170 NA
HETATM    4  N   UNL     1     -42.128  59.155 -56.518  1.00  0.00    -0.216 N 
HETATM    5  C   UNL     1     -42.027  57.889 -55.961  1.00  0.00     0.145 A 
HETATM    6  C   UNL     1     -41.959  58.043 -54.597  1.00  0.00     0.087 A 
HETATM    7  N   UNL     1     -42.042  56.671 -56.555  1.00  0.00    -0.349 N 
HETATM    8  C   UNL     1     -41.976  55.549 -55.745  1.00  0.00     0.111 A 
HETATM    9  C   UNL     1     -41.864  55.570 -54.397  1.00  0.00     0.098 A 
HETATM   10  C   UNL     1     -41.838  56.907 -53.707  1.00  0.00     0.205 A 
HETATM   11  O   UNL     1     -41.736  57.011 -52.487  1.00  0.00    -0.286 OA
HETATM   12  H   UNL     1     -42.327  56.513 -57.520  1.00  0.00     0.167 HD
ENDROOT
BRANCH   9  13
HETATM   13  C   UNL     1     -41.801  54.260 -53.672  1.00  0.00     0.261 C 
HETATM   14  N   UNL     1     -40.684  53.506 -53.961  1.00  0.00    -0.320 N 
HETATM   15  H   UNL     1     -40.078  53.864 -54.699  1.00  0.00     0.169 HD
HETATM   16  O   UNL     1     -42.721  53.943 -52.928  1.00  0.00    -0.267 OA
BRANCH  14  17
HETATM   17  C   UNL     1     -40.287  52.261 -53.420  1.00  0.00     0.073 A 
HETATM   18  C   UNL     1     -39.832  52.026 -52.117  1.00  0.00     0.143 A 
HETATM   19  F   UNL     1     -39.666  53.011 -51.226  1.00  0.00    -0.204 F 
HETATM   20  C   UNL     1     -39.469  50.743 -51.701  1.00  0.00     0.044 A 
HETATM   21  C   UNL     1     -39.542  49.669 -52.584  1.00  0.00     0.003 A 
HETATM   22  C   UNL     1     -39.973  49.884 -53.890  1.00  0.00     0.002 A 
HETATM   23  C   UNL     1     -40.337  51.169 -54.304  1.00  0.00     0.033 A 
ENDBRANCH  14  17
ENDBRANCH   9  13
BRANCH   4  24
HETATM   24  C   UNL     1     -42.105  59.562 -57.883  1.00  0.00     0.060 A 
HETATM   25  C   UNL     1     -42.620  58.752 -58.903  1.00  0.00     0.031 A 
HETATM   26  C   UNL     1     -42.583  59.189 -60.232  1.00  0.00     0.002 A 
HETATM   27  C   UNL     1     -42.025  60.427 -60.550  1.00  0.00     0.000 A 
HETATM   28  C   UNL     1     -41.488  61.226 -59.544  1.00  0.00     0.002 A 
HETATM   29  C   UNL     1     -41.518  60.794 -58.217  1.00  0.00     0.031 A 
ENDBRANCH   4  24
TORSDOF 3
ENDMDL
MODEL 3
REMARK VINA RESULT:      -8.8      3.184      3.775
REMARK  3 active torsions:
REMARK  status: ('A' for Active; 'I' for Inactive)
REMARK    1  A    between atoms: N_4  and  C_5 
REMARK    2  A    between atoms: C_15  and  C_16 
REMARK       I    between atoms: C_16  and  N_17 
REMARK    3  A    between atoms: N_17  and  C_18 
ROOT
HETATM    1  C   UNL     1     -44.121  57.452 -52.350  1.00  0.00     0.073 C 
HETATM    2  C   UNL     1     -43.356  56.481 -53.172  1.00  0.00     0.069 A 
HETATM    3  N   UNL     1     -42.486  55.641 -52.595  1.00  0.00    -0.170 NA
HETATM    4  N   UNL     1     -42.005  54.860 -53.610  1.00  0.00    -0.216 N 
HETATM    5  C   UNL     1     -42.480  55.319 -54.830  1.00  0.00     0.145 A 
HETATM    6  C   UNL     1     -43.376  56.328 -54.569  1.00  0.00     0.087 A 
HETATM    7  N   UNL     1     -42.145  54.952 -56.090  1.00  0.00    -0.349 N 
HETATM    8  C   UNL     1     -42.744  55.621 -57.146  1.00  0.00     0.111 A 
HETATM    9  C   UNL     1     -43.669  56.599 -57.020  1.00  0.00     0.098 A 
HETATM   10  C   UNL     1     -44.069  57.026 -55.633  1.00  0.00     0.205 A 
HETATM   11  O   UNL     1     -44.904  57.904 -55.435  1.00  0.00    -0.286 OA
HETATM   12  H   UNL     1     -41.327  54.390 -56.320  1.00  0.00     0.167 HD
ENDROOT
BRANCH   9  13
HETATM   13  C   UNL     1     -44.220  57.216 -58.270  1.00  0.00     0.261 C 
HETATM   14  N   UNL     1     -45.537  56.899 -58.526  1.00  0.00    -0.320 N 
HETATM   15  H   UNL     1     -45.963  56.212 -57.905  1.00  0.00     0.169 HD
HETATM   16  O   UNL     1     -43.487  57.905 -58.971  1.00  0.00    -0.267 OA
BRANCH  14  17
HETATM   17  C   UNL     1     -46.372  57.349 -59.575  1.00  0.00     0.073 A 
HETATM   18  C   UNL     1     -46.727  58.675 -59.846  1.00  0.00     0.143 A 
HETATM   19  F   UNL     1     -46.340  59.695 -59.072  1.00  0.00    -0.204 F 
HETATM   20  C   UNL     1     -47.565  58.991 -60.920  1.00  0.00     0.044 A 
HETATM   21  C   UNL     1     -48.073  57.985 -61.736  1.00  0.00     0.003 A 
HETATM   22  C   UNL     1     -47.748  56.658 -61.473  1.00  0.00     0.002 A 
HETATM   23  C   UNL     1     -46.909  56.344 -60.398  1.00  0.00     0.033 A 
ENDBRANCH  14  17
ENDBRANCH   9  13
BRANCH   4  24
HETATM   24  C   UNL     1     -41.158  53.754 -53.313  1.00  0.00     0.060 A 
HETATM   25  C   UNL     1     -40.817  52.803 -54.283  1.00  0.00     0.031 A 
HETATM   26  C   UNL     1     -39.978  51.733 -53.952  1.00  0.00     0.002 A 
HETATM   27  C   UNL     1     -39.484  51.602 -52.656  1.00  0.00     0.000 A 
HETATM   28  C   UNL     1     -39.838  52.529 -51.679  1.00  0.00     0.002 A 
HETATM   29  C   UNL     1     -40.679  53.597 -52.002  1.00  0.00     0.031 A 
ENDBRANCH   4  24
TORSDOF 3
ENDMDL
MODEL 4
REMARK VINA RESULT:      -8.7      4.277      6.439
REMARK  3 active torsions:
REMARK  status: ('A' for Active; 'I' for Inactive)
REMARK    1  A    between atoms: N_4  and  C_5 
REMARK    2  A    between atoms: C_15  and  C_16 
REMARK       I    between atoms: C_16  and  N_17 
REMARK    3  A    between atoms: N_17  and  C_18 
ROOT
HETATM    1  C   UNL     1     -42.418  56.698 -55.874  1.00  0.00     0.073 C 
HETATM    2  C   UNL     1     -41.901  56.002 -54.669  1.00  0.00     0.069 A 
HETATM    3  N   UNL     1     -41.632  54.690 -54.706  1.00  0.00    -0.170 NA
HETATM    4  N   UNL     1     -41.130  54.384 -53.471  1.00  0.00    -0.216 N 
HETATM    5  C   UNL     1     -41.225  55.486 -52.634  1.00  0.00     0.145 A 
HETATM    6  C   UNL     1     -41.677  56.541 -53.390  1.00  0.00     0.087 A 
HETATM    7  N   UNL     1     -40.996  55.592 -51.302  1.00  0.00    -0.349 N 
HETATM    8  C   UNL     1     -41.222  56.818 -50.696  1.00  0.00     0.111 A 
HETATM    9  C   UNL     1     -41.625  57.938 -51.338  1.00  0.00     0.098 A 
HETATM   10  C   UNL     1     -41.881  57.856 -52.819  1.00  0.00     0.205 A 
HETATM   11  O   UNL     1     -42.246  58.829 -53.473  1.00  0.00    -0.286 OA
HETATM   12  H   UNL     1     -40.896  54.794 -50.677  1.00  0.00     0.167 HD
ENDROOT
BRANCH   9  13
HETATM   13  C   UNL     1     -41.818  59.185 -50.529  1.00  0.00     0.261 C 
HETATM   14  N   UNL     1     -43.000  59.847 -50.781  1.00  0.00    -0.320 N 
HETATM   15  H   UNL     1     -43.565  59.482 -51.548  1.00  0.00     0.169 HD
HETATM   16  O   UNL     1     -40.936  59.538 -49.754  1.00  0.00    -0.267 OA
BRANCH  14  17
HETATM   17  C   UNL     1     -43.518  61.009 -50.164  1.00  0.00     0.073 A 
HETATM   18  C   UNL     1     -44.643  61.080 -49.334  1.00  0.00     0.143 A 
HETATM   19  F   UNL     1     -45.411  60.016 -49.073  1.00  0.00    -0.204 F 
HETATM   20  C   UNL     1     -45.054  62.296 -48.781  1.00  0.00     0.044 A 
HETATM   21  C   UNL     1     -44.355  63.467 -49.057  1.00  0.00     0.003 A 
HETATM   22  C   UNL     1     -43.246  63.423 -49.896  1.00  0.00     0.002 A 
HETATM   23  C   UNL     1     -42.835  62.204 -50.447  1.00  0.00     0.033 A 
ENDBRANCH  14  17
ENDBRANCH   9  13
BRANCH   4  24
HETATM   24  C   UNL     1     -40.602  53.086 -53.221  1.00  0.00     0.060 A 
HETATM   25  C   UNL     1     -40.116  52.715 -51.961  1.00  0.00     0.031 A 
HETATM   26  C   UNL     1     -39.610  51.427 -51.755  1.00  0.00     0.002 A 
HETATM   27  C   UNL     1     -39.577  50.508 -52.803  1.00  0.00     0.000 A 
HETATM   28  C   UNL     1     -40.034  50.877 -54.065  1.00  0.00     0.002 A 
HETATM   29  C   UNL     1     -40.536  52.163 -54.279  1.00  0.00     0.031 A 
ENDBRANCH   4  24
TORSDOF 3
ENDMDL
MODEL 5
REMARK VINA RESULT:      -8.6      2.138      2.445
REMARK  3 active torsions:
REMARK  status: ('A' for Active; 'I' for Inactive)
REMARK    1  A    between atoms: N_4  and  C_5 
REMARK    2  A    between atoms: C_15  and  C_16 
REMARK       I    between atoms: C_16  and  N_17 
REMARK    3  A    between atoms: N_17  and  C_18 
ROOT
HETATM    1  C   UNL     1     -41.353  56.475 -50.764  1.00  0.00     0.073 C 
HETATM    2  C   UNL     1     -41.268  55.509 -51.887  1.00  0.00     0.069 A 
HETATM    3  N   UNL     1     -40.635  54.338 -51.728  1.00  0.00    -0.170 NA
HETATM    4  N   UNL     1     -40.788  53.675 -52.915  1.00  0.00    -0.216 N 
HETATM    5  C   UNL     1     -41.395  54.504 -53.847  1.00  0.00     0.145 A 
HETATM    6  C   UNL     1     -41.747  55.664 -53.200  1.00  0.00     0.087 A 
HETATM    7  N   UNL     1     -41.598  54.322 -55.174  1.00  0.00    -0.349 N 
HETATM    8  C   UNL     1     -42.192  55.349 -55.891  1.00  0.00     0.111 A 
HETATM    9  C   UNL     1     -42.619  56.518 -55.362  1.00  0.00     0.098 A 
HETATM   10  C   UNL     1     -42.415  56.749 -53.889  1.00  0.00     0.205 A 
HETATM   11  O   UNL     1     -42.778  57.782 -53.333  1.00  0.00    -0.286 OA
HETATM   12  H   UNL     1     -41.145  53.593 -55.724  1.00  0.00     0.167 HD
ENDROOT
BRANCH   9  13
HETATM   13  C   UNL     1     -43.246  57.522 -56.281  1.00  0.00     0.261 C 
HETATM   14  N   UNL     1     -44.363  57.063 -56.946  1.00  0.00    -0.320 N 
HETATM   15  H   UNL     1     -44.585  56.076 -56.822  1.00  0.00     0.169 HD
HETATM   16  O   UNL     1     -42.729  58.627 -56.403  1.00  0.00    -0.267 OA
BRANCH  14  17
HETATM   17  C   UNL     1     -45.217  57.757 -57.834  1.00  0.00     0.073 A 
HETATM   18  C   UNL     1     -45.016  57.947 -59.206  1.00  0.00     0.143 A 
HETATM   19  F   UNL     1     -43.916  57.519 -59.836  1.00  0.00    -0.204 F 
HETATM   20  C   UNL     1     -45.941  58.655 -59.978  1.00  0.00     0.044 A 
HETATM   21  C   UNL     1     -47.080  59.197 -59.391  1.00  0.00     0.003 A 
HETATM   22  C   UNL     1     -47.290  59.037 -58.025  1.00  0.00     0.002 A 
HETATM   23  C   UNL     1     -46.364  58.327 -57.254  1.00  0.00     0.033 A 
ENDBRANCH  14  17
ENDBRANCH   9  13
BRANCH   4  24
HETATM   24  C   UNL     1     -40.353  52.325 -53.034  1.00  0.00     0.060 A 
HETATM   25  C   UNL     1     -40.405  51.636 -54.252  1.00  0.00     0.031 A 
HETATM   26  C   UNL     1     -39.964  50.310 -54.329  1.00  0.00     0.002 A 
HETATM   27  C   UNL     1     -39.480  49.664 -53.193  1.00  0.00     0.000 A 
HETATM   28  C   UNL     1     -39.449  50.333 -51.972  1.00  0.00     0.002 A 
HETATM   29  C   UNL     1     -39.892  51.655 -51.888  1.00  0.00     0.031 A 
ENDBRANCH   4  24
TORSDOF 3
ENDMDL
MODEL 6
REMARK VINA RESULT:      -8.6      5.060      7.365
REMARK  3 active torsions:
REMARK  status: ('A' for Active; 'I' for Inactive)
REMARK    1  A    between atoms: N_4  and  C_5 
REMARK    2  A    between atoms: C_15  and  C_16 
REMARK       I    between atoms: C_16  and  N_17 
REMARK    3  A    between atoms: N_17  and  C_18 
ROOT
HETATM    1  C   UNL     1     -41.971  58.820 -55.364  1.00  0.00     0.073 C 
HETATM    2  C   UNL     1     -42.105  57.714 -54.383  1.00  0.00     0.069 A 
HETATM    3  N   UNL     1     -41.503  56.537 -54.602  1.00  0.00    -0.170 NA
HETATM    4  N   UNL     1     -41.777  55.775 -53.499  1.00  0.00    -0.216 N 
HETATM    5  C   UNL     1     -42.667  56.443 -52.670  1.00  0.00     0.145 A 
HETATM    6  C   UNL     1     -42.857  57.698 -53.195  1.00  0.00     0.087 A 
HETATM    7  N   UNL     1     -43.322  56.010 -51.566  1.00  0.00    -0.349 N 
HETATM    8  C   UNL     1     -44.206  56.880 -50.948  1.00  0.00     0.111 A 
HETATM    9  C   UNL     1     -44.447  58.151 -51.343  1.00  0.00     0.098 A 
HETATM   10  C   UNL     1     -43.730  58.665 -52.562  1.00  0.00     0.205 A 
HETATM   11  O   UNL     1     -43.892  59.808 -52.982  1.00  0.00    -0.286 OA
HETATM   12  H   UNL     1     -43.390  55.031 -51.292  1.00  0.00     0.167 HD
ENDROOT
BRANCH   9  13
HETATM   13  C   UNL     1     -45.434  58.960 -50.557  1.00  0.00     0.261 C 
HETATM   14  N   UNL     1     -44.875  59.999 -49.843  1.00  0.00    -0.320 N 
HETATM   15  H   UNL     1     -43.856  60.048 -49.844  1.00  0.00     0.169 HD
HETATM   16  O   UNL     1     -46.617  58.641 -50.573  1.00  0.00    -0.267 OA
BRANCH  14  17
HETATM   17  C   UNL     1     -45.516  60.979 -49.051  1.00  0.00     0.073 A 
HETATM   18  C   UNL     1     -46.289  62.050 -49.514  1.00  0.00     0.143 A 
HETATM   19  F   UNL     1     -46.463  62.298 -50.818  1.00  0.00    -0.204 F 
HETATM   20  C   UNL     1     -46.873  62.955 -48.624  1.00  0.00     0.044 A 
HETATM   21  C   UNL     1     -46.685  62.814 -47.253  1.00  0.00     0.003 A 
HETATM   22  C   UNL     1     -45.904  61.769 -46.771  1.00  0.00     0.002 A 
HETATM   23  C   UNL     1     -45.322  60.863 -47.664  1.00  0.00     0.033 A 
ENDBRANCH  14  17
ENDBRANCH   9  13
BRANCH   4  24
HETATM   24  C   UNL     1     -41.158  54.502 -53.344  1.00  0.00     0.060 A 
HETATM   25  C   UNL     1     -40.803  54.002 -52.086  1.00  0.00     0.031 A 
HETATM   26  C   UNL     1     -40.199  52.744 -51.975  1.00  0.00     0.002 A 
HETATM   27  C   UNL     1     -39.939  51.986 -53.116  1.00  0.00     0.000 A 
HETATM   28  C   UNL     1     -40.265  52.488 -54.373  1.00  0.00     0.002 A 
HETATM   29  C   UNL     1     -40.863  53.745 -54.490  1.00  0.00     0.031 A 
ENDBRANCH   4  24
TORSDOF 3
ENDMDL
MODEL 7
REMARK VINA RESULT:      -8.3      4.610      6.257
REMARK  3 active torsions:
REMARK  status: ('A' for Active; 'I' for Inactive)
REMARK    1  A    between atoms: N_4  and  C_5 
REMARK    2  A    between atoms: C_15  and  C_16 
REMARK       I    between atoms: C_16  and  N_17 
REMARK    3  A    between atoms: N_17  and  C_18 
ROOT
HETATM    1  C   UNL     1     -42.885  56.360 -56.554  1.00  0.00     0.073 C 
HETATM    2  C   UNL     1     -42.609  55.709 -55.249  1.00  0.00     0.069 A 
HETATM    3  N   UNL     1     -41.935  54.552 -55.198  1.00  0.00    -0.170 NA
HETATM    4  N   UNL     1     -41.807  54.262 -53.867  1.00  0.00    -0.216 N 
HETATM    5  C   UNL     1     -42.529  55.173 -53.111  1.00  0.00     0.145 A 
HETATM    6  C   UNL     1     -43.016  56.129 -53.970  1.00  0.00     0.087 A 
HETATM    7  N   UNL     1     -42.810  55.179 -51.785  1.00  0.00    -0.349 N 
HETATM    8  C   UNL     1     -43.609  56.197 -51.290  1.00  0.00     0.111 A 
HETATM    9  C   UNL     1     -44.112  57.215 -52.025  1.00  0.00     0.098 A 
HETATM   10  C   UNL     1     -43.814  57.242 -53.500  1.00  0.00     0.205 A 
HETATM   11  O   UNL     1     -44.231  58.134 -54.234  1.00  0.00    -0.286 OA
HETATM   12  H   UNL     1     -42.673  54.376 -51.172  1.00  0.00     0.167 HD
ENDROOT
BRANCH   9  13
HETATM   13  C   UNL     1     -44.958  58.237 -51.329  1.00  0.00     0.261 C 
HETATM   14  N   UNL     1     -44.593  59.542 -51.582  1.00  0.00    -0.320 N 
HETATM   15  H   UNL     1     -43.740  59.673 -52.126  1.00  0.00     0.169 HD
HETATM   16  O   UNL     1     -45.860  57.865 -50.588  1.00  0.00    -0.267 OA
BRANCH  14  17
HETATM   17  C   UNL     1     -45.202  60.739 -51.139  1.00  0.00     0.073 A 
HETATM   18  C   UNL     1     -44.850  61.483 -50.007  1.00  0.00     0.143 A 
HETATM   19  F   UNL     1     -43.893  61.090 -49.158  1.00  0.00    -0.204 F 
HETATM   20  C   UNL     1     -45.534  62.656 -49.674  1.00  0.00     0.044 A 
HETATM   21  C   UNL     1     -46.592  63.101 -50.462  1.00  0.00     0.003 A 
HETATM   22  C   UNL     1     -46.971  62.366 -51.580  1.00  0.00     0.002 A 
HETATM   23  C   UNL     1     -46.284  61.194 -51.912  1.00  0.00     0.033 A 
ENDBRANCH  14  17
ENDBRANCH   9  13
BRANCH   4  24
HETATM   24  C   UNL     1     -41.005  53.160 -53.455  1.00  0.00     0.060 A 
HETATM   25  C   UNL     1     -40.655  52.130 -54.337  1.00  0.00     0.031 A 
HETATM   26  C   UNL     1     -39.861  51.066 -53.895  1.00  0.00     0.002 A 
HETATM   27  C   UNL     1     -39.421  51.019 -52.574  1.00  0.00     0.000 A 
HETATM   28  C   UNL     1     -39.785  52.026 -51.683  1.00  0.00     0.002 A 
HETATM   29  C   UNL     1     -40.582  53.088 -52.117  1.00  0.00     0.031 A 
ENDBRANCH   4  24
TORSDOF 3
ENDMDL
MODEL 8
REMARK VINA RESULT:      -8.2      2.539      8.977
REMARK  3 active torsions:
REMARK  status: ('A' for Active; 'I' for Inactive)
REMARK    1  A    between atoms: N_4  and  C_5 
REMARK    2  A    between atoms: C_15  and  C_16 
REMARK       I    between atoms: C_16  and  N_17 
REMARK    3  A    between atoms: N_17  and  C_18 
ROOT
HETATM    1  C   UNL     1     -43.479  56.207 -59.787  1.00  0.00     0.073 C 
HETATM    2  C   UNL     1     -43.090  57.190 -58.745  1.00  0.00     0.069 A 
HETATM    3  N   UNL     1     -42.915  58.481 -59.062  1.00  0.00    -0.170 NA
HETATM    4  N   UNL     1     -42.622  59.110 -57.883  1.00  0.00    -0.216 N 
HETATM    5  C   UNL     1     -42.479  58.175 -56.868  1.00  0.00     0.145 A 
HETATM    6  C   UNL     1     -42.813  56.948 -57.388  1.00  0.00     0.087 A 
HETATM    7  N   UNL     1     -42.045  58.330 -55.594  1.00  0.00    -0.349 N 
HETATM    8  C   UNL     1     -41.949  57.203 -54.795  1.00  0.00     0.111 A 
HETATM    9  C   UNL     1     -42.287  55.950 -55.176  1.00  0.00     0.098 A 
HETATM   10  C   UNL     1     -42.780  55.744 -56.583  1.00  0.00     0.205 A 
HETATM   11  O   UNL     1     -43.109  54.638 -57.005  1.00  0.00    -0.286 OA
HETATM   12  H   UNL     1     -41.570  59.165 -55.253  1.00  0.00     0.167 HD
ENDROOT
BRANCH   9  13
HETATM   13  C   UNL     1     -42.124  54.841 -54.182  1.00  0.00     0.261 C 
HETATM   14  N   UNL     1     -41.002  54.064 -54.378  1.00  0.00    -0.320 N 
HETATM   15  H   UNL     1     -40.462  54.259 -55.221  1.00  0.00     0.169 HD
HETATM   16  O   UNL     1     -42.978  54.681 -53.318  1.00  0.00    -0.267 OA
BRANCH  14  17
HETATM   17  C   UNL     1     -40.521  52.984 -53.602  1.00  0.00     0.073 A 
HETATM   18  C   UNL     1     -40.196  53.016 -52.241  1.00  0.00     0.143 A 
HETATM   19  F   UNL     1     -40.258  54.138 -51.514  1.00  0.00    -0.204 F 
HETATM   20  C   UNL     1     -39.729  51.874 -51.585  1.00  0.00     0.044 A 
HETATM   21  C   UNL     1     -39.566  50.680 -52.280  1.00  0.00     0.003 A 
HETATM   22  C   UNL     1     -39.864  50.631 -53.638  1.00  0.00     0.002 A 
HETATM   23  C   UNL     1     -40.333  51.775 -54.293  1.00  0.00     0.033 A 
ENDBRANCH  14  17
ENDBRANCH   9  13
BRANCH   4  24
HETATM   24  C   UNL     1     -42.522  60.530 -57.843  1.00  0.00     0.060 A 
HETATM   25  C   UNL     1     -43.568  61.331 -57.369  1.00  0.00     0.031 A 
HETATM   26  C   UNL     1     -43.429  62.724 -57.342  1.00  0.00     0.002 A 
HETATM   27  C   UNL     1     -42.254  63.322 -57.794  1.00  0.00     0.000 A 
HETATM   28  C   UNL     1     -41.219  62.533 -58.291  1.00  0.00     0.002 A 
HETATM   29  C   UNL     1     -41.353  61.143 -58.325  1.00  0.00     0.031 A 
ENDBRANCH   4  24
TORSDOF 3
ENDMDL
MODEL 9
REMARK VINA RESULT:      -8.0      3.052      8.501
REMARK  3 active torsions:
REMARK  status: ('A' for Active; 'I' for Inactive)
REMARK    1  A    between atoms: N_4  and  C_5 
REMARK    2  A    between atoms: C_15  and  C_16 
REMARK       I    between atoms: C_16  and  N_17 
REMARK    3  A    between atoms: N_17  and  C_18 
ROOT
HETATM    1  C   UNL     1     -43.769  59.198 -53.161  1.00  0.00     0.073 C 
HETATM    2  C   UNL     1     -43.913  58.459 -54.440  1.00  0.00     0.069 A 
HETATM    3  N   UNL     1     -44.832  58.834 -55.341  1.00  0.00    -0.170 NA
HETATM    4  N   UNL     1     -44.662  57.994 -56.408  1.00  0.00    -0.216 N 
HETATM    5  C   UNL     1     -43.729  57.015 -56.097  1.00  0.00     0.145 A 
HETATM    6  C   UNL     1     -43.209  57.317 -54.862  1.00  0.00     0.087 A 
HETATM    7  N   UNL     1     -43.371  55.903 -56.784  1.00  0.00    -0.349 N 
HETATM    8  C   UNL     1     -42.437  55.055 -56.212  1.00  0.00     0.111 A 
HETATM    9  C   UNL     1     -41.823  55.264 -55.025  1.00  0.00     0.098 A 
HETATM   10  C   UNL     1     -42.193  56.493 -54.240  1.00  0.00     0.205 A 
HETATM   11  O   UNL     1     -41.679  56.755 -53.156  1.00  0.00    -0.286 OA
HETATM   12  H   UNL     1     -43.897  55.527 -57.572  1.00  0.00     0.167 HD
ENDROOT
BRANCH   9  13
HETATM   13  C   UNL     1     -40.831  54.244 -54.553  1.00  0.00     0.261 C 
HETATM   14  N   UNL     1     -41.271  53.470 -53.501  1.00  0.00    -0.320 N 
HETATM   15  H   UNL     1     -42.169  53.732 -53.095  1.00  0.00     0.169 HD
HETATM   16  O   UNL     1     -39.730  54.188 -55.087  1.00  0.00    -0.267 OA
BRANCH  14  17
HETATM   17  C   UNL     1     -40.621  52.392 -52.856  1.00  0.00     0.073 A 
HETATM   18  C   UNL     1     -40.110  51.242 -53.468  1.00  0.00     0.143 A 
HETATM   19  F   UNL     1     -40.241  51.007 -54.779  1.00  0.00    -0.204 F 
HETATM   20  C   UNL     1     -39.484  50.243 -52.716  1.00  0.00     0.044 A 
HETATM   21  C   UNL     1     -39.368  50.371 -51.335  1.00  0.00     0.003 A 
HETATM   22  C   UNL     1     -39.885  51.498 -50.705  1.00  0.00     0.002 A 
HETATM   23  C   UNL     1     -40.510  52.497 -51.459  1.00  0.00     0.033 A 
ENDBRANCH  14  17
ENDBRANCH   9  13
BRANCH   4  24
HETATM   24  C   UNL     1     -45.392  58.218 -57.609  1.00  0.00     0.060 A 
HETATM   25  C   UNL     1     -44.797  58.085 -58.870  1.00  0.00     0.031 A 
HETATM   26  C   UNL     1     -45.550  58.309 -60.029  1.00  0.00     0.002 A 
HETATM   27  C   UNL     1     -46.892  58.675 -59.935  1.00  0.00     0.000 A 
HETATM   28  C   UNL     1     -47.484  58.834 -58.684  1.00  0.00     0.002 A 
HETATM   29  C   UNL     1     -46.736  58.616 -57.525  1.00  0.00     0.031 A 
ENDBRANCH   4  24
TORSDOF 3
ENDMDL
MODEL 10
REMARK VINA RESULT:      -7.9      2.311      3.040
REMARK  3 active torsions:
REMARK  status: ('A' for Active; 'I' for Inactive)
REMARK    1  A    between atoms: N_4  and  C_5 
REMARK    2  A    between atoms: C_15  and  C_16 
REMARK       I    between atoms: C_16  and  N_17 
REMARK    3  A    between atoms: N_17  and  C_18 
ROOT
HETATM    1  C   UNL     1     -41.488  59.023 -53.522  1.00  0.00     0.073 C 
HETATM    2  C   UNL     1     -41.524  57.643 -54.066  1.00  0.00     0.069 A 
HETATM    3  N   UNL     1     -40.858  56.655 -53.453  1.00  0.00    -0.170 NA
HETATM    4  N   UNL     1     -41.144  55.523 -54.168  1.00  0.00    -0.216 N 
HETATM    5  C   UNL     1     -41.874  55.849 -55.301  1.00  0.00     0.145 A 
HETATM    6  C   UNL     1     -42.163  57.191 -55.234  1.00  0.00     0.087 A 
HETATM    7  N   UNL     1     -42.235  55.080 -56.357  1.00  0.00    -0.349 N 
HETATM    8  C   UNL     1     -42.928  55.681 -57.396  1.00  0.00     0.111 A 
HETATM    9  C   UNL     1     -43.307  56.978 -57.427  1.00  0.00     0.098 A 
HETATM   10  C   UNL     1     -42.928  57.859 -56.267  1.00  0.00     0.205 A 
HETATM   11  O   UNL     1     -43.237  59.046 -56.220  1.00  0.00    -0.286 OA
HETATM   12  H   UNL     1     -41.841  54.161 -56.552  1.00  0.00     0.167 HD
ENDROOT
BRANCH   9  13
HETATM   13  C   UNL     1     -44.057  57.466 -58.630  1.00  0.00     0.261 C 
HETATM   14  N   UNL     1     -43.765  58.764 -58.993  1.00  0.00    -0.320 N 
HETATM   15  H   UNL     1     -43.155  59.281 -58.359  1.00  0.00     0.169 HD
HETATM   16  O   UNL     1     -44.870  56.725 -59.170  1.00  0.00    -0.267 OA
BRANCH  14  17
HETATM   17  C   UNL     1     -44.243  59.508 -60.095  1.00  0.00     0.073 A 
HETATM   18  C   UNL     1     -45.574  59.862 -60.347  1.00  0.00     0.143 A 
HETATM   19  F   UNL     1     -46.583  59.465 -59.562  1.00  0.00    -0.204 F 
HETATM   20  C   UNL     1     -45.920  60.605 -61.479  1.00  0.00     0.044 A 
HETATM   21  C   UNL     1     -44.943  61.000 -62.387  1.00  0.00     0.003 A 
HETATM   22  C   UNL     1     -43.617  60.643 -62.167  1.00  0.00     0.002 A 
HETATM   23  C   UNL     1     -43.272  59.900 -61.033  1.00  0.00     0.033 A 
ENDBRANCH  14  17
ENDBRANCH   9  13
BRANCH   4  24
HETATM   24  C   UNL     1     -40.705  54.255 -53.692  1.00  0.00     0.060 A 
HETATM   25  C   UNL     1     -40.638  53.962 -52.324  1.00  0.00     0.031 A 
HETATM   26  C   UNL     1     -40.206  52.701 -51.897  1.00  0.00     0.002 A 
HETATM   27  C   UNL     1     -39.830  51.734 -52.828  1.00  0.00     0.000 A 
HETATM   28  C   UNL     1     -39.870  52.026 -54.189  1.00  0.00     0.002 A 
HETATM   29  C   UNL     1     -40.296  53.284 -54.621  1.00  0.00     0.031 A 
ENDBRANCH   4  24
TORSDOF 3
ENDMDL
