MODEL 1
REMARK VINA RESULT:      -8.0      0.000      0.000
REMARK  6 active torsions:
REMARK  status: ('A' for Active; 'I' for Inactive)
REMARK    1  A    between atoms: C_2  and  C_3 
REMARK    2  A    between atoms: C_2  and  C_9 
REMARK    3  A    between atoms: C_9  and  N_10 
REMARK       I    between atoms: N_10  and  C_11 
REMARK       I    between atoms: C_11  and  N_12 
REMARK    4  A    between atoms: N_12  and  C_13 
REMARK    5  A    between atoms: C_16  and  N_17 
REMARK       I    between atoms: N_17  and  C_18 
REMARK    6  A    between atoms: C_18  and  C_19 
ROOT
HETATM    1  N   UNL     1     -41.434  55.884 -53.015  1.00  0.00    -0.342 N 
HETATM    2  C   UNL     1     -42.241  56.415 -52.030  1.00  0.00     0.320 C 
HETATM    3  N   UNL     1     -42.812  57.599 -52.443  1.00  0.00    -0.309 N 
HETATM    4  O   UNL     1     -42.414  55.857 -50.955  1.00  0.00    -0.247 OA
HETATM    5  H   UNL     1     -41.054  56.526 -53.696  1.00  0.00     0.164 HD
HETATM    6  H   UNL     1     -42.812  57.753 -53.439  1.00  0.00     0.170 HD
ENDROOT
BRANCH   3   7
HETATM    7  C   UNL     1     -43.597  58.472 -51.663  1.00  0.00     0.036 A 
HETATM    8  C   UNL     1     -44.939  58.239 -51.361  1.00  0.00     0.032 A 
HETATM    9  C   UNL     1     -45.666  59.145 -50.576  1.00  0.00     0.032 A 
HETATM   10  C   UNL     1     -45.065  60.300 -50.082  1.00  0.00     0.035 A 
HETATM   11  C   UNL     1     -43.715  60.528 -50.373  1.00  0.00     0.032 A 
HETATM   12  C   UNL     1     -42.985  59.618 -51.148  1.00  0.00     0.032 A 
BRANCH  10  13
HETATM   13  N   UNL     1     -45.735  61.269 -49.313  1.00  0.00    -0.321 N 
HETATM   14  C   UNL     1     -45.757  61.405 -47.936  1.00  0.00     0.279 C 
HETATM   15  O   UNL     1     -45.133  60.713 -47.139  1.00  0.00    -0.265 OA
HETATM   16  H   UNL     1     -46.285  61.959 -49.813  1.00  0.00     0.169 HD
BRANCH  14  17
HETATM   17  C   UNL     1     -46.618  62.490 -47.495  1.00  0.00     0.142 A 
HETATM   18  O   UNL     1     -47.445  63.110 -48.398  1.00  0.00    -0.317 OA
HETATM   19  C   UNL     1     -48.136  64.061 -47.718  1.00  0.00     0.143 A 
HETATM   20  C   UNL     1     -47.767  64.074 -46.394  1.00  0.00     0.027 A 
HETATM   21  C   UNL     1     -46.789  63.062 -46.248  1.00  0.00     0.045 A 
ENDBRANCH  14  17
ENDBRANCH  10  13
ENDBRANCH   3   7
BRANCH   1  22
HETATM   22  C   UNL     1     -40.708  54.639 -52.807  1.00  0.00     0.138 C 
BRANCH  22  23
HETATM   23  C   UNL     1     -40.868  53.600 -53.960  1.00  0.00    -0.004 C 
HETATM   24  C   UNL     1     -39.998  54.071 -55.153  1.00  0.00     0.021 C 
HETATM   25  C   UNL     1     -42.330  53.605 -54.466  1.00  0.00     0.021 C 
BRANCH  23  26
HETATM   26  C   UNL     1     -40.380  52.212 -53.500  1.00  0.00    -0.046 A 
HETATM   27  C   UNL     1     -40.369  51.127 -54.393  1.00  0.00     0.027 A 
HETATM   28  C   UNL     1     -39.921  49.886 -53.962  1.00  0.00     0.116 A 
HETATM   29  N   UNL     1     -39.476  49.642 -52.715  1.00  0.00    -0.273 NA
HETATM   30  C   UNL     1     -39.495  50.684 -51.861  1.00  0.00     0.116 A 
HETATM   31  C   UNL     1     -39.926  51.960 -52.199  1.00  0.00     0.027 A 
ENDBRANCH  23  26
ENDBRANCH  22  23
ENDBRANCH   1  22
TORSDOF 6
ENDMDL
MODEL 2
REMARK VINA RESULT:      -7.7      2.318     11.618
REMARK  6 active torsions:
REMARK  status: ('A' for Active; 'I' for Inactive)
REMARK    1  A    between atoms: C_2  and  C_3 
REMARK    2  A    between atoms: C_2  and  C_9 
REMARK    3  A    between atoms: C_9  and  N_10 
REMARK       I    between atoms: N_10  and  C_11 
REMARK       I    between atoms: C_11  and  N_12 
REMARK    4  A    between atoms: N_12  and  C_13 
REMARK    5  A    between atoms: C_16  and  N_17 
REMARK       I    between atoms: N_17  and  C_18 
REMARK    6  A    between atoms: C_18  and  C_19 
ROOT
HETATM    1  N   UNL     1     -44.413  60.273 -50.578  1.00  0.00    -0.342 N 
HETATM    2  C   UNL     1     -44.377  58.911 -50.796  1.00  0.00     0.320 C 
HETATM    3  N   UNL     1     -43.086  58.478 -51.003  1.00  0.00    -0.309 N 
HETATM    4  O   UNL     1     -45.385  58.218 -50.775  1.00  0.00    -0.247 OA
HETATM    5  H   UNL     1     -43.651  60.820 -50.951  1.00  0.00     0.164 HD
HETATM    6  H   UNL     1     -42.364  59.107 -50.688  1.00  0.00     0.170 HD
ENDROOT
BRANCH   3   7
HETATM    7  C   UNL     1     -42.683  57.177 -51.368  1.00  0.00     0.036 A 
HETATM    8  C   UNL     1     -43.094  56.026 -50.694  1.00  0.00     0.032 A 
HETATM    9  C   UNL     1     -42.660  54.759 -51.108  1.00  0.00     0.032 A 
HETATM   10  C   UNL     1     -41.807  54.621 -52.200  1.00  0.00     0.035 A 
HETATM   11  C   UNL     1     -41.406  55.773 -52.885  1.00  0.00     0.032 A 
HETATM   12  C   UNL     1     -41.847  57.039 -52.479  1.00  0.00     0.032 A 
BRANCH  10  13
HETATM   13  N   UNL     1     -41.308  53.388 -52.658  1.00  0.00    -0.321 N 
HETATM   14  C   UNL     1     -40.208  52.684 -52.197  1.00  0.00     0.279 C 
HETATM   15  O   UNL     1     -39.500  53.006 -51.250  1.00  0.00    -0.265 OA
HETATM   16  H   UNL     1     -41.797  52.946 -53.429  1.00  0.00     0.169 HD
BRANCH  14  17
HETATM   17  C   UNL     1     -39.957  51.475 -52.963  1.00  0.00     0.142 A 
HETATM   18  O   UNL     1     -39.559  50.332 -52.314  1.00  0.00    -0.317 OA
HETATM   19  C   UNL     1     -39.415  49.367 -53.259  1.00  0.00     0.143 A 
HETATM   20  C   UNL     1     -39.706  49.864 -54.507  1.00  0.00     0.027 A 
HETATM   21  C   UNL     1     -40.055  51.222 -54.318  1.00  0.00     0.045 A 
ENDBRANCH  14  17
ENDBRANCH  10  13
ENDBRANCH   3   7
BRANCH   1  22
HETATM   22  C   UNL     1     -45.672  60.967 -50.348  1.00  0.00     0.138 C 
BRANCH  22  23
HETATM   23  C   UNL     1     -45.682  61.881 -49.083  1.00  0.00    -0.004 C 
HETATM   24  C   UNL     1     -44.381  62.723 -49.090  1.00  0.00     0.021 C 
HETATM   25  C   UNL     1     -45.621  61.006 -47.809  1.00  0.00     0.021 C 
BRANCH  23  26
HETATM   26  C   UNL     1     -46.895  62.832 -49.119  1.00  0.00    -0.046 A 
HETATM   27  C   UNL     1     -47.362  63.346 -50.341  1.00  0.00     0.027 A 
HETATM   28  C   UNL     1     -48.460  64.195 -50.354  1.00  0.00     0.116 A 
HETATM   29  N   UNL     1     -49.133  64.568 -49.250  1.00  0.00    -0.273 NA
HETATM   30  C   UNL     1     -48.678  64.077 -48.080  1.00  0.00     0.116 A 
HETATM   31  C   UNL     1     -47.588  63.223 -47.966  1.00  0.00     0.027 A 
ENDBRANCH  23  26
ENDBRANCH  22  23
ENDBRANCH   1  22
TORSDOF 6
ENDMDL
MODEL 3
REMARK VINA RESULT:      -7.6      2.579     11.150
REMARK  6 active torsions:
REMARK  status: ('A' for Active; 'I' for Inactive)
REMARK    1  A    between atoms: C_2  and  C_3 
REMARK    2  A    between atoms: C_2  and  C_9 
REMARK    3  A    between atoms: C_9  and  N_10 
REMARK       I    between atoms: N_10  and  C_11 
REMARK       I    between atoms: C_11  and  N_12 
REMARK    4  A    between atoms: N_12  and  C_13 
REMARK    5  A    between atoms: C_16  and  N_17 
REMARK       I    between atoms: N_17  and  C_18 
REMARK    6  A    between atoms: C_18  and  C_19 
ROOT
HETATM    1  N   UNL     1     -43.685  60.912 -51.100  1.00  0.00    -0.342 N 
HETATM    2  C   UNL     1     -42.835  59.829 -51.192  1.00  0.00     0.320 C 
HETATM    3  N   UNL     1     -43.253  58.953 -52.169  1.00  0.00    -0.309 N 
HETATM    4  O   UNL     1     -41.837  59.719 -50.491  1.00  0.00    -0.247 OA
HETATM    5  H   UNL     1     -44.634  60.781 -51.419  1.00  0.00     0.164 HD
HETATM    6  H   UNL     1     -43.897  59.335 -52.844  1.00  0.00     0.170 HD
ENDROOT
BRANCH   3   7
HETATM    7  C   UNL     1     -42.697  57.691 -52.462  1.00  0.00     0.036 A 
HETATM    8  C   UNL     1     -41.583  57.512 -53.282  1.00  0.00     0.032 A 
HETATM    9  C   UNL     1     -41.075  56.230 -53.533  1.00  0.00     0.032 A 
HETATM   10  C   UNL     1     -41.674  55.105 -52.970  1.00  0.00     0.035 A 
HETATM   11  C   UNL     1     -42.783  55.284 -52.137  1.00  0.00     0.032 A 
HETATM   12  C   UNL     1     -43.285  56.566 -51.877  1.00  0.00     0.032 A 
BRANCH  10  13
HETATM   13  N   UNL     1     -41.240  53.786 -53.197  1.00  0.00    -0.321 N 
HETATM   14  C   UNL     1     -40.350  53.035 -52.448  1.00  0.00     0.279 C 
HETATM   15  O   UNL     1     -39.820  53.390 -51.401  1.00  0.00    -0.265 OA
HETATM   16  H   UNL     1     -41.608  53.311 -54.014  1.00  0.00     0.169 HD
BRANCH  14  17
HETATM   17  C   UNL     1     -40.092  51.729 -53.031  1.00  0.00     0.142 A 
HETATM   18  O   UNL     1     -39.630  50.711 -52.235  1.00  0.00    -0.317 OA
HETATM   19  C   UNL     1     -39.494  49.616 -53.027  1.00  0.00     0.143 A 
HETATM   20  C   UNL     1     -39.852  49.908 -54.322  1.00  0.00     0.027 A 
HETATM   21  C   UNL     1     -40.238  51.269 -54.326  1.00  0.00     0.045 A 
ENDBRANCH  14  17
ENDBRANCH  10  13
ENDBRANCH   3   7
BRANCH   1  22
HETATM   22  C   UNL     1     -43.458  61.970 -50.126  1.00  0.00     0.138 C 
BRANCH  22  23
HETATM   23  C   UNL     1     -44.759  62.665 -49.614  1.00  0.00    -0.004 C 
HETATM   24  C   UNL     1     -45.969  61.977 -50.296  1.00  0.00     0.021 C 
HETATM   25  C   UNL     1     -44.780  64.138 -50.085  1.00  0.00     0.021 C 
BRANCH  23  26
HETATM   26  C   UNL     1     -44.885  62.504 -48.086  1.00  0.00    -0.046 A 
HETATM   27  C   UNL     1     -45.104  63.625 -47.267  1.00  0.00     0.027 A 
HETATM   28  C   UNL     1     -45.221  63.459 -45.894  1.00  0.00     0.116 A 
HETATM   29  N   UNL     1     -45.146  62.267 -45.273  1.00  0.00    -0.273 NA
HETATM   30  C   UNL     1     -44.930  61.197 -46.063  1.00  0.00     0.116 A 
HETATM   31  C   UNL     1     -44.798  61.263 -47.444  1.00  0.00     0.027 A 
ENDBRANCH  23  26
ENDBRANCH  22  23
ENDBRANCH   1  22
TORSDOF 6
ENDMDL
MODEL 4
REMARK VINA RESULT:      -7.3      7.287      9.619
REMARK  6 active torsions:
REMARK  status: ('A' for Active; 'I' for Inactive)
REMARK    1  A    between atoms: C_2  and  C_3 
REMARK    2  A    between atoms: C_2  and  C_9 
REMARK    3  A    between atoms: C_9  and  N_10 
REMARK       I    between atoms: N_10  and  C_11 
REMARK       I    between atoms: C_11  and  N_12 
REMARK    4  A    between atoms: N_12  and  C_13 
REMARK    5  A    between atoms: C_16  and  N_17 
REMARK       I    between atoms: N_17  and  C_18 
REMARK    6  A    between atoms: C_18  and  C_19 
ROOT
HETATM    1  N   UNL     1     -41.452  55.517 -55.791  1.00  0.00    -0.342 N 
HETATM    2  C   UNL     1     -42.494  55.467 -56.693  1.00  0.00     0.320 C 
HETATM    3  N   UNL     1     -42.568  56.629 -57.429  1.00  0.00    -0.309 N 
HETATM    4  O   UNL     1     -43.217  54.485 -56.804  1.00  0.00    -0.247 OA
HETATM    5  H   UNL     1     -41.140  56.432 -55.497  1.00  0.00     0.164 HD
HETATM    6  H   UNL     1     -41.733  57.193 -57.429  1.00  0.00     0.170 HD
ENDROOT
BRANCH   3   7
HETATM    7  C   UNL     1     -43.572  56.975 -58.357  1.00  0.00     0.036 A 
HETATM    8  C   UNL     1     -43.524  56.629 -59.707  1.00  0.00     0.032 A 
HETATM    9  C   UNL     1     -44.555  57.001 -60.581  1.00  0.00     0.032 A 
HETATM   10  C   UNL     1     -45.651  57.727 -60.119  1.00  0.00     0.035 A 
HETATM   11  C   UNL     1     -45.707  58.063 -58.762  1.00  0.00     0.032 A 
HETATM   12  C   UNL     1     -44.681  57.683 -57.887  1.00  0.00     0.032 A 
BRANCH  10  13
HETATM   13  N   UNL     1     -46.709  58.160 -60.938  1.00  0.00    -0.321 N 
HETATM   14  C   UNL     1     -47.770  57.420 -61.431  1.00  0.00     0.279 C 
HETATM   15  O   UNL     1     -47.995  56.241 -61.182  1.00  0.00    -0.265 OA
HETATM   16  H   UNL     1     -46.708  59.134 -61.222  1.00  0.00     0.169 HD
BRANCH  14  17
HETATM   17  C   UNL     1     -48.636  58.195 -62.303  1.00  0.00     0.142 A 
HETATM   18  O   UNL     1     -49.905  57.747 -62.572  1.00  0.00    -0.317 OA
HETATM   19  C   UNL     1     -50.487  58.663 -63.389  1.00  0.00     0.143 A 
HETATM   20  C   UNL     1     -49.617  59.692 -63.660  1.00  0.00     0.027 A 
HETATM   21  C   UNL     1     -48.424  59.392 -62.961  1.00  0.00     0.045 A 
ENDBRANCH  14  17
ENDBRANCH  10  13
ENDBRANCH   3   7
BRANCH   1  22
HETATM   22  C   UNL     1     -41.181  54.408 -54.888  1.00  0.00     0.138 C 
BRANCH  22  23
HETATM   23  C   UNL     1     -41.575  54.675 -53.401  1.00  0.00    -0.004 C 
HETATM   24  C   UNL     1     -43.118  54.590 -53.293  1.00  0.00     0.021 C 
HETATM   25  C   UNL     1     -41.195  56.124 -53.015  1.00  0.00     0.021 C 
BRANCH  23  26
HETATM   26  C   UNL     1     -40.948  53.608 -52.482  1.00  0.00    -0.046 A 
HETATM   27  C   UNL     1     -41.106  53.685 -51.088  1.00  0.00     0.027 A 
HETATM   28  C   UNL     1     -40.539  52.711 -50.277  1.00  0.00     0.116 A 
HETATM   29  N   UNL     1     -39.833  51.665 -50.744  1.00  0.00    -0.273 NA
HETATM   30  C   UNL     1     -39.679  51.599 -52.081  1.00  0.00     0.116 A 
HETATM   31  C   UNL     1     -40.207  52.525 -52.972  1.00  0.00     0.027 A 
ENDBRANCH  23  26
ENDBRANCH  22  23
ENDBRANCH   1  22
TORSDOF 6
ENDMDL
MODEL 5
REMARK VINA RESULT:      -7.1      6.904      9.194
REMARK  6 active torsions:
REMARK  status: ('A' for Active; 'I' for Inactive)
REMARK    1  A    between atoms: C_2  and  C_3 
REMARK    2  A    between atoms: C_2  and  C_9 
REMARK    3  A    between atoms: C_9  and  N_10 
REMARK       I    between atoms: N_10  and  C_11 
REMARK       I    between atoms: C_11  and  N_12 
REMARK    4  A    between atoms: N_12  and  C_13 
REMARK    5  A    between atoms: C_16  and  N_17 
REMARK       I    between atoms: N_17  and  C_18 
REMARK    6  A    between atoms: C_18  and  C_19 
ROOT
HETATM    1  N   UNL     1     -42.757  54.009 -55.498  1.00  0.00    -0.342 N 
HETATM    2  C   UNL     1     -42.983  55.226 -56.107  1.00  0.00     0.320 C 
HETATM    3  N   UNL     1     -43.279  55.065 -57.442  1.00  0.00    -0.309 N 
HETATM    4  O   UNL     1     -42.939  56.283 -55.492  1.00  0.00    -0.247 OA
HETATM    5  H   UNL     1     -42.457  53.246 -56.089  1.00  0.00     0.164 HD
HETATM    6  H   UNL     1     -43.571  54.138 -57.710  1.00  0.00     0.170 HD
ENDROOT
BRANCH   3   7
HETATM    7  C   UNL     1     -43.452  56.089 -58.396  1.00  0.00     0.036 A 
HETATM    8  C   UNL     1     -42.561  56.325 -59.442  1.00  0.00     0.032 A 
HETATM    9  C   UNL     1     -42.790  57.358 -60.361  1.00  0.00     0.032 A 
HETATM   10  C   UNL     1     -43.914  58.174 -60.248  1.00  0.00     0.035 A 
HETATM   11  C   UNL     1     -44.816  57.930 -59.207  1.00  0.00     0.032 A 
HETATM   12  C   UNL     1     -44.592  56.891 -58.294  1.00  0.00     0.032 A 
BRANCH  10  13
HETATM   13  N   UNL     1     -44.198  59.247 -61.113  1.00  0.00    -0.321 N 
HETATM   14  C   UNL     1     -43.743  60.552 -61.038  1.00  0.00     0.279 C 
HETATM   15  O   UNL     1     -42.950  60.986 -60.209  1.00  0.00    -0.265 OA
HETATM   16  H   UNL     1     -44.821  59.062 -61.892  1.00  0.00     0.169 HD
BRANCH  14  17
HETATM   17  C   UNL     1     -44.305  61.401 -62.075  1.00  0.00     0.142 A 
HETATM   18  O   UNL     1     -43.780  62.651 -62.287  1.00  0.00    -0.317 OA
HETATM   19  C   UNL     1     -44.477  63.207 -63.311  1.00  0.00     0.143 A 
HETATM   20  C   UNL     1     -45.448  62.345 -63.761  1.00  0.00     0.027 A 
HETATM   21  C   UNL     1     -45.339  61.180 -62.966  1.00  0.00     0.045 A 
ENDBRANCH  14  17
ENDBRANCH  10  13
ENDBRANCH   3   7
BRANCH   1  22
HETATM   22  C   UNL     1     -42.412  53.922 -54.087  1.00  0.00     0.138 C 
BRANCH  22  23
HETATM   23  C   UNL     1     -40.878  53.889 -53.799  1.00  0.00    -0.004 C 
HETATM   24  C   UNL     1     -40.595  54.834 -52.603  1.00  0.00     0.021 C 
HETATM   25  C   UNL     1     -40.110  54.480 -55.004  1.00  0.00     0.021 C 
BRANCH  23  26
HETATM   26  C   UNL     1     -40.435  52.461 -53.426  1.00  0.00    -0.046 A 
HETATM   27  C   UNL     1     -40.479  51.428 -54.378  1.00  0.00     0.027 A 
HETATM   28  C   UNL     1     -40.069  50.150 -54.025  1.00  0.00     0.116 A 
HETATM   29  N   UNL     1     -39.613  49.820 -52.802  1.00  0.00    -0.273 NA
HETATM   30  C   UNL     1     -39.579  50.812 -51.891  1.00  0.00     0.116 A 
HETATM   31  C   UNL     1     -39.968  52.120 -52.149  1.00  0.00     0.027 A 
ENDBRANCH  23  26
ENDBRANCH  22  23
ENDBRANCH   1  22
TORSDOF 6
ENDMDL
MODEL 6
REMARK VINA RESULT:      -6.9      6.880      9.080
REMARK  6 active torsions:
REMARK  status: ('A' for Active; 'I' for Inactive)
REMARK    1  A    between atoms: C_2  and  C_3 
REMARK    2  A    between atoms: C_2  and  C_9 
REMARK    3  A    between atoms: C_9  and  N_10 
REMARK       I    between atoms: N_10  and  C_11 
REMARK       I    between atoms: C_11  and  N_12 
REMARK    4  A    between atoms: N_12  and  C_13 
REMARK    5  A    between atoms: C_16  and  N_17 
REMARK       I    between atoms: N_17  and  C_18 
REMARK    6  A    between atoms: C_18  and  C_19 
ROOT
HETATM    1  N   UNL     1     -41.192  54.525 -55.527  1.00  0.00    -0.342 N 
HETATM    2  C   UNL     1     -41.793  55.655 -56.042  1.00  0.00     0.320 C 
HETATM    3  N   UNL     1     -42.483  55.364 -57.199  1.00  0.00    -0.309 N 
HETATM    4  O   UNL     1     -41.714  56.746 -55.494  1.00  0.00    -0.247 OA
HETATM    5  H   UNL     1     -40.988  53.775 -56.172  1.00  0.00     0.164 HD
HETATM    6  H   UNL     1     -42.698  54.389 -57.338  1.00  0.00     0.170 HD
ENDROOT
BRANCH   3   7
HETATM    7  C   UNL     1     -43.118  56.287 -58.054  1.00  0.00     0.036 A 
HETATM    8  C   UNL     1     -44.007  57.265 -57.608  1.00  0.00     0.032 A 
HETATM    9  C   UNL     1     -44.606  58.156 -58.509  1.00  0.00     0.032 A 
HETATM   10  C   UNL     1     -44.327  58.084 -59.872  1.00  0.00     0.035 A 
HETATM   11  C   UNL     1     -43.425  57.112 -60.320  1.00  0.00     0.032 A 
HETATM   12  C   UNL     1     -42.819  56.228 -59.418  1.00  0.00     0.032 A 
BRANCH  10  13
HETATM   13  N   UNL     1     -44.908  58.923 -60.840  1.00  0.00    -0.321 N 
HETATM   14  C   UNL     1     -44.627  60.253 -61.102  1.00  0.00     0.279 C 
HETATM   15  O   UNL     1     -43.759  60.921 -60.551  1.00  0.00    -0.265 OA
HETATM   16  H   UNL     1     -45.635  58.524 -61.424  1.00  0.00     0.169 HD
BRANCH  14  17
HETATM   17  C   UNL     1     -45.481  60.812 -62.136  1.00  0.00     0.142 A 
HETATM   18  O   UNL     1     -46.786  60.401 -62.233  1.00  0.00    -0.317 OA
HETATM   19  C   UNL     1     -47.345  61.089 -63.262  1.00  0.00     0.143 A 
HETATM   20  C   UNL     1     -46.426  61.934 -63.836  1.00  0.00     0.027 A 
HETATM   21  C   UNL     1     -45.223  61.756 -63.112  1.00  0.00     0.045 A 
ENDBRANCH  14  17
ENDBRANCH  10  13
ENDBRANCH   3   7
BRANCH   1  22
HETATM   22  C   UNL     1     -40.392  54.583 -54.311  1.00  0.00     0.138 C 
BRANCH  22  23
HETATM   23  C   UNL     1     -40.984  53.780 -53.111  1.00  0.00    -0.004 C 
HETATM   24  C   UNL     1     -42.527  53.779 -53.250  1.00  0.00     0.021 C 
HETATM   25  C   UNL     1     -40.672  54.518 -51.788  1.00  0.00     0.021 C 
BRANCH  23  26
HETATM   26  C   UNL     1     -40.476  52.325 -53.139  1.00  0.00    -0.046 A 
HETATM   27  C   UNL     1     -40.634  51.536 -54.291  1.00  0.00     0.027 A 
HETATM   28  C   UNL     1     -40.165  50.230 -54.299  1.00  0.00     0.116 A 
HETATM   29  N   UNL     1     -39.545  49.649 -53.255  1.00  0.00    -0.273 NA
HETATM   30  C   UNL     1     -39.402  50.408 -52.150  1.00  0.00     0.116 A 
HETATM   31  C   UNL     1     -39.839  51.723 -52.047  1.00  0.00     0.027 A 
ENDBRANCH  23  26
ENDBRANCH  22  23
ENDBRANCH   1  22
TORSDOF 6
ENDMDL
MODEL 7
REMARK VINA RESULT:      -6.9      6.281      8.480
REMARK  6 active torsions:
REMARK  status: ('A' for Active; 'I' for Inactive)
REMARK    1  A    between atoms: C_2  and  C_3 
REMARK    2  A    between atoms: C_2  and  C_9 
REMARK    3  A    between atoms: C_9  and  N_10 
REMARK       I    between atoms: N_10  and  C_11 
REMARK       I    between atoms: C_11  and  N_12 
REMARK    4  A    between atoms: N_12  and  C_13 
REMARK    5  A    between atoms: C_16  and  N_17 
REMARK       I    between atoms: N_17  and  C_18 
REMARK    6  A    between atoms: C_18  and  C_19 
ROOT
HETATM    1  N   UNL     1     -42.206  56.412 -52.630  1.00  0.00    -0.342 N 
HETATM    2  C   UNL     1     -41.677  57.235 -53.603  1.00  0.00     0.320 C 
HETATM    3  N   UNL     1     -42.643  57.616 -54.507  1.00  0.00    -0.309 N 
HETATM    4  O   UNL     1     -40.501  57.573 -53.605  1.00  0.00    -0.247 OA
HETATM    5  H   UNL     1     -43.040  55.895 -52.866  1.00  0.00     0.164 HD
HETATM    6  H   UNL     1     -43.595  57.506 -54.194  1.00  0.00     0.170 HD
ENDROOT
BRANCH   3   7
HETATM    7  C   UNL     1     -42.443  58.356 -55.691  1.00  0.00     0.036 A 
HETATM    8  C   UNL     1     -42.303  57.772 -56.950  1.00  0.00     0.032 A 
HETATM    9  C   UNL     1     -42.109  58.563 -58.091  1.00  0.00     0.032 A 
HETATM   10  C   UNL     1     -42.051  59.951 -57.992  1.00  0.00     0.035 A 
HETATM   11  C   UNL     1     -42.205  60.539 -56.732  1.00  0.00     0.032 A 
HETATM   12  C   UNL     1     -42.409  59.750 -55.593  1.00  0.00     0.032 A 
BRANCH  10  13
HETATM   13  N   UNL     1     -41.831  60.809 -59.085  1.00  0.00    -0.321 N 
HETATM   14  C   UNL     1     -40.850  61.774 -59.234  1.00  0.00     0.279 C 
HETATM   15  O   UNL     1     -39.950  62.008 -58.435  1.00  0.00    -0.265 OA
HETATM   16  H   UNL     1     -42.469  60.733 -59.870  1.00  0.00     0.169 HD
BRANCH  14  17
HETATM   17  C   UNL     1     -40.979  62.515 -60.478  1.00  0.00     0.142 A 
HETATM   18  O   UNL     1     -42.160  62.470 -61.175  1.00  0.00    -0.317 OA
HETATM   19  C   UNL     1     -42.005  63.255 -62.272  1.00  0.00     0.143 A 
HETATM   20  C   UNL     1     -40.745  63.802 -62.303  1.00  0.00     0.027 A 
HETATM   21  C   UNL     1     -40.082  63.326 -61.147  1.00  0.00     0.045 A 
ENDBRANCH  14  17
ENDBRANCH  10  13
ENDBRANCH   3   7
BRANCH   1  22
HETATM   22  C   UNL     1     -41.373  55.867 -51.567  1.00  0.00     0.138 C 
BRANCH  22  23
HETATM   23  C   UNL     1     -41.758  54.421 -51.123  1.00  0.00    -0.004 C 
HETATM   24  C   UNL     1     -43.264  54.213 -51.426  1.00  0.00     0.021 C 
HETATM   25  C   UNL     1     -41.605  54.290 -49.590  1.00  0.00     0.021 C 
BRANCH  23  26
HETATM   26  C   UNL     1     -40.939  53.383 -51.915  1.00  0.00    -0.046 A 
HETATM   27  C   UNL     1     -40.095  52.480 -51.247  1.00  0.00     0.027 A 
HETATM   28  C   UNL     1     -39.370  51.548 -51.977  1.00  0.00     0.116 A 
HETATM   29  N   UNL     1     -39.424  51.440 -53.317  1.00  0.00    -0.273 NA
HETATM   30  C   UNL     1     -40.229  52.312 -53.954  1.00  0.00     0.116 A 
HETATM   31  C   UNL     1     -40.992  53.279 -53.311  1.00  0.00     0.027 A 
ENDBRANCH  23  26
ENDBRANCH  22  23
ENDBRANCH   1  22
TORSDOF 6
ENDMDL
MODEL 8
REMARK VINA RESULT:      -6.8      6.951      9.300
REMARK  6 active torsions:
REMARK  status: ('A' for Active; 'I' for Inactive)
REMARK    1  A    between atoms: C_2  and  C_3 
REMARK    2  A    between atoms: C_2  and  C_9 
REMARK    3  A    between atoms: C_9  and  N_10 
REMARK       I    between atoms: N_10  and  C_11 
REMARK       I    between atoms: C_11  and  N_12 
REMARK    4  A    between atoms: N_12  and  C_13 
REMARK    5  A    between atoms: C_16  and  N_17 
REMARK       I    between atoms: N_17  and  C_18 
REMARK    6  A    between atoms: C_18  and  C_19 
ROOT
HETATM    1  N   UNL     1     -43.611  55.917 -54.428  1.00  0.00    -0.342 N 
HETATM    2  C   UNL     1     -42.960  56.331 -55.571  1.00  0.00     0.320 C 
HETATM    3  N   UNL     1     -43.310  57.621 -55.901  1.00  0.00    -0.309 N 
HETATM    4  O   UNL     1     -42.165  55.615 -56.167  1.00  0.00    -0.247 OA
HETATM    5  H   UNL     1     -44.481  56.377 -54.200  1.00  0.00     0.164 HD
HETATM    6  H   UNL     1     -43.724  58.159 -55.155  1.00  0.00     0.170 HD
ENDROOT
BRANCH   3   7
HETATM    7  C   UNL     1     -42.932  58.326 -57.062  1.00  0.00     0.036 A 
HETATM    8  C   UNL     1     -43.392  58.008 -58.340  1.00  0.00     0.032 A 
HETATM    9  C   UNL     1     -42.981  58.750 -59.456  1.00  0.00     0.032 A 
HETATM   10  C   UNL     1     -42.101  59.820 -59.313  1.00  0.00     0.035 A 
HETATM   11  C   UNL     1     -41.649  60.148 -58.031  1.00  0.00     0.032 A 
HETATM   12  C   UNL     1     -42.067  59.414 -56.914  1.00  0.00     0.032 A 
BRANCH  10  13
HETATM   13  N   UNL     1     -41.621  60.593 -60.387  1.00  0.00    -0.321 N 
HETATM   14  C   UNL     1     -41.640  61.970 -60.528  1.00  0.00     0.279 C 
HETATM   15  O   UNL     1     -42.041  62.768 -59.688  1.00  0.00    -0.265 OA
HETATM   16  H   UNL     1     -41.215  60.095 -61.172  1.00  0.00     0.169 HD
BRANCH  14  17
HETATM   17  C   UNL     1     -41.113  62.408 -61.809  1.00  0.00     0.142 A 
HETATM   18  O   UNL     1     -41.913  62.357 -62.924  1.00  0.00    -0.317 OA
HETATM   19  C   UNL     1     -41.179  62.835 -63.962  1.00  0.00     0.143 A 
HETATM   20  C   UNL     1     -39.919  63.188 -63.543  1.00  0.00     0.027 A 
HETATM   21  C   UNL     1     -39.875  62.914 -62.156  1.00  0.00     0.045 A 
ENDBRANCH  14  17
ENDBRANCH  10  13
ENDBRANCH   3   7
BRANCH   1  22
HETATM   22  C   UNL     1     -43.413  54.579 -53.888  1.00  0.00     0.138 C 
BRANCH  22  23
HETATM   23  C   UNL     1     -42.520  54.526 -52.609  1.00  0.00    -0.004 C 
HETATM   24  C   UNL     1     -43.426  54.155 -51.408  1.00  0.00     0.021 C 
HETATM   25  C   UNL     1     -41.960  55.936 -52.307  1.00  0.00     0.021 C 
BRANCH  23  26
HETATM   26  C   UNL     1     -41.427  53.450 -52.764  1.00  0.00    -0.046 A 
HETATM   27  C   UNL     1     -41.179  52.860 -54.015  1.00  0.00     0.027 A 
HETATM   28  C   UNL     1     -40.187  51.897 -54.136  1.00  0.00     0.116 A 
HETATM   29  N   UNL     1     -39.417  51.481 -53.113  1.00  0.00    -0.273 NA
HETATM   30  C   UNL     1     -39.663  52.045 -51.914  1.00  0.00     0.116 A 
HETATM   31  C   UNL     1     -40.634  53.014 -51.695  1.00  0.00     0.027 A 
ENDBRANCH  23  26
ENDBRANCH  22  23
ENDBRANCH   1  22
TORSDOF 6
ENDMDL
MODEL 9
REMARK VINA RESULT:      -6.8     18.897     21.704
REMARK  6 active torsions:
REMARK  status: ('A' for Active; 'I' for Inactive)
REMARK    1  A    between atoms: C_2  and  C_3 
REMARK    2  A    between atoms: C_2  and  C_9 
REMARK    3  A    between atoms: C_9  and  N_10 
REMARK       I    between atoms: N_10  and  C_11 
REMARK       I    between atoms: C_11  and  N_12 
REMARK    4  A    between atoms: N_12  and  C_13 
REMARK    5  A    between atoms: C_16  and  N_17 
REMARK       I    between atoms: N_17  and  C_18 
REMARK    6  A    between atoms: C_18  and  C_19 
ROOT
HETATM    1  N   UNL     1     -31.057  39.930 -48.247  1.00  0.00    -0.342 N 
HETATM    2  C   UNL     1     -32.070  39.698 -49.154  1.00  0.00     0.320 C 
HETATM    3  N   UNL     1     -31.884  40.436 -50.302  1.00  0.00    -0.309 N 
HETATM    4  O   UNL     1     -32.981  38.912 -48.931  1.00  0.00    -0.247 OA
HETATM    5  H   UNL     1     -30.565  40.808 -48.320  1.00  0.00     0.164 HD
HETATM    6  H   UNL     1     -30.949  40.784 -50.444  1.00  0.00     0.170 HD
ENDROOT
BRANCH   3   7
HETATM    7  C   UNL     1     -32.775  40.539 -51.390  1.00  0.00     0.036 A 
HETATM    8  C   UNL     1     -34.010  41.183 -51.316  1.00  0.00     0.032 A 
HETATM    9  C   UNL     1     -34.851  41.255 -52.435  1.00  0.00     0.032 A 
HETATM   10  C   UNL     1     -34.472  40.681 -53.647  1.00  0.00     0.035 A 
HETATM   11  C   UNL     1     -33.228  40.047 -53.727  1.00  0.00     0.032 A 
HETATM   12  C   UNL     1     -32.383  39.984 -52.611  1.00  0.00     0.032 A 
BRANCH  10  13
HETATM   13  N   UNL     1     -35.272  40.687 -54.804  1.00  0.00    -0.321 N 
HETATM   14  C   UNL     1     -35.489  41.727 -55.691  1.00  0.00     0.279 C 
HETATM   15  O   UNL     1     -34.959  42.832 -55.640  1.00  0.00    -0.265 OA
HETATM   16  H   UNL     1     -35.769  39.832 -55.030  1.00  0.00     0.169 HD
BRANCH  14  17
HETATM   17  C   UNL     1     -36.435  41.382 -56.739  1.00  0.00     0.142 A 
HETATM   18  O   UNL     1     -36.197  41.788 -58.028  1.00  0.00    -0.317 OA
HETATM   19  C   UNL     1     -37.220  41.318 -58.789  1.00  0.00     0.143 A 
HETATM   20  C   UNL     1     -38.118  40.622 -58.016  1.00  0.00     0.027 A 
HETATM   21  C   UNL     1     -37.613  40.661 -56.695  1.00  0.00     0.045 A 
ENDBRANCH  14  17
ENDBRANCH  10  13
ENDBRANCH   3   7
BRANCH   1  22
HETATM   22  C   UNL     1     -31.042  39.272 -46.948  1.00  0.00     0.138 C 
BRANCH  22  23
HETATM   23  C   UNL     1     -29.888  39.735 -46.004  1.00  0.00    -0.004 C 
HETATM   24  C   UNL     1     -29.983  41.274 -45.852  1.00  0.00     0.021 C 
HETATM   25  C   UNL     1     -28.523  39.452 -46.675  1.00  0.00     0.021 C 
BRANCH  23  26
HETATM   26  C   UNL     1     -30.038  39.083 -44.616  1.00  0.00    -0.046 A 
HETATM   27  C   UNL     1     -31.269  38.534 -44.215  1.00  0.00     0.027 A 
HETATM   28  C   UNL     1     -31.383  37.946 -42.963  1.00  0.00     0.116 A 
HETATM   29  N   UNL     1     -30.368  37.854 -42.082  1.00  0.00    -0.273 NA
HETATM   30  C   UNL     1     -29.193  38.386 -42.469  1.00  0.00     0.116 A 
HETATM   31  C   UNL     1     -28.982  38.996 -43.700  1.00  0.00     0.027 A 
ENDBRANCH  23  26
ENDBRANCH  22  23
ENDBRANCH   1  22
TORSDOF 6
ENDMDL
MODEL 10
REMARK VINA RESULT:      -6.7      7.336      9.405
REMARK  6 active torsions:
REMARK  status: ('A' for Active; 'I' for Inactive)
REMARK    1  A    between atoms: C_2  and  C_3 
REMARK    2  A    between atoms: C_2  and  C_9 
REMARK    3  A    between atoms: C_9  and  N_10 
REMARK       I    between atoms: N_10  and  C_11 
REMARK       I    between atoms: C_11  and  N_12 
REMARK    4  A    between atoms: N_12  and  C_13 
REMARK    5  A    between atoms: C_16  and  N_17 
REMARK       I    between atoms: N_17  and  C_18 
REMARK    6  A    between atoms: C_18  and  C_19 
ROOT
HETATM    1  N   UNL     1     -41.431  56.050 -55.764  1.00  0.00    -0.342 N 
HETATM    2  C   UNL     1     -42.629  56.442 -56.324  1.00  0.00     0.320 C 
HETATM    3  N   UNL     1     -42.481  56.718 -57.665  1.00  0.00    -0.309 N 
HETATM    4  O   UNL     1     -43.666  56.499 -55.677  1.00  0.00    -0.247 OA
HETATM    5  H   UNL     1     -40.585  56.358 -56.221  1.00  0.00     0.164 HD
HETATM    6  H   UNL     1     -41.655  56.333 -58.096  1.00  0.00     0.170 HD
ENDROOT
BRANCH   3   7
HETATM    7  C   UNL     1     -43.460  57.252 -58.528  1.00  0.00     0.036 A 
HETATM    8  C   UNL     1     -43.562  58.610 -58.829  1.00  0.00     0.032 A 
HETATM    9  C   UNL     1     -44.557  59.080 -59.698  1.00  0.00     0.032 A 
HETATM   10  C   UNL     1     -45.469  58.201 -60.277  1.00  0.00     0.035 A 
HETATM   11  C   UNL     1     -45.359  56.837 -59.986  1.00  0.00     0.032 A 
HETATM   12  C   UNL     1     -44.359  56.365 -59.127  1.00  0.00     0.032 A 
BRANCH  10  13
HETATM   13  N   UNL     1     -46.510  58.599 -61.135  1.00  0.00    -0.321 N 
HETATM   14  C   UNL     1     -47.689  59.247 -60.808  1.00  0.00     0.279 C 
HETATM   15  O   UNL     1     -48.002  59.640 -59.690  1.00  0.00    -0.265 OA
HETATM   16  H   UNL     1     -46.407  58.384 -62.121  1.00  0.00     0.169 HD
BRANCH  14  17
HETATM   17  C   UNL     1     -48.560  59.436 -61.956  1.00  0.00     0.142 A 
HETATM   18  O   UNL     1     -49.325  58.390 -62.407  1.00  0.00    -0.317 OA
HETATM   19  C   UNL     1     -50.043  58.848 -63.465  1.00  0.00     0.143 A 
HETATM   20  C   UNL     1     -49.752  60.168 -63.712  1.00  0.00     0.027 A 
HETATM   21  C   UNL     1     -48.797  60.549 -62.741  1.00  0.00     0.045 A 
ENDBRANCH  14  17
ENDBRANCH  10  13
ENDBRANCH   3   7
BRANCH   1  22
HETATM   22  C   UNL     1     -41.331  55.718 -54.350  1.00  0.00     0.138 C 
BRANCH  22  23
HETATM   23  C   UNL     1     -41.170  54.193 -54.055  1.00  0.00    -0.004 C 
HETATM   24  C   UNL     1     -39.992  53.663 -54.911  1.00  0.00     0.021 C 
HETATM   25  C   UNL     1     -42.428  53.435 -54.538  1.00  0.00     0.021 C 
BRANCH  23  26
HETATM   26  C   UNL     1     -40.849  53.968 -52.564  1.00  0.00    -0.046 A 
HETATM   27  C   UNL     1     -41.128  54.966 -51.615  1.00  0.00     0.027 A 
HETATM   28  C   UNL     1     -40.837  54.742 -50.277  1.00  0.00     0.116 A 
HETATM   29  N   UNL     1     -40.298  53.601 -49.807  1.00  0.00    -0.273 NA
HETATM   30  C   UNL     1     -40.026  52.650 -50.722  1.00  0.00     0.116 A 
HETATM   31  C   UNL     1     -40.280  52.782 -52.082  1.00  0.00     0.027 A 
ENDBRANCH  23  26
ENDBRANCH  22  23
ENDBRANCH   1  22
TORSDOF 6
ENDMDL
