MODEL 1
REMARK VINA RESULT:      -8.2      0.000      0.000
REMARK  5 active torsions:
REMARK  status: ('A' for Active; 'I' for Inactive)
REMARK    1  A    between atoms: C_9  and  C_10 
REMARK       I    between atoms: C_10  and  N_11 
REMARK    2  A    between atoms: N_11  and  C_12 
REMARK    3  A    between atoms: C_15  and  C_16 
REMARK    4  A    between atoms: C_16  and  C_17 
REMARK       I    between atoms: C_17  and  N_18 
REMARK    5  A    between atoms: N_18  and  C_19 
ROOT
HETATM    1  C   UNL     1     -42.943  55.052 -54.239  1.00  0.00     0.277 C 
HETATM    2  N   UNL     1     -42.277  55.917 -55.089  1.00  0.00    -0.322 N 
HETATM    3  O   UNL     1     -44.104  54.674 -54.350  1.00  0.00    -0.266 OA
HETATM    4  H   UNL     1     -41.324  56.109 -54.788  1.00  0.00     0.169 HD
ENDROOT
BRANCH   2   5
HETATM    5  C   UNL     1     -42.670  56.369 -56.359  1.00  0.00     0.035 A 
HETATM    6  C   UNL     1     -42.965  57.700 -56.658  1.00  0.00     0.030 A 
HETATM    7  C   UNL     1     -43.494  58.046 -57.909  1.00  0.00     0.010 A 
HETATM    8  C   UNL     1     -43.734  57.065 -58.878  1.00  0.00    -0.049 A 
HETATM    9  C   UNL     1     -43.371  55.741 -58.600  1.00  0.00     0.010 A 
HETATM   10  C   UNL     1     -42.842  55.399 -57.352  1.00  0.00     0.030 A 
BRANCH   8  11
HETATM   11  C   UNL     1     -44.441  57.408 -60.168  1.00  0.00     0.141 C 
BRANCH  11  12
HETATM   12  C   UNL     1     -45.956  57.473 -60.148  1.00  0.00     0.222 C 
HETATM   13  N   UNL     1     -46.564  58.063 -61.233  1.00  0.00    -0.357 N 
HETATM   14  H   UNL     1     -45.978  58.509 -61.928  1.00  0.00     0.162 HD
HETATM   15  O   UNL     1     -46.586  56.934 -59.239  1.00  0.00    -0.273 OA
BRANCH  13  16
HETATM   16  C   UNL     1     -48.007  58.093 -61.447  1.00  0.00     0.076 C 
HETATM   17  C   UNL     1     -48.457  59.403 -62.091  1.00  0.00     0.032 C 
HETATM   18  C   UNL     1     -48.516  56.882 -62.224  1.00  0.00     0.032 C 
ENDBRANCH  13  16
ENDBRANCH  11  12
ENDBRANCH   8  11
ENDBRANCH   2   5
BRANCH   1  19
HETATM   19  C   UNL     1     -42.056  54.571 -53.160  1.00  0.00     0.157 A 
HETATM   20  C   UNL     1     -41.254  53.391 -53.155  1.00  0.00     0.029 A 
HETATM   21  C   UNL     1     -41.028  52.309 -54.031  1.00  0.00     0.023 A 
HETATM   22  C   UNL     1     -40.547  53.440 -51.960  1.00  0.00     0.063 A 
HETATM   23  C   UNL     1     -40.096  51.317 -53.682  1.00  0.00    -0.061 A 
HETATM   24  C   UNL     1     -39.837  50.159 -54.601  1.00  0.00     0.048 C 
HETATM   25  C   UNL     1     -39.402  51.410 -52.469  1.00  0.00     0.009 A 
HETATM   26  C   UNL     1     -39.614  52.471 -51.582  1.00  0.00     0.032 A 
HETATM   27  N   UNL     1     -40.968  54.582 -51.338  1.00  0.00    -0.277 N 
HETATM   28  H   UNL     1     -40.661  54.937 -50.439  1.00  0.00     0.189 HD
HETATM   29  N   UNL     1     -41.873  55.296 -52.032  1.00  0.00    -0.168 NA
ENDBRANCH   1  19
TORSDOF 5
ENDMDL
MODEL 2
REMARK VINA RESULT:      -8.1      1.827      2.622
REMARK  5 active torsions:
REMARK  status: ('A' for Active; 'I' for Inactive)
REMARK    1  A    between atoms: C_9  and  C_10 
REMARK       I    between atoms: C_10  and  N_11 
REMARK    2  A    between atoms: N_11  and  C_12 
REMARK    3  A    between atoms: C_15  and  C_16 
REMARK    4  A    between atoms: C_16  and  C_17 
REMARK       I    between atoms: C_17  and  N_18 
REMARK    5  A    between atoms: N_18  and  C_19 
ROOT
HETATM    1  C   UNL     1     -41.187  55.006 -52.564  1.00  0.00     0.277 C 
HETATM    2  N   UNL     1     -41.781  54.584 -53.741  1.00  0.00    -0.322 N 
HETATM    3  O   UNL     1     -40.997  56.167 -52.221  1.00  0.00    -0.266 OA
HETATM    4  H   UNL     1     -41.813  53.570 -53.824  1.00  0.00     0.169 HD
ENDROOT
BRANCH   2   5
HETATM    5  C   UNL     1     -42.491  55.345 -54.682  1.00  0.00     0.035 A 
HETATM    6  C   UNL     1     -42.106  55.499 -56.014  1.00  0.00     0.030 A 
HETATM    7  C   UNL     1     -42.785  56.395 -56.851  1.00  0.00     0.010 A 
HETATM    8  C   UNL     1     -43.861  57.149 -56.366  1.00  0.00    -0.049 A 
HETATM    9  C   UNL     1     -44.289  56.940 -55.050  1.00  0.00     0.010 A 
HETATM   10  C   UNL     1     -43.611  56.044 -54.218  1.00  0.00     0.030 A 
BRANCH   8  11
HETATM   11  C   UNL     1     -44.499  58.222 -57.216  1.00  0.00     0.141 C 
BRANCH  11  12
HETATM   12  C   UNL     1     -44.704  57.927 -58.690  1.00  0.00     0.222 C 
HETATM   13  N   UNL     1     -45.326  56.740 -59.003  1.00  0.00    -0.357 N 
HETATM   14  H   UNL     1     -45.519  56.087 -58.253  1.00  0.00     0.162 HD
HETATM   15  O   UNL     1     -44.402  58.768 -59.536  1.00  0.00    -0.273 OA
BRANCH  13  16
HETATM   16  C   UNL     1     -45.724  56.355 -60.352  1.00  0.00     0.076 C 
HETATM   17  C   UNL     1     -45.088  55.031 -60.775  1.00  0.00     0.032 C 
HETATM   18  C   UNL     1     -47.239  56.334 -60.541  1.00  0.00     0.032 C 
ENDBRANCH  13  16
ENDBRANCH  11  12
ENDBRANCH   8  11
ENDBRANCH   2   5
BRANCH   1  19
HETATM   19  C   UNL     1     -40.834  53.860 -51.701  1.00  0.00     0.157 A 
HETATM   20  C   UNL     1     -40.424  52.556 -52.110  1.00  0.00     0.029 A 
HETATM   21  C   UNL     1     -40.246  51.884 -53.337  1.00  0.00     0.023 A 
HETATM   22  C   UNL     1     -40.127  51.884 -50.932  1.00  0.00     0.063 A 
HETATM   23  C   UNL     1     -39.770  50.561 -53.339  1.00  0.00    -0.061 A 
HETATM   24  C   UNL     1     -39.569  49.827 -54.633  1.00  0.00     0.048 C 
HETATM   25  C   UNL     1     -39.478  49.924 -52.127  1.00  0.00     0.009 A 
HETATM   26  C   UNL     1     -39.652  50.570 -50.898  1.00  0.00     0.032 A 
HETATM   27  N   UNL     1     -40.390  52.777 -49.931  1.00  0.00    -0.277 N 
HETATM   28  H   UNL     1     -40.286  52.625 -48.933  1.00  0.00     0.189 HD
HETATM   29  N   UNL     1     -40.812  53.983 -50.353  1.00  0.00    -0.168 NA
ENDBRANCH   1  19
TORSDOF 5
ENDMDL
MODEL 3
REMARK VINA RESULT:      -8.0      5.820      8.082
REMARK  5 active torsions:
REMARK  status: ('A' for Active; 'I' for Inactive)
REMARK    1  A    between atoms: C_9  and  C_10 
REMARK       I    between atoms: C_10  and  N_11 
REMARK    2  A    between atoms: N_11  and  C_12 
REMARK    3  A    between atoms: C_15  and  C_16 
REMARK    4  A    between atoms: C_16  and  C_17 
REMARK       I    between atoms: C_17  and  N_18 
REMARK    5  A    between atoms: N_18  and  C_19 
ROOT
HETATM    1  C   UNL     1     -41.163  55.302 -52.087  1.00  0.00     0.277 C 
HETATM    2  N   UNL     1     -41.109  56.579 -52.617  1.00  0.00    -0.322 N 
HETATM    3  O   UNL     1     -41.516  55.001 -50.952  1.00  0.00    -0.266 OA
HETATM    4  H   UNL     1     -40.763  56.594 -53.574  1.00  0.00     0.169 HD
ENDROOT
BRANCH   2   5
HETATM    5  C   UNL     1     -41.643  57.767 -52.093  1.00  0.00     0.035 A 
HETATM    6  C   UNL     1     -41.066  58.489 -51.048  1.00  0.00     0.030 A 
HETATM    7  C   UNL     1     -41.739  59.581 -50.483  1.00  0.00     0.010 A 
HETATM    8  C   UNL     1     -43.000  59.964 -50.956  1.00  0.00    -0.049 A 
HETATM    9  C   UNL     1     -43.545  59.280 -52.049  1.00  0.00     0.010 A 
HETATM   10  C   UNL     1     -42.870  58.194 -52.613  1.00  0.00     0.030 A 
BRANCH   8  11
HETATM   11  C   UNL     1     -43.794  61.041 -50.255  1.00  0.00     0.141 C 
BRANCH  11  12
HETATM   12  C   UNL     1     -44.796  60.607 -49.202  1.00  0.00     0.222 C 
HETATM   13  N   UNL     1     -44.612  61.104 -47.931  1.00  0.00    -0.357 N 
HETATM   14  H   UNL     1     -43.774  61.640 -47.742  1.00  0.00     0.162 HD
HETATM   15  O   UNL     1     -45.768  59.921 -49.517  1.00  0.00    -0.273 OA
BRANCH  13  16
HETATM   16  C   UNL     1     -45.547  60.904 -46.830  1.00  0.00     0.076 C 
HETATM   17  C   UNL     1     -44.831  60.841 -45.482  1.00  0.00     0.032 C 
HETATM   18  C   UNL     1     -46.676  61.931 -46.817  1.00  0.00     0.032 C 
ENDBRANCH  13  16
ENDBRANCH  11  12
ENDBRANCH   8  11
ENDBRANCH   2   5
BRANCH   1  19
HETATM   19  C   UNL     1     -40.780  54.288 -53.091  1.00  0.00     0.157 A 
HETATM   20  C   UNL     1     -40.360  52.945 -52.854  1.00  0.00     0.029 A 
HETATM   21  C   UNL     1     -40.122  52.137 -51.724  1.00  0.00     0.023 A 
HETATM   22  C   UNL     1     -40.204  52.388 -54.117  1.00  0.00     0.063 A 
HETATM   23  C   UNL     1     -39.742  50.795 -51.898  1.00  0.00    -0.061 A 
HETATM   24  C   UNL     1     -39.488  49.915 -50.709  1.00  0.00     0.048 C 
HETATM   25  C   UNL     1     -39.602  50.274 -53.191  1.00  0.00     0.009 A 
HETATM   26  C   UNL     1     -39.828  51.059 -54.327  1.00  0.00     0.032 A 
HETATM   27  N   UNL     1     -40.501  53.393 -54.995  1.00  0.00    -0.277 N 
HETATM   28  H   UNL     1     -40.492  53.343 -56.008  1.00  0.00     0.189 HD
HETATM   29  N   UNL     1     -40.860  54.554 -54.416  1.00  0.00    -0.168 NA
ENDBRANCH   1  19
TORSDOF 5
ENDMDL
MODEL 4
REMARK VINA RESULT:      -7.9      2.332      3.088
REMARK  5 active torsions:
REMARK  status: ('A' for Active; 'I' for Inactive)
REMARK    1  A    between atoms: C_9  and  C_10 
REMARK       I    between atoms: C_10  and  N_11 
REMARK    2  A    between atoms: N_11  and  C_12 
REMARK    3  A    between atoms: C_15  and  C_16 
REMARK    4  A    between atoms: C_16  and  C_17 
REMARK       I    between atoms: C_17  and  N_18 
REMARK    5  A    between atoms: N_18  and  C_19 
ROOT
HETATM    1  C   UNL     1     -42.866  54.992 -54.235  1.00  0.00     0.277 C 
HETATM    2  N   UNL     1     -42.155  55.803 -55.102  1.00  0.00    -0.322 N 
HETATM    3  O   UNL     1     -44.043  54.667 -54.345  1.00  0.00    -0.266 OA
HETATM    4  H   UNL     1     -41.195  55.957 -54.798  1.00  0.00     0.169 HD
ENDROOT
BRANCH   2   5
HETATM    5  C   UNL     1     -42.517  56.241 -56.385  1.00  0.00     0.035 A 
HETATM    6  C   UNL     1     -42.942  55.394 -57.409  1.00  0.00     0.030 A 
HETATM    7  C   UNL     1     -43.141  55.890 -58.705  1.00  0.00     0.010 A 
HETATM    8  C   UNL     1     -42.917  57.242 -58.993  1.00  0.00    -0.049 A 
HETATM    9  C   UNL     1     -42.559  58.102 -57.948  1.00  0.00     0.010 A 
HETATM   10  C   UNL     1     -42.364  57.605 -56.656  1.00  0.00     0.030 A 
BRANCH   8  11
HETATM   11  C   UNL     1     -42.984  57.752 -60.413  1.00  0.00     0.141 C 
BRANCH  11  12
HETATM   12  C   UNL     1     -43.190  59.240 -60.621  1.00  0.00     0.222 C 
HETATM   13  N   UNL     1     -42.102  59.959 -61.059  1.00  0.00    -0.357 N 
HETATM   14  H   UNL     1     -41.207  59.489 -61.119  1.00  0.00     0.162 HD
HETATM   15  O   UNL     1     -44.309  59.734 -60.487  1.00  0.00    -0.273 OA
BRANCH  13  16
HETATM   16  C   UNL     1     -42.150  61.367 -61.439  1.00  0.00     0.076 C 
HETATM   17  C   UNL     1     -41.006  62.163 -60.813  1.00  0.00     0.032 C 
HETATM   18  C   UNL     1     -42.213  61.571 -62.951  1.00  0.00     0.032 C 
ENDBRANCH  13  16
ENDBRANCH  11  12
ENDBRANCH   8  11
ENDBRANCH   2   5
BRANCH   1  19
HETATM   19  C   UNL     1     -42.009  54.497 -53.138  1.00  0.00     0.157 A 
HETATM   20  C   UNL     1     -41.205  53.319 -53.126  1.00  0.00     0.029 A 
HETATM   21  C   UNL     1     -40.950  52.252 -54.011  1.00  0.00     0.023 A 
HETATM   22  C   UNL     1     -40.533  53.353 -51.911  1.00  0.00     0.063 A 
HETATM   23  C   UNL     1     -40.026  51.256 -53.649  1.00  0.00    -0.061 A 
HETATM   24  C   UNL     1     -39.736  50.113 -54.577  1.00  0.00     0.048 C 
HETATM   25  C   UNL     1     -39.368  51.333 -52.415  1.00  0.00     0.009 A 
HETATM   26  C   UNL     1     -39.609  52.381 -51.519  1.00  0.00     0.032 A 
HETATM   27  N   UNL     1     -40.976  54.484 -51.284  1.00  0.00    -0.277 N 
HETATM   28  H   UNL     1     -40.696  54.826 -50.371  1.00  0.00     0.189 HD
HETATM   29  N   UNL     1     -41.862  55.206 -51.994  1.00  0.00    -0.168 NA
ENDBRANCH   1  19
TORSDOF 5
ENDMDL
MODEL 5
REMARK VINA RESULT:      -7.9      1.252      1.734
REMARK  5 active torsions:
REMARK  status: ('A' for Active; 'I' for Inactive)
REMARK    1  A    between atoms: C_9  and  C_10 
REMARK       I    between atoms: C_10  and  N_11 
REMARK    2  A    between atoms: N_11  and  C_12 
REMARK    3  A    between atoms: C_15  and  C_16 
REMARK    4  A    between atoms: C_16  and  C_17 
REMARK       I    between atoms: C_17  and  N_18 
REMARK    5  A    between atoms: N_18  and  C_19 
ROOT
HETATM    1  C   UNL     1     -42.701  55.744 -53.566  1.00  0.00     0.277 C 
HETATM    2  N   UNL     1     -41.924  55.950 -54.691  1.00  0.00    -0.322 N 
HETATM    3  O   UNL     1     -43.886  56.030 -53.438  1.00  0.00    -0.266 OA
HETATM    4  H   UNL     1     -40.958  55.655 -54.563  1.00  0.00     0.169 HD
ENDROOT
BRANCH   2   5
HETATM    5  C   UNL     1     -42.336  56.305 -55.985  1.00  0.00     0.035 A 
HETATM    6  C   UNL     1     -42.823  55.398 -56.927  1.00  0.00     0.030 A 
HETATM    7  C   UNL     1     -43.071  55.807 -58.245  1.00  0.00     0.010 A 
HETATM    8  C   UNL     1     -42.836  57.130 -58.638  1.00  0.00    -0.049 A 
HETATM    9  C   UNL     1     -42.415  58.053 -57.673  1.00  0.00     0.010 A 
HETATM   10  C   UNL     1     -42.170  57.643 -56.359  1.00  0.00     0.030 A 
BRANCH   8  11
HETATM   11  C   UNL     1     -42.958  57.539 -60.086  1.00  0.00     0.141 C 
BRANCH  11  12
HETATM   12  C   UNL     1     -44.244  58.216 -60.523  1.00  0.00     0.222 C 
HETATM   13  N   UNL     1     -45.387  57.450 -60.493  1.00  0.00    -0.357 N 
HETATM   14  H   UNL     1     -45.299  56.464 -60.283  1.00  0.00     0.162 HD
HETATM   15  O   UNL     1     -44.249  59.416 -60.797  1.00  0.00    -0.273 OA
BRANCH  13  16
HETATM   16  C   UNL     1     -46.726  57.968 -60.748  1.00  0.00     0.076 C 
HETATM   17  C   UNL     1     -47.675  56.873 -61.233  1.00  0.00     0.032 C 
HETATM   18  C   UNL     1     -47.307  58.725 -59.556  1.00  0.00     0.032 C 
ENDBRANCH  13  16
ENDBRANCH  11  12
ENDBRANCH   8  11
ENDBRANCH   2   5
BRANCH   1  19
HETATM   19  C   UNL     1     -41.933  55.067 -52.500  1.00  0.00     0.157 A 
HETATM   20  C   UNL     1     -41.206  53.843 -52.595  1.00  0.00     0.029 A 
HETATM   21  C   UNL     1     -40.975  52.871 -53.590  1.00  0.00     0.023 A 
HETATM   22  C   UNL     1     -40.596  53.689 -51.357  1.00  0.00     0.063 A 
HETATM   23  C   UNL     1     -40.135  51.780 -53.311  1.00  0.00    -0.061 A 
HETATM   24  C   UNL     1     -39.871  50.735 -54.356  1.00  0.00     0.048 C 
HETATM   25  C   UNL     1     -39.536  51.667 -52.050  1.00  0.00     0.009 A 
HETATM   26  C   UNL     1     -39.755  52.617 -51.046  1.00  0.00     0.032 A 
HETATM   27  N   UNL     1     -40.997  54.767 -50.619  1.00  0.00    -0.277 N 
HETATM   28  H   UNL     1     -40.743  54.980 -49.661  1.00  0.00     0.189 HD
HETATM   29  N   UNL     1     -41.800  55.626 -51.275  1.00  0.00    -0.168 NA
ENDBRANCH   1  19
TORSDOF 5
ENDMDL
MODEL 6
REMARK VINA RESULT:      -7.7     15.583     17.596
REMARK  5 active torsions:
REMARK  status: ('A' for Active; 'I' for Inactive)
REMARK    1  A    between atoms: C_9  and  C_10 
REMARK       I    between atoms: C_10  and  N_11 
REMARK    2  A    between atoms: N_11  and  C_12 
REMARK    3  A    between atoms: C_15  and  C_16 
REMARK    4  A    between atoms: C_16  and  C_17 
REMARK       I    between atoms: C_17  and  N_18 
REMARK    5  A    between atoms: N_18  and  C_19 
ROOT
HETATM    1  C   UNL     1     -34.605  40.282 -52.938  1.00  0.00     0.277 C 
HETATM    2  N   UNL     1     -34.529  41.427 -53.711  1.00  0.00    -0.322 N 
HETATM    3  O   UNL     1     -35.429  39.382 -53.051  1.00  0.00    -0.266 OA
HETATM    4  H   UNL     1     -33.775  42.047 -53.423  1.00  0.00     0.169 HD
ENDROOT
BRANCH   2   5
HETATM    5  C   UNL     1     -35.198  41.718 -54.910  1.00  0.00     0.035 A 
HETATM    6  C   UNL     1     -36.545  42.072 -54.988  1.00  0.00     0.030 A 
HETATM    7  C   UNL     1     -37.175  42.200 -56.233  1.00  0.00     0.010 A 
HETATM    8  C   UNL     1     -36.465  41.975 -57.419  1.00  0.00    -0.049 A 
HETATM    9  C   UNL     1     -35.097  41.688 -57.339  1.00  0.00     0.010 A 
HETATM   10  C   UNL     1     -34.471  41.564 -56.096  1.00  0.00     0.030 A 
BRANCH   8  11
HETATM   11  C   UNL     1     -37.172  41.963 -58.753  1.00  0.00     0.141 C 
BRANCH  11  12
HETATM   12  C   UNL     1     -37.498  40.616 -59.369  1.00  0.00     0.222 C 
HETATM   13  N   UNL     1     -36.712  40.211 -60.423  1.00  0.00    -0.357 N 
HETATM   14  H   UNL     1     -36.034  40.864 -60.796  1.00  0.00     0.162 HD
HETATM   15  O   UNL     1     -38.368  39.903 -58.870  1.00  0.00    -0.273 OA
BRANCH  13  16
HETATM   16  C   UNL     1     -36.793  38.895 -61.047  1.00  0.00     0.076 C 
HETATM   17  C   UNL     1     -37.590  38.933 -62.350  1.00  0.00     0.032 C 
HETATM   18  C   UNL     1     -35.425  38.247 -61.246  1.00  0.00     0.032 C 
ENDBRANCH  13  16
ENDBRANCH  11  12
ENDBRANCH   8  11
ENDBRANCH   2   5
BRANCH   1  19
HETATM   19  C   UNL     1     -33.509  40.229 -51.948  1.00  0.00     0.157 A 
HETATM   20  C   UNL     1     -33.543  39.657 -50.642  1.00  0.00     0.029 A 
HETATM   21  C   UNL     1     -34.509  39.025 -49.833  1.00  0.00     0.023 A 
HETATM   22  C   UNL     1     -32.247  39.787 -50.157  1.00  0.00     0.063 A 
HETATM   23  C   UNL     1     -34.141  38.538 -48.566  1.00  0.00    -0.061 A 
HETATM   24  C   UNL     1     -35.151  37.858 -47.689  1.00  0.00     0.048 C 
HETATM   25  C   UNL     1     -32.822  38.686 -48.120  1.00  0.00     0.009 A 
HETATM   26  C   UNL     1     -31.848  39.315 -48.904  1.00  0.00     0.032 A 
HETATM   27  N   UNL     1     -31.553  40.424 -51.147  1.00  0.00    -0.277 N 
HETATM   28  H   UNL     1     -30.573  40.684 -51.136  1.00  0.00     0.189 HD
HETATM   29  N   UNL     1     -32.276  40.703 -52.247  1.00  0.00    -0.168 NA
ENDBRANCH   1  19
TORSDOF 5
ENDMDL
MODEL 7
REMARK VINA RESULT:      -7.5      5.990      9.700
REMARK  5 active torsions:
REMARK  status: ('A' for Active; 'I' for Inactive)
REMARK    1  A    between atoms: C_9  and  C_10 
REMARK       I    between atoms: C_10  and  N_11 
REMARK    2  A    between atoms: N_11  and  C_12 
REMARK    3  A    between atoms: C_15  and  C_16 
REMARK    4  A    between atoms: C_16  and  C_17 
REMARK       I    between atoms: C_17  and  N_18 
REMARK    5  A    between atoms: N_18  and  C_19 
ROOT
HETATM    1  C   UNL     1     -45.614  59.233 -50.364  1.00  0.00     0.277 C 
HETATM    2  N   UNL     1     -44.390  58.756 -50.797  1.00  0.00    -0.322 N 
HETATM    3  O   UNL     1     -46.718  58.849 -50.736  1.00  0.00    -0.266 OA
HETATM    4  H   UNL     1     -43.604  59.240 -50.368  1.00  0.00     0.169 HD
ENDROOT
BRANCH   2   5
HETATM    5  C   UNL     1     -44.120  57.608 -51.559  1.00  0.00     0.035 A 
HETATM    6  C   UNL     1     -43.572  56.435 -51.037  1.00  0.00     0.030 A 
HETATM    7  C   UNL     1     -43.193  55.389 -51.889  1.00  0.00     0.010 A 
HETATM    8  C   UNL     1     -43.357  55.502 -53.275  1.00  0.00    -0.049 A 
HETATM    9  C   UNL     1     -43.970  56.651 -53.788  1.00  0.00     0.010 A 
HETATM   10  C   UNL     1     -44.350  57.692 -52.936  1.00  0.00     0.030 A 
BRANCH   8  11
HETATM   11  C   UNL     1     -42.814  54.444 -54.207  1.00  0.00     0.141 C 
BRANCH  11  12
HETATM   12  C   UNL     1     -41.409  53.933 -53.954  1.00  0.00     0.222 C 
HETATM   13  N   UNL     1     -41.271  52.577 -53.758  1.00  0.00    -0.357 N 
HETATM   14  H   UNL     1     -42.109  52.013 -53.691  1.00  0.00     0.162 HD
HETATM   15  O   UNL     1     -40.450  54.701 -54.017  1.00  0.00    -0.273 OA
BRANCH  13  16
HETATM   16  C   UNL     1     -39.988  51.895 -53.636  1.00  0.00     0.076 C 
HETATM   17  C   UNL     1     -39.547  51.773 -52.178  1.00  0.00     0.032 C 
HETATM   18  C   UNL     1     -39.966  50.541 -54.342  1.00  0.00     0.032 C 
ENDBRANCH  13  16
ENDBRANCH  11  12
ENDBRANCH   8  11
ENDBRANCH   2   5
BRANCH   1  19
HETATM   19  C   UNL     1     -45.448  60.267 -49.322  1.00  0.00     0.157 A 
HETATM   20  C   UNL     1     -44.837  61.549 -49.458  1.00  0.00     0.029 A 
HETATM   21  C   UNL     1     -44.186  62.262 -50.485  1.00  0.00     0.023 A 
HETATM   22  C   UNL     1     -45.013  62.166 -48.225  1.00  0.00     0.063 A 
HETATM   23  C   UNL     1     -43.737  63.572 -50.242  1.00  0.00    -0.061 A 
HETATM   24  C   UNL     1     -43.044  64.352 -51.322  1.00  0.00     0.048 C 
HETATM   25  C   UNL     1     -43.940  64.156 -48.986  1.00  0.00     0.009 A 
HETATM   26  C   UNL     1     -44.580  63.466 -47.951  1.00  0.00     0.032 A 
HETATM   27  N   UNL     1     -45.665  61.247 -47.452  1.00  0.00    -0.277 N 
HETATM   28  H   UNL     1     -45.957  61.358 -46.487  1.00  0.00     0.189 HD
HETATM   29  N   UNL     1     -45.953  60.091 -48.078  1.00  0.00    -0.168 NA
ENDBRANCH   1  19
TORSDOF 5
ENDMDL
MODEL 8
REMARK VINA RESULT:      -7.2      2.264      9.588
REMARK  5 active torsions:
REMARK  status: ('A' for Active; 'I' for Inactive)
REMARK    1  A    between atoms: C_9  and  C_10 
REMARK       I    between atoms: C_10  and  N_11 
REMARK    2  A    between atoms: N_11  and  C_12 
REMARK    3  A    between atoms: C_15  and  C_16 
REMARK    4  A    between atoms: C_16  and  C_17 
REMARK       I    between atoms: C_17  and  N_18 
REMARK    5  A    between atoms: N_18  and  C_19 
ROOT
HETATM    1  C   UNL     1     -43.259  56.529 -57.674  1.00  0.00     0.277 C 
HETATM    2  N   UNL     1     -42.779  56.817 -56.410  1.00  0.00    -0.322 N 
HETATM    3  O   UNL     1     -43.320  55.421 -58.194  1.00  0.00    -0.266 OA
HETATM    4  H   UNL     1     -42.802  57.813 -56.196  1.00  0.00     0.169 HD
ENDROOT
BRANCH   2   5
HETATM    5  C   UNL     1     -42.475  55.928 -55.367  1.00  0.00     0.035 A 
HETATM    6  C   UNL     1     -43.433  55.243 -54.619  1.00  0.00     0.030 A 
HETATM    7  C   UNL     1     -43.055  54.491 -53.498  1.00  0.00     0.010 A 
HETATM    8  C   UNL     1     -41.712  54.414 -53.111  1.00  0.00    -0.049 A 
HETATM    9  C   UNL     1     -40.746  55.045 -53.904  1.00  0.00     0.010 A 
HETATM   10  C   UNL     1     -41.125  55.792 -55.022  1.00  0.00     0.030 A 
BRANCH   8  11
HETATM   11  C   UNL     1     -41.316  53.731 -51.823  1.00  0.00     0.141 C 
BRANCH  11  12
HETATM   12  C   UNL     1     -40.296  52.611 -51.901  1.00  0.00     0.222 C 
HETATM   13  N   UNL     1     -40.506  51.650 -52.863  1.00  0.00    -0.357 N 
HETATM   14  H   UNL     1     -41.368  51.681 -53.393  1.00  0.00     0.162 HD
HETATM   15  O   UNL     1     -39.293  52.638 -51.188  1.00  0.00    -0.273 OA
BRANCH  13  16
HETATM   16  C   UNL     1     -39.563  50.580 -53.171  1.00  0.00     0.076 C 
HETATM   17  C   UNL     1     -39.608  49.468 -52.125  1.00  0.00     0.032 C 
HETATM   18  C   UNL     1     -39.733  50.028 -54.584  1.00  0.00     0.032 C 
ENDBRANCH  13  16
ENDBRANCH  11  12
ENDBRANCH   8  11
ENDBRANCH   2   5
BRANCH   1  19
HETATM   19  C   UNL     1     -43.761  57.746 -58.347  1.00  0.00     0.157 A 
HETATM   20  C   UNL     1     -44.867  57.852 -59.241  1.00  0.00     0.029 A 
HETATM   21  C   UNL     1     -45.799  56.965 -59.818  1.00  0.00     0.023 A 
HETATM   22  C   UNL     1     -44.975  59.209 -59.521  1.00  0.00     0.063 A 
HETATM   23  C   UNL     1     -46.811  57.469 -60.653  1.00  0.00    -0.061 A 
HETATM   24  C   UNL     1     -47.816  56.544 -61.275  1.00  0.00     0.048 C 
HETATM   25  C   UNL     1     -46.886  58.845 -60.904  1.00  0.00     0.009 A 
HETATM   26  C   UNL     1     -45.969  59.743 -60.346  1.00  0.00     0.032 A 
HETATM   27  N   UNL     1     -43.957  59.803 -58.831  1.00  0.00    -0.277 N 
HETATM   28  H   UNL     1     -43.732  60.791 -58.804  1.00  0.00     0.189 HD
HETATM   29  N   UNL     1     -43.204  58.956 -58.104  1.00  0.00    -0.168 NA
ENDBRANCH   1  19
TORSDOF 5
ENDMDL
MODEL 9
REMARK VINA RESULT:      -7.2      6.396      9.781
REMARK  5 active torsions:
REMARK  status: ('A' for Active; 'I' for Inactive)
REMARK    1  A    between atoms: C_9  and  C_10 
REMARK       I    between atoms: C_10  and  N_11 
REMARK    2  A    between atoms: N_11  and  C_12 
REMARK    3  A    between atoms: C_15  and  C_16 
REMARK    4  A    between atoms: C_16  and  C_17 
REMARK       I    between atoms: C_17  and  N_18 
REMARK    5  A    between atoms: N_18  and  C_19 
ROOT
HETATM    1  C   UNL     1     -45.743  59.601 -50.851  1.00  0.00     0.277 C 
HETATM    2  N   UNL     1     -44.878  59.357 -51.903  1.00  0.00    -0.322 N 
HETATM    3  O   UNL     1     -46.464  58.779 -50.297  1.00  0.00    -0.266 OA
HETATM    4  H   UNL     1     -44.396  60.196 -52.218  1.00  0.00     0.169 HD
ENDROOT
BRANCH   2   5
HETATM    5  C   UNL     1     -44.455  58.122 -52.418  1.00  0.00     0.035 A 
HETATM    6  C   UNL     1     -43.608  57.242 -51.743  1.00  0.00     0.030 A 
HETATM    7  C   UNL     1     -43.112  56.100 -52.387  1.00  0.00     0.010 A 
HETATM    8  C   UNL     1     -43.458  55.822 -53.715  1.00  0.00    -0.049 A 
HETATM    9  C   UNL     1     -44.363  56.669 -54.365  1.00  0.00     0.010 A 
HETATM   10  C   UNL     1     -44.858  57.806 -53.720  1.00  0.00     0.030 A 
BRANCH   8  11
HETATM   11  C   UNL     1     -42.812  54.678 -54.460  1.00  0.00     0.141 C 
BRANCH  11  12
HETATM   12  C   UNL     1     -41.418  54.256 -54.034  1.00  0.00     0.222 C 
HETATM   13  N   UNL     1     -41.312  53.052 -53.376  1.00  0.00    -0.357 N 
HETATM   14  H   UNL     1     -42.163  52.567 -53.121  1.00  0.00     0.162 HD
HETATM   15  O   UNL     1     -40.442  54.931 -54.357  1.00  0.00    -0.273 OA
BRANCH  13  16
HETATM   16  C   UNL     1     -40.045  52.426 -53.014  1.00  0.00     0.076 C 
HETATM   17  C   UNL     1     -39.961  52.140 -51.515  1.00  0.00     0.032 C 
HETATM   18  C   UNL     1     -39.742  51.179 -53.840  1.00  0.00     0.032 C 
ENDBRANCH  13  16
ENDBRANCH  11  12
ENDBRANCH   8  11
ENDBRANCH   2   5
BRANCH   1  19
HETATM   19  C   UNL     1     -45.669  61.010 -50.411  1.00  0.00     0.157 A 
HETATM   20  C   UNL     1     -45.455  61.498 -49.089  1.00  0.00     0.029 A 
HETATM   21  C   UNL     1     -45.287  60.931 -47.809  1.00  0.00     0.023 A 
HETATM   22  C   UNL     1     -45.382  62.879 -49.221  1.00  0.00     0.063 A 
HETATM   23  C   UNL     1     -45.047  61.768 -46.705  1.00  0.00    -0.061 A 
HETATM   24  C   UNL     1     -44.861  61.186 -45.334  1.00  0.00     0.048 C 
HETATM   25  C   UNL     1     -44.976  63.155 -46.886  1.00  0.00     0.009 A 
HETATM   26  C   UNL     1     -45.145  63.740 -48.146  1.00  0.00     0.032 A 
HETATM   27  N   UNL     1     -45.576  63.125 -50.551  1.00  0.00    -0.277 N 
HETATM   28  H   UNL     1     -45.587  64.030 -51.010  1.00  0.00     0.189 HD
HETATM   29  N   UNL     1     -45.746  62.023 -51.305  1.00  0.00    -0.168 NA
ENDBRANCH   1  19
TORSDOF 5
ENDMDL
MODEL 10
REMARK VINA RESULT:      -7.1     16.152     21.092
REMARK  5 active torsions:
REMARK  status: ('A' for Active; 'I' for Inactive)
REMARK    1  A    between atoms: C_9  and  C_10 
REMARK       I    between atoms: C_10  and  N_11 
REMARK    2  A    between atoms: N_11  and  C_12 
REMARK    3  A    between atoms: C_15  and  C_16 
REMARK    4  A    between atoms: C_16  and  C_17 
REMARK       I    between atoms: C_17  and  N_18 
REMARK    5  A    between atoms: N_18  and  C_19 
ROOT
HETATM    1  C   UNL     1     -34.815  41.657 -51.781  1.00  0.00     0.277 C 
HETATM    2  N   UNL     1     -34.643  40.315 -51.491  1.00  0.00    -0.322 N 
HETATM    3  O   UNL     1     -34.492  42.601 -51.069  1.00  0.00    -0.266 OA
HETATM    4  H   UNL     1     -35.008  39.705 -52.220  1.00  0.00     0.169 HD
ENDROOT
BRANCH   2   5
HETATM    5  C   UNL     1     -33.879  39.733 -50.468  1.00  0.00     0.035 A 
HETATM    6  C   UNL     1     -34.411  38.939 -49.450  1.00  0.00     0.030 A 
HETATM    7  C   UNL     1     -33.606  38.520 -48.383  1.00  0.00     0.010 A 
HETATM    8  C   UNL     1     -32.257  38.889 -48.318  1.00  0.00    -0.049 A 
HETATM    9  C   UNL     1     -31.710  39.626 -49.375  1.00  0.00     0.010 A 
HETATM   10  C   UNL     1     -32.514  40.041 -50.441  1.00  0.00     0.030 A 
BRANCH   8  11
HETATM   11  C   UNL     1     -31.424  38.568 -47.100  1.00  0.00     0.141 C 
BRANCH  11  12
HETATM   12  C   UNL     1     -30.258  39.484 -46.779  1.00  0.00     0.222 C 
HETATM   13  N   UNL     1     -29.021  38.892 -46.662  1.00  0.00    -0.357 N 
HETATM   14  H   UNL     1     -28.967  37.881 -46.692  1.00  0.00     0.162 HD
HETATM   15  O   UNL     1     -30.425  40.702 -46.724  1.00  0.00    -0.273 OA
BRANCH  13  16
HETATM   16  C   UNL     1     -27.774  39.628 -46.492  1.00  0.00     0.076 C 
HETATM   17  C   UNL     1     -26.913  39.037 -45.376  1.00  0.00     0.032 C 
HETATM   18  C   UNL     1     -26.986  39.769 -47.792  1.00  0.00     0.032 C 
ENDBRANCH  13  16
ENDBRANCH  11  12
ENDBRANCH   8  11
ENDBRANCH   2   5
BRANCH   1  19
HETATM   19  C   UNL     1     -35.411  41.845 -53.119  1.00  0.00     0.157 A 
HETATM   20  C   UNL     1     -34.846  41.493 -54.381  1.00  0.00     0.029 A 
HETATM   21  C   UNL     1     -33.632  40.936 -54.832  1.00  0.00     0.023 A 
HETATM   22  C   UNL     1     -35.831  41.791 -55.314  1.00  0.00     0.063 A 
HETATM   23  C   UNL     1     -33.450  40.691 -56.205  1.00  0.00    -0.061 A 
HETATM   24  C   UNL     1     -32.168  40.094 -56.708  1.00  0.00     0.048 C 
HETATM   25  C   UNL     1     -34.473  41.002 -57.109  1.00  0.00     0.009 A 
HETATM   26  C   UNL     1     -35.683  41.561 -56.684  1.00  0.00     0.032 A 
HETATM   27  N   UNL     1     -36.871  42.305 -54.590  1.00  0.00    -0.277 N 
HETATM   28  H   UNL     1     -37.762  42.631 -54.948  1.00  0.00     0.189 HD
HETATM   29  N   UNL     1     -36.660  42.348 -53.262  1.00  0.00    -0.168 NA
ENDBRANCH   1  19
TORSDOF 5
ENDMDL
