MODEL 1
REMARK VINA RESULT:      -7.7      0.000      0.000
REMARK  7 active torsions:
REMARK  status: ('A' for Active; 'I' for Inactive)
REMARK    1  A    between atoms: C_2  and  C_3 
REMARK    2  A    between atoms: N_4  and  C_5 
REMARK    3  A    between atoms: C_13  and  C_14 
REMARK       I    between atoms: C_14  and  N_15 
REMARK    4  A    between atoms: N_15  and  N_16 
REMARK       I    between atoms: N_16  and  C_17 
REMARK    5  A    between atoms: C_17  and  C_18 
REMARK    6  A    between atoms: C_22  and  C_23 
REMARK    7  A    between atoms: C_26  and  O_27 
ROOT
HETATM    1  N   UNL     1     -43.943  56.130 -57.543  1.00  0.00    -0.262 N 
HETATM    2  C   UNL     1     -43.926  56.160 -58.920  1.00  0.00     0.288 C 
HETATM    3  O   UNL     1     -43.173  55.444 -59.578  1.00  0.00    -0.264 OA
HETATM    4  H   UNL     1     -44.621  56.638 -56.979  1.00  0.00     0.190 HD
ENDROOT
BRANCH   1   5
HETATM    5  N   UNL     1     -43.119  55.231 -56.853  1.00  0.00    -0.263 N 
HETATM    6  C   UNL     1     -42.417  55.712 -55.770  1.00  0.00     0.273 C 
HETATM    7  O   UNL     1     -42.502  56.899 -55.445  1.00  0.00    -0.266 OA
HETATM    8  H   UNL     1     -43.258  54.245 -57.046  1.00  0.00     0.190 HD
BRANCH   6   9
HETATM    9  C   UNL     1     -41.600  54.772 -55.017  1.00  0.00     0.077 A 
HETATM   10  C   UNL     1     -41.792  54.109 -53.799  1.00  0.00     0.053 A 
HETATM   11  N   UNL     1     -40.692  53.239 -53.648  1.00  0.00    -0.237 N 
HETATM   12  N   UNL     1     -39.831  53.378 -54.694  1.00  0.00    -0.178 NA
HETATM   13  C   UNL     1     -40.382  54.270 -55.500  1.00  0.00     0.158 A 
BRANCH  10  14
HETATM   14  C   UNL     1     -42.975  54.169 -52.882  1.00  0.00     0.056 C 
HETATM   15  C   UNL     1     -42.881  55.330 -51.898  1.00  0.00     0.011 C 
ENDBRANCH  10  14
BRANCH  11  16
HETATM   16  C   UNL     1     -40.353  52.255 -52.654  1.00  0.00     0.058 A 
HETATM   17  C   UNL     1     -40.465  52.456 -51.276  1.00  0.00     0.031 A 
HETATM   18  C   UNL     1     -40.134  51.436 -50.373  1.00  0.00     0.002 A 
HETATM   19  C   UNL     1     -39.681  50.203 -50.829  1.00  0.00     0.000 A 
HETATM   20  C   UNL     1     -39.547  49.987 -52.194  1.00  0.00     0.002 A 
HETATM   21  C   UNL     1     -39.874  51.003 -53.097  1.00  0.00     0.031 A 
ENDBRANCH  11  16
ENDBRANCH   6   9
ENDBRANCH   1   5
BRANCH   2  22
HETATM   22  C   UNL     1     -44.855  57.080 -59.516  1.00  0.00     0.121 A 
HETATM   23  N   UNL     1     -44.585  58.415 -59.640  1.00  0.00    -0.272 N 
HETATM   24  H   UNL     1     -43.745  58.899 -59.340  1.00  0.00     0.189 HD
HETATM   25  N   UNL     1     -45.558  59.119 -60.238  1.00  0.00    -0.174 NA
HETATM   26  C   UNL     1     -46.521  58.219 -60.497  1.00  0.00     0.089 A 
HETATM   27  C   UNL     1     -46.114  56.928 -60.060  1.00  0.00     0.071 A 
BRANCH  26  28
HETATM   28  C   UNL     1     -47.779  58.588 -61.154  1.00  0.00    -0.005 A 
HETATM   29  C   UNL     1     -48.375  57.729 -62.086  1.00  0.00     0.016 A 
HETATM   30  C   UNL     1     -49.592  58.067 -62.687  1.00  0.00     0.037 A 
HETATM   31  C   UNL     1     -50.235  59.265 -62.374  1.00  0.00     0.068 A 
HETATM   32  C   UNL     1     -49.641  60.135 -61.461  1.00  0.00     0.037 A 
HETATM   33  C   UNL     1     -48.422  59.797 -60.855  1.00  0.00     0.016 A 
BRANCH  31  34
HETATM   34  O   UNL     1     -51.420  59.470 -63.023  1.00  0.00    -0.356 OA
HETATM   35  C   UNL     1     -52.608  59.170 -62.301  1.00  0.00     0.210 C 
ENDBRANCH  31  34
ENDBRANCH  26  28
ENDBRANCH   2  22
TORSDOF 7
ENDMDL
MODEL 2
REMARK VINA RESULT:      -7.6     16.759     23.064
REMARK  7 active torsions:
REMARK  status: ('A' for Active; 'I' for Inactive)
REMARK    1  A    between atoms: C_2  and  C_3 
REMARK    2  A    between atoms: N_4  and  C_5 
REMARK    3  A    between atoms: C_13  and  C_14 
REMARK       I    between atoms: C_14  and  N_15 
REMARK    4  A    between atoms: N_15  and  N_16 
REMARK       I    between atoms: N_16  and  C_17 
REMARK    5  A    between atoms: C_17  and  C_18 
REMARK    6  A    between atoms: C_22  and  C_23 
REMARK    7  A    between atoms: C_26  and  O_27 
ROOT
HETATM    1  N   UNL     1     -33.909  40.115 -51.169  1.00  0.00    -0.262 N 
HETATM    2  C   UNL     1     -33.468  38.928 -50.628  1.00  0.00     0.288 C 
HETATM    3  O   UNL     1     -33.774  37.839 -51.108  1.00  0.00    -0.264 OA
HETATM    4  H   UNL     1     -33.593  41.029 -50.853  1.00  0.00     0.190 HD
ENDROOT
BRANCH   1   5
HETATM    5  N   UNL     1     -34.695  40.104 -52.329  1.00  0.00    -0.263 N 
HETATM    6  C   UNL     1     -35.266  41.295 -52.724  1.00  0.00     0.273 C 
HETATM    7  O   UNL     1     -35.101  42.320 -52.058  1.00  0.00    -0.266 OA
HETATM    8  H   UNL     1     -34.616  39.289 -52.926  1.00  0.00     0.190 HD
BRANCH   6   9
HETATM    9  C   UNL     1     -36.039  41.302 -53.956  1.00  0.00     0.077 A 
HETATM   10  C   UNL     1     -35.680  41.426 -55.304  1.00  0.00     0.053 A 
HETATM   11  N   UNL     1     -36.867  41.245 -56.045  1.00  0.00    -0.237 N 
HETATM   12  N   UNL     1     -37.924  41.061 -55.208  1.00  0.00    -0.178 NA
HETATM   13  C   UNL     1     -37.425  41.082 -53.983  1.00  0.00     0.158 A 
BRANCH  10  14
HETATM   14  C   UNL     1     -34.311  41.573 -55.894  1.00  0.00     0.056 C 
HETATM   15  C   UNL     1     -33.786  40.261 -56.465  1.00  0.00     0.011 C 
ENDBRANCH  10  14
BRANCH  11  16
HETATM   16  C   UNL     1     -37.138  41.188 -57.457  1.00  0.00     0.058 A 
HETATM   17  C   UNL     1     -37.008  42.272 -58.329  1.00  0.00     0.031 A 
HETATM   18  C   UNL     1     -37.273  42.128 -59.698  1.00  0.00     0.002 A 
HETATM   19  C   UNL     1     -37.676  40.902 -60.218  1.00  0.00     0.000 A 
HETATM   20  C   UNL     1     -37.828  39.815 -59.367  1.00  0.00     0.002 A 
HETATM   21  C   UNL     1     -37.567  39.958 -58.000  1.00  0.00     0.031 A 
ENDBRANCH  11  16
ENDBRANCH   6   9
ENDBRANCH   1   5
BRANCH   2  22
HETATM   22  C   UNL     1     -32.622  39.068 -49.474  1.00  0.00     0.121 A 
HETATM   23  N   UNL     1     -31.491  39.835 -49.485  1.00  0.00    -0.272 N 
HETATM   24  H   UNL     1     -31.121  40.370 -50.265  1.00  0.00     0.189 HD
HETATM   25  N   UNL     1     -30.836  39.866 -48.313  1.00  0.00    -0.174 NA
HETATM   26  C   UNL     1     -31.549  39.066 -47.504  1.00  0.00     0.089 A 
HETATM   27  C   UNL     1     -32.679  38.549 -48.197  1.00  0.00     0.071 A 
BRANCH  26  28
HETATM   28  C   UNL     1     -31.163  38.821 -46.111  1.00  0.00    -0.005 A 
HETATM   29  C   UNL     1     -30.063  39.480 -45.549  1.00  0.00     0.016 A 
HETATM   30  C   UNL     1     -29.716  39.272 -44.210  1.00  0.00     0.037 A 
HETATM   31  C   UNL     1     -30.456  38.402 -43.408  1.00  0.00     0.068 A 
HETATM   32  C   UNL     1     -31.543  37.727 -43.963  1.00  0.00     0.037 A 
HETATM   33  C   UNL     1     -31.893  37.937 -45.304  1.00  0.00     0.016 A 
BRANCH  31  34
HETATM   34  O   UNL     1     -30.019  38.295 -42.117  1.00  0.00    -0.356 OA
HETATM   35  C   UNL     1     -28.738  38.840 -41.825  1.00  0.00     0.210 C 
ENDBRANCH  31  34
ENDBRANCH  26  28
ENDBRANCH   2  22
TORSDOF 7
ENDMDL
MODEL 3
REMARK VINA RESULT:      -7.5      2.273     12.188
REMARK  7 active torsions:
REMARK  status: ('A' for Active; 'I' for Inactive)
REMARK    1  A    between atoms: C_2  and  C_3 
REMARK    2  A    between atoms: N_4  and  C_5 
REMARK    3  A    between atoms: C_13  and  C_14 
REMARK       I    between atoms: C_14  and  N_15 
REMARK    4  A    between atoms: N_15  and  N_16 
REMARK       I    between atoms: N_16  and  C_17 
REMARK    5  A    between atoms: C_17  and  C_18 
REMARK    6  A    between atoms: C_22  and  C_23 
REMARK    7  A    between atoms: C_26  and  O_27 
ROOT
HETATM    1  N   UNL     1     -43.986  56.560 -57.187  1.00  0.00    -0.262 N 
HETATM    2  C   UNL     1     -43.731  57.077 -55.936  1.00  0.00     0.288 C 
HETATM    3  O   UNL     1     -44.316  58.070 -55.510  1.00  0.00    -0.264 OA
HETATM    4  H   UNL     1     -43.590  55.687 -57.525  1.00  0.00     0.190 HD
ENDROOT
BRANCH   1   5
HETATM    5  N   UNL     1     -44.973  57.141 -57.995  1.00  0.00    -0.263 N 
HETATM    6  C   UNL     1     -45.149  56.623 -59.259  1.00  0.00     0.273 C 
HETATM    7  O   UNL     1     -44.441  55.696 -59.661  1.00  0.00    -0.266 OA
HETATM    8  H   UNL     1     -45.642  57.747 -57.533  1.00  0.00     0.190 HD
BRANCH   6   9
HETATM    9  C   UNL     1     -46.207  57.186 -60.084  1.00  0.00     0.077 A 
HETATM   10  C   UNL     1     -46.510  58.495 -60.479  1.00  0.00     0.053 A 
HETATM   11  N   UNL     1     -47.596  58.393 -61.373  1.00  0.00    -0.237 N 
HETATM   12  N   UNL     1     -47.985  57.095 -61.501  1.00  0.00    -0.178 NA
HETATM   13  C   UNL     1     -47.152  56.392 -60.751  1.00  0.00     0.158 A 
BRANCH  10  14
HETATM   14  C   UNL     1     -45.771  59.759 -60.161  1.00  0.00     0.056 C 
HETATM   15  C   UNL     1     -44.465  59.873 -60.939  1.00  0.00     0.011 C 
ENDBRANCH  10  14
BRANCH  11  16
HETATM   16  C   UNL     1     -48.307  59.365 -62.162  1.00  0.00     0.058 A 
HETATM   17  C   UNL     1     -47.841  59.895 -63.368  1.00  0.00     0.031 A 
HETATM   18  C   UNL     1     -48.606  60.824 -64.086  1.00  0.00     0.002 A 
HETATM   19  C   UNL     1     -49.844  61.243 -63.611  1.00  0.00     0.000 A 
HETATM   20  C   UNL     1     -50.320  60.742 -62.406  1.00  0.00     0.002 A 
HETATM   21  C   UNL     1     -49.557  59.818 -61.686  1.00  0.00     0.031 A 
ENDBRANCH  11  16
ENDBRANCH   6   9
ENDBRANCH   1   5
BRANCH   2  22
HETATM   22  C   UNL     1     -42.740  56.363 -55.178  1.00  0.00     0.121 A 
HETATM   23  N   UNL     1     -41.716  56.997 -54.531  1.00  0.00    -0.272 N 
HETATM   24  H   UNL     1     -41.533  57.995 -54.507  1.00  0.00     0.189 HD
HETATM   25  N   UNL     1     -40.899  56.173 -53.857  1.00  0.00    -0.174 NA
HETATM   26  C   UNL     1     -41.385  54.943 -54.091  1.00  0.00     0.089 A 
HETATM   27  C   UNL     1     -42.542  55.023 -54.914  1.00  0.00     0.071 A 
BRANCH  26  28
HETATM   28  C   UNL     1     -40.766  53.739 -53.528  1.00  0.00    -0.005 A 
HETATM   29  C   UNL     1     -40.515  53.642 -52.155  1.00  0.00     0.016 A 
HETATM   30  C   UNL     1     -39.955  52.479 -51.615  1.00  0.00     0.037 A 
HETATM   31  C   UNL     1     -39.633  51.394 -52.432  1.00  0.00     0.068 A 
HETATM   32  C   UNL     1     -39.863  51.489 -53.804  1.00  0.00     0.037 A 
HETATM   33  C   UNL     1     -40.427  52.652 -54.347  1.00  0.00     0.016 A 
BRANCH  31  34
HETATM   34  O   UNL     1     -39.103  50.317 -51.779  1.00  0.00    -0.356 OA
HETATM   35  C   UNL     1     -39.833  49.817 -50.666  1.00  0.00     0.210 C 
ENDBRANCH  31  34
ENDBRANCH  26  28
ENDBRANCH   2  22
TORSDOF 7
ENDMDL
MODEL 4
REMARK VINA RESULT:      -7.3      2.307     12.107
REMARK  7 active torsions:
REMARK  status: ('A' for Active; 'I' for Inactive)
REMARK    1  A    between atoms: C_2  and  C_3 
REMARK    2  A    between atoms: N_4  and  C_5 
REMARK    3  A    between atoms: C_13  and  C_14 
REMARK       I    between atoms: C_14  and  N_15 
REMARK    4  A    between atoms: N_15  and  N_16 
REMARK       I    between atoms: N_16  and  C_17 
REMARK    5  A    between atoms: C_17  and  C_18 
REMARK    6  A    between atoms: C_22  and  C_23 
REMARK    7  A    between atoms: C_26  and  O_27 
ROOT
HETATM    1  N   UNL     1     -43.963  56.441 -57.211  1.00  0.00    -0.262 N 
HETATM    2  C   UNL     1     -42.696  56.878 -56.892  1.00  0.00     0.288 C 
HETATM    3  O   UNL     1     -42.150  57.795 -57.502  1.00  0.00    -0.264 OA
HETATM    4  H   UNL     1     -44.475  55.754 -56.663  1.00  0.00     0.190 HD
ENDROOT
BRANCH   1   5
HETATM    5  N   UNL     1     -44.686  57.079 -58.229  1.00  0.00    -0.263 N 
HETATM    6  C   UNL     1     -45.666  57.971 -57.851  1.00  0.00     0.273 C 
HETATM    7  O   UNL     1     -45.904  58.173 -56.658  1.00  0.00    -0.266 OA
HETATM    8  H   UNL     1     -44.302  57.022 -59.165  1.00  0.00     0.190 HD
BRANCH   6   9
HETATM    9  C   UNL     1     -46.385  58.676 -58.902  1.00  0.00     0.077 A 
HETATM   10  C   UNL     1     -47.170  58.238 -59.976  1.00  0.00     0.053 A 
HETATM   11  N   UNL     1     -47.691  59.401 -60.580  1.00  0.00    -0.237 N 
HETATM   12  N   UNL     1     -47.226  60.513 -59.948  1.00  0.00    -0.178 NA
HETATM   13  C   UNL     1     -46.471  60.076 -58.954  1.00  0.00     0.158 A 
BRANCH  10  14
HETATM   14  C   UNL     1     -47.530  56.835 -60.355  1.00  0.00     0.056 C 
HETATM   15  C   UNL     1     -46.439  56.166 -61.184  1.00  0.00     0.011 C 
ENDBRANCH  10  14
BRANCH  11  16
HETATM   16  C   UNL     1     -48.610  59.609 -61.668  1.00  0.00     0.058 A 
HETATM   17  C   UNL     1     -49.917  60.079 -61.517  1.00  0.00     0.031 A 
HETATM   18  C   UNL     1     -50.742  60.275 -62.633  1.00  0.00     0.002 A 
HETATM   19  C   UNL     1     -50.280  60.000 -63.915  1.00  0.00     0.000 A 
HETATM   20  C   UNL     1     -48.989  59.517 -64.087  1.00  0.00     0.002 A 
HETATM   21  C   UNL     1     -48.165  59.318 -62.976  1.00  0.00     0.031 A 
ENDBRANCH  11  16
ENDBRANCH   6   9
ENDBRANCH   1   5
BRANCH   2  22
HETATM   22  C   UNL     1     -42.077  56.186 -55.795  1.00  0.00     0.121 A 
HETATM   23  N   UNL     1     -41.642  56.833 -54.673  1.00  0.00    -0.272 N 
HETATM   24  H   UNL     1     -41.694  57.829 -54.483  1.00  0.00     0.189 HD
HETATM   25  N   UNL     1     -41.109  56.025 -53.744  1.00  0.00    -0.174 NA
HETATM   26  C   UNL     1     -41.168  54.798 -54.285  1.00  0.00     0.089 A 
HETATM   27  C   UNL     1     -41.773  54.858 -55.571  1.00  0.00     0.071 A 
BRANCH  26  28
HETATM   28  C   UNL     1     -40.676  53.609 -53.581  1.00  0.00    -0.005 A 
HETATM   29  C   UNL     1     -40.160  52.521 -54.295  1.00  0.00     0.016 A 
HETATM   30  C   UNL     1     -39.659  51.402 -53.622  1.00  0.00     0.037 A 
HETATM   31  C   UNL     1     -39.666  51.345 -52.227  1.00  0.00     0.068 A 
HETATM   32  C   UNL     1     -40.193  52.416 -51.508  1.00  0.00     0.037 A 
HETATM   33  C   UNL     1     -40.693  53.541 -52.181  1.00  0.00     0.016 A 
BRANCH  31  34
HETATM   34  O   UNL     1     -39.139  50.202 -51.694  1.00  0.00    -0.356 OA
HETATM   35  C   UNL     1     -39.674  49.766 -50.451  1.00  0.00     0.210 C 
ENDBRANCH  31  34
ENDBRANCH  26  28
ENDBRANCH   2  22
TORSDOF 7
ENDMDL
MODEL 5
REMARK VINA RESULT:      -7.3     18.006     22.916
REMARK  7 active torsions:
REMARK  status: ('A' for Active; 'I' for Inactive)
REMARK    1  A    between atoms: C_2  and  C_3 
REMARK    2  A    between atoms: N_4  and  C_5 
REMARK    3  A    between atoms: C_13  and  C_14 
REMARK       I    between atoms: C_14  and  N_15 
REMARK    4  A    between atoms: N_15  and  N_16 
REMARK       I    between atoms: N_16  and  C_17 
REMARK    5  A    between atoms: C_17  and  C_18 
REMARK    6  A    between atoms: C_22  and  C_23 
REMARK    7  A    between atoms: C_26  and  O_27 
ROOT
HETATM    1  N   UNL     1     -33.517  40.199 -52.990  1.00  0.00    -0.262 N 
HETATM    2  C   UNL     1     -34.031  39.886 -51.751  1.00  0.00     0.288 C 
HETATM    3  O   UNL     1     -35.232  39.692 -51.573  1.00  0.00    -0.264 OA
HETATM    4  H   UNL     1     -32.521  40.269 -53.183  1.00  0.00     0.190 HD
ENDROOT
BRANCH   1   5
HETATM    5  N   UNL     1     -34.366  40.257 -54.104  1.00  0.00    -0.263 N 
HETATM    6  C   UNL     1     -33.793  40.524 -55.328  1.00  0.00     0.273 C 
HETATM    7  O   UNL     1     -32.581  40.727 -55.422  1.00  0.00    -0.266 OA
HETATM    8  H   UNL     1     -35.300  39.882 -53.985  1.00  0.00     0.190 HD
BRANCH   6   9
HETATM    9  C   UNL     1     -34.660  40.533 -56.496  1.00  0.00     0.077 A 
HETATM   10  C   UNL     1     -35.188  39.513 -57.297  1.00  0.00     0.053 A 
HETATM   11  N   UNL     1     -36.054  40.143 -58.216  1.00  0.00    -0.237 N 
HETATM   12  N   UNL     1     -36.040  41.492 -58.032  1.00  0.00    -0.178 NA
HETATM   13  C   UNL     1     -35.230  41.709 -57.009  1.00  0.00     0.158 A 
BRANCH  10  14
HETATM   14  C   UNL     1     -35.013  38.032 -57.155  1.00  0.00     0.056 C 
HETATM   15  C   UNL     1     -34.223  37.433 -58.313  1.00  0.00     0.011 C 
ENDBRANCH  10  14
BRANCH  11  16
HETATM   16  C   UNL     1     -36.932  39.635 -59.237  1.00  0.00     0.058 A 
HETATM   17  C   UNL     1     -36.609  39.574 -60.595  1.00  0.00     0.031 A 
HETATM   18  C   UNL     1     -37.515  39.045 -61.524  1.00  0.00     0.002 A 
HETATM   19  C   UNL     1     -38.758  38.573 -61.116  1.00  0.00     0.000 A 
HETATM   20  C   UNL     1     -39.106  38.639 -59.773  1.00  0.00     0.002 A 
HETATM   21  C   UNL     1     -38.206  39.170 -58.844  1.00  0.00     0.031 A 
ENDBRANCH  11  16
ENDBRANCH   6   9
ENDBRANCH   1   5
BRANCH   2  22
HETATM   22  C   UNL     1     -33.057  39.800 -50.697  1.00  0.00     0.121 A 
HETATM   23  N   UNL     1     -31.721  39.987 -50.919  1.00  0.00    -0.272 N 
HETATM   24  H   UNL     1     -31.271  40.195 -51.805  1.00  0.00     0.189 HD
HETATM   25  N   UNL     1     -30.962  39.889 -49.817  1.00  0.00    -0.174 NA
HETATM   26  C   UNL     1     -31.827  39.599 -48.832  1.00  0.00     0.089 A 
HETATM   27  C   UNL     1     -33.152  39.538 -49.346  1.00  0.00     0.071 A 
BRANCH  26  28
HETATM   28  C   UNL     1     -31.394  39.404 -47.444  1.00  0.00    -0.005 A 
HETATM   29  C   UNL     1     -30.448  40.257 -46.866  1.00  0.00     0.016 A 
HETATM   30  C   UNL     1     -30.061  40.091 -45.532  1.00  0.00     0.037 A 
HETATM   31  C   UNL     1     -30.606  39.070 -44.752  1.00  0.00     0.068 A 
HETATM   32  C   UNL     1     -31.536  38.204 -45.324  1.00  0.00     0.037 A 
HETATM   33  C   UNL     1     -31.928  38.370 -46.661  1.00  0.00     0.016 A 
BRANCH  31  34
HETATM   34  O   UNL     1     -30.151  39.023 -43.464  1.00  0.00    -0.356 OA
HETATM   35  C   UNL     1     -28.902  39.648 -43.200  1.00  0.00     0.210 C 
ENDBRANCH  31  34
ENDBRANCH  26  28
ENDBRANCH   2  22
TORSDOF 7
ENDMDL
MODEL 6
REMARK VINA RESULT:      -6.9      1.975      2.533
REMARK  7 active torsions:
REMARK  status: ('A' for Active; 'I' for Inactive)
REMARK    1  A    between atoms: C_2  and  C_3 
REMARK    2  A    between atoms: N_4  and  C_5 
REMARK    3  A    between atoms: C_13  and  C_14 
REMARK       I    between atoms: C_14  and  N_15 
REMARK    4  A    between atoms: N_15  and  N_16 
REMARK       I    between atoms: N_16  and  C_17 
REMARK    5  A    between atoms: C_17  and  C_18 
REMARK    6  A    between atoms: C_22  and  C_23 
REMARK    7  A    between atoms: C_26  and  O_27 
ROOT
HETATM    1  N   UNL     1     -43.694  56.542 -57.274  1.00  0.00    -0.262 N 
HETATM    2  C   UNL     1     -43.959  56.523 -58.625  1.00  0.00     0.288 C 
HETATM    3  O   UNL     1     -43.437  55.706 -59.381  1.00  0.00    -0.264 OA
HETATM    4  H   UNL     1     -44.183  57.141 -56.614  1.00  0.00     0.190 HD
ENDROOT
BRANCH   1   5
HETATM    5  N   UNL     1     -42.840  55.580 -56.717  1.00  0.00    -0.263 N 
HETATM    6  C   UNL     1     -42.459  55.750 -55.404  1.00  0.00     0.273 C 
HETATM    7  O   UNL     1     -42.843  56.731 -54.762  1.00  0.00    -0.266 OA
HETATM    8  H   UNL     1     -42.738  54.711 -57.228  1.00  0.00     0.190 HD
BRANCH   6   9
HETATM    9  C   UNL     1     -41.617  54.728 -54.802  1.00  0.00     0.077 A 
HETATM   10  C   UNL     1     -41.727  53.974 -53.627  1.00  0.00     0.053 A 
HETATM   11  N   UNL     1     -40.652  53.061 -53.644  1.00  0.00    -0.237 N 
HETATM   12  N   UNL     1     -39.880  53.258 -54.748  1.00  0.00    -0.178 NA
HETATM   13  C   UNL     1     -40.464  54.229 -55.430  1.00  0.00     0.158 A 
BRANCH  10  14
HETATM   14  C   UNL     1     -42.823  53.996 -52.606  1.00  0.00     0.056 C 
HETATM   15  C   UNL     1     -42.573  55.033 -51.518  1.00  0.00     0.011 C 
ENDBRANCH  10  14
BRANCH  11  16
HETATM   16  C   UNL     1     -40.266  51.990 -52.764  1.00  0.00     0.058 A 
HETATM   17  C   UNL     1     -40.216  52.093 -51.371  1.00  0.00     0.031 A 
HETATM   18  C   UNL     1     -39.849  50.994 -50.583  1.00  0.00     0.002 A 
HETATM   19  C   UNL     1     -39.522  49.776 -51.171  1.00  0.00     0.000 A 
HETATM   20  C   UNL     1     -39.549  49.656 -52.554  1.00  0.00     0.002 A 
HETATM   21  C   UNL     1     -39.911  50.752 -53.343  1.00  0.00     0.031 A 
ENDBRANCH  11  16
ENDBRANCH   6   9
ENDBRANCH   1   5
BRANCH   2  22
HETATM   22  C   UNL     1     -44.893  57.521 -59.071  1.00  0.00     0.121 A 
HETATM   23  N   UNL     1     -45.224  57.677 -60.388  1.00  0.00    -0.272 N 
HETATM   24  H   UNL     1     -44.870  57.142 -61.175  1.00  0.00     0.189 HD
HETATM   25  N   UNL     1     -46.125  58.645 -60.617  1.00  0.00    -0.174 NA
HETATM   26  C   UNL     1     -46.380  59.167 -59.407  1.00  0.00     0.089 A 
HETATM   27  C   UNL     1     -45.627  58.486 -58.411  1.00  0.00     0.071 A 
BRANCH  26  28
HETATM   28  C   UNL     1     -47.326  60.271 -59.216  1.00  0.00    -0.005 A 
HETATM   29  C   UNL     1     -46.979  61.380 -58.436  1.00  0.00     0.016 A 
HETATM   30  C   UNL     1     -47.870  62.448 -58.282  1.00  0.00     0.037 A 
HETATM   31  C   UNL     1     -49.122  62.429 -58.899  1.00  0.00     0.068 A 
HETATM   32  C   UNL     1     -49.483  61.321 -59.664  1.00  0.00     0.037 A 
HETATM   33  C   UNL     1     -48.591  60.250 -59.821  1.00  0.00     0.016 A 
BRANCH  31  34
HETATM   34  O   UNL     1     -49.891  63.537 -58.677  1.00  0.00    -0.356 OA
HETATM   35  C   UNL     1     -50.565  63.612 -57.427  1.00  0.00     0.210 C 
ENDBRANCH  31  34
ENDBRANCH  26  28
ENDBRANCH   2  22
TORSDOF 7
ENDMDL
MODEL 7
REMARK VINA RESULT:      -6.9      2.398     12.318
REMARK  7 active torsions:
REMARK  status: ('A' for Active; 'I' for Inactive)
REMARK    1  A    between atoms: C_2  and  C_3 
REMARK    2  A    between atoms: N_4  and  C_5 
REMARK    3  A    between atoms: C_13  and  C_14 
REMARK       I    between atoms: C_14  and  N_15 
REMARK    4  A    between atoms: N_15  and  N_16 
REMARK       I    between atoms: N_16  and  C_17 
REMARK    5  A    between atoms: C_17  and  C_18 
REMARK    6  A    between atoms: C_22  and  C_23 
REMARK    7  A    between atoms: C_26  and  O_27 
ROOT
HETATM    1  N   UNL     1     -44.306  56.916 -57.404  1.00  0.00    -0.262 N 
HETATM    2  C   UNL     1     -43.257  56.061 -57.655  1.00  0.00     0.288 C 
HETATM    3  O   UNL     1     -42.999  55.661 -58.789  1.00  0.00    -0.264 OA
HETATM    4  H   UNL     1     -44.482  57.338 -56.494  1.00  0.00     0.190 HD
ENDROOT
BRANCH   1   5
HETATM    5  N   UNL     1     -45.088  57.394 -58.464  1.00  0.00    -0.263 N 
HETATM    6  C   UNL     1     -46.305  57.961 -58.154  1.00  0.00     0.273 C 
HETATM    7  O   UNL     1     -46.690  58.018 -56.984  1.00  0.00    -0.266 OA
HETATM    8  H   UNL     1     -44.625  57.500 -59.360  1.00  0.00     0.190 HD
BRANCH   6   9
HETATM    9  C   UNL     1     -47.098  58.507 -59.245  1.00  0.00     0.077 A 
HETATM   10  C   UNL     1     -47.902  59.648 -59.358  1.00  0.00     0.053 A 
HETATM   11  N   UNL     1     -48.321  59.700 -60.704  1.00  0.00    -0.237 N 
HETATM   12  N   UNL     1     -47.843  58.627 -61.392  1.00  0.00    -0.178 NA
HETATM   13  C   UNL     1     -47.113  57.940 -60.529  1.00  0.00     0.158 A 
BRANCH  10  14
HETATM   14  C   UNL     1     -48.172  60.703 -58.331  1.00  0.00     0.056 C 
HETATM   15  C   UNL     1     -49.548  60.547 -57.694  1.00  0.00     0.011 C 
ENDBRANCH  10  14
BRANCH  11  16
HETATM   16  C   UNL     1     -49.096  60.657 -61.450  1.00  0.00     0.058 A 
HETATM   17  C   UNL     1     -48.549  61.643 -62.274  1.00  0.00     0.031 A 
HETATM   18  C   UNL     1     -49.376  62.525 -62.984  1.00  0.00     0.002 A 
HETATM   19  C   UNL     1     -50.760  62.440 -62.880  1.00  0.00     0.000 A 
HETATM   20  C   UNL     1     -51.325  61.477 -62.054  1.00  0.00     0.002 A 
HETATM   21  C   UNL     1     -50.503  60.599 -61.342  1.00  0.00     0.031 A 
ENDBRANCH  11  16
ENDBRANCH   6   9
ENDBRANCH   1   5
BRANCH   2  22
HETATM   22  C   UNL     1     -42.493  55.685 -56.497  1.00  0.00     0.121 A 
HETATM   23  N   UNL     1     -41.720  56.578 -55.809  1.00  0.00    -0.272 N 
HETATM   24  H   UNL     1     -41.589  57.563 -56.019  1.00  0.00     0.189 HD
HETATM   25  N   UNL     1     -41.093  56.056 -54.743  1.00  0.00    -0.174 NA
HETATM   26  C   UNL     1     -41.445  54.760 -54.741  1.00  0.00     0.089 A 
HETATM   27  C   UNL     1     -42.326  54.491 -55.826  1.00  0.00     0.071 A 
BRANCH  26  28
HETATM   28  C   UNL     1     -40.964  53.822 -53.724  1.00  0.00    -0.005 A 
HETATM   29  C   UNL     1     -41.168  54.079 -52.363  1.00  0.00     0.016 A 
HETATM   30  C   UNL     1     -40.737  53.166 -51.394  1.00  0.00     0.037 A 
HETATM   31  C   UNL     1     -40.094  51.984 -51.762  1.00  0.00     0.068 A 
HETATM   32  C   UNL     1     -39.870  51.727 -53.114  1.00  0.00     0.037 A 
HETATM   33  C   UNL     1     -40.303  52.639 -54.087  1.00  0.00     0.016 A 
BRANCH  31  34
HETATM   34  O   UNL     1     -39.734  51.175 -50.721  1.00  0.00    -0.356 OA
HETATM   35  C   UNL     1     -39.508  49.803 -51.020  1.00  0.00     0.210 C 
ENDBRANCH  31  34
ENDBRANCH  26  28
ENDBRANCH   2  22
TORSDOF 7
ENDMDL
MODEL 8
REMARK VINA RESULT:      -6.7      3.061     12.310
REMARK  7 active torsions:
REMARK  status: ('A' for Active; 'I' for Inactive)
REMARK    1  A    between atoms: C_2  and  C_3 
REMARK    2  A    between atoms: N_4  and  C_5 
REMARK    3  A    between atoms: C_13  and  C_14 
REMARK       I    between atoms: C_14  and  N_15 
REMARK    4  A    between atoms: N_15  and  N_16 
REMARK       I    between atoms: N_16  and  C_17 
REMARK    5  A    between atoms: C_17  and  C_18 
REMARK    6  A    between atoms: C_22  and  C_23 
REMARK    7  A    between atoms: C_26  and  O_27 
ROOT
HETATM    1  N   UNL     1     -44.492  57.132 -57.041  1.00  0.00    -0.262 N 
HETATM    2  C   UNL     1     -43.173  57.007 -56.666  1.00  0.00     0.288 C 
HETATM    3  O   UNL     1     -42.301  57.765 -57.086  1.00  0.00    -0.264 OA
HETATM    4  H   UNL     1     -45.246  56.583 -56.635  1.00  0.00     0.190 HD
ENDROOT
BRANCH   1   5
HETATM    5  N   UNL     1     -44.881  58.177 -57.891  1.00  0.00    -0.263 N 
HETATM    6  C   UNL     1     -45.210  57.854 -59.189  1.00  0.00     0.273 C 
HETATM    7  O   UNL     1     -45.137  56.687 -59.582  1.00  0.00    -0.266 OA
HETATM    8  H   UNL     1     -45.113  59.060 -57.450  1.00  0.00     0.190 HD
BRANCH   6   9
HETATM    9  C   UNL     1     -45.665  58.925 -60.062  1.00  0.00     0.077 A 
HETATM   10  C   UNL     1     -45.056  60.098 -60.525  1.00  0.00     0.053 A 
HETATM   11  N   UNL     1     -45.964  60.678 -61.436  1.00  0.00    -0.237 N 
HETATM   12  N   UNL     1     -47.101  59.934 -61.510  1.00  0.00    -0.178 NA
HETATM   13  C   UNL     1     -46.909  58.898 -60.710  1.00  0.00     0.158 A 
BRANCH  10  14
HETATM   14  C   UNL     1     -43.672  60.599 -60.252  1.00  0.00     0.056 C 
HETATM   15  C   UNL     1     -43.670  61.805 -59.319  1.00  0.00     0.011 C 
ENDBRANCH  10  14
BRANCH  11  16
HETATM   16  C   UNL     1     -45.889  61.838 -62.284  1.00  0.00     0.058 A 
HETATM   17  C   UNL     1     -44.937  62.020 -63.289  1.00  0.00     0.031 A 
HETATM   18  C   UNL     1     -44.946  63.172 -64.087  1.00  0.00     0.002 A 
HETATM   19  C   UNL     1     -45.903  64.163 -63.892  1.00  0.00     0.000 A 
HETATM   20  C   UNL     1     -46.850  64.011 -62.888  1.00  0.00     0.002 A 
HETATM   21  C   UNL     1     -46.840  62.864 -62.088  1.00  0.00     0.031 A 
ENDBRANCH  11  16
ENDBRANCH   6   9
ENDBRANCH   1   5
BRANCH   2  22
HETATM   22  C   UNL     1     -42.906  55.934 -55.747  1.00  0.00     0.121 A 
HETATM   23  N   UNL     1     -43.901  55.279 -55.078  1.00  0.00    -0.272 N 
HETATM   24  H   UNL     1     -44.899  55.458 -55.137  1.00  0.00     0.189 HD
HETATM   25  N   UNL     1     -43.468  54.292 -54.278  1.00  0.00    -0.174 NA
HETATM   26  C   UNL     1     -42.132  54.314 -54.402  1.00  0.00     0.089 A 
HETATM   27  C   UNL     1     -41.742  55.329 -55.318  1.00  0.00     0.071 A 
BRANCH  26  28
HETATM   28  C   UNL     1     -41.265  53.380 -53.677  1.00  0.00    -0.005 A 
HETATM   29  C   UNL     1     -41.038  53.536 -52.304  1.00  0.00     0.016 A 
HETATM   30  C   UNL     1     -40.237  52.625 -51.607  1.00  0.00     0.037 A 
HETATM   31  C   UNL     1     -39.646  51.545 -52.264  1.00  0.00     0.068 A 
HETATM   32  C   UNL     1     -39.852  51.390 -53.634  1.00  0.00     0.037 A 
HETATM   33  C   UNL     1     -40.656  52.301 -54.335  1.00  0.00     0.016 A 
BRANCH  31  34
HETATM   34  O   UNL     1     -38.898  50.725 -51.467  1.00  0.00    -0.356 OA
HETATM   35  C   UNL     1     -39.562  49.609 -50.888  1.00  0.00     0.210 C 
ENDBRANCH  31  34
ENDBRANCH  26  28
ENDBRANCH   2  22
TORSDOF 7
ENDMDL
MODEL 9
REMARK VINA RESULT:      -6.6      2.555     12.229
REMARK  7 active torsions:
REMARK  status: ('A' for Active; 'I' for Inactive)
REMARK    1  A    between atoms: C_2  and  C_3 
REMARK    2  A    between atoms: N_4  and  C_5 
REMARK    3  A    between atoms: C_13  and  C_14 
REMARK       I    between atoms: C_14  and  N_15 
REMARK    4  A    between atoms: N_15  and  N_16 
REMARK       I    between atoms: N_16  and  C_17 
REMARK    5  A    between atoms: C_17  and  C_18 
REMARK    6  A    between atoms: C_22  and  C_23 
REMARK    7  A    between atoms: C_26  and  O_27 
ROOT
HETATM    1  N   UNL     1     -44.097  56.970 -56.918  1.00  0.00    -0.262 N 
HETATM    2  C   UNL     1     -43.263  55.876 -56.989  1.00  0.00     0.288 C 
HETATM    3  O   UNL     1     -43.187  55.180 -57.999  1.00  0.00    -0.264 OA
HETATM    4  H   UNL     1     -44.108  57.619 -56.134  1.00  0.00     0.190 HD
ENDROOT
BRANCH   1   5
HETATM    5  N   UNL     1     -44.855  57.345 -58.036  1.00  0.00    -0.263 N 
HETATM    6  C   UNL     1     -46.056  57.980 -57.809  1.00  0.00     0.273 C 
HETATM    7  O   UNL     1     -46.449  58.184 -56.658  1.00  0.00    -0.266 OA
HETATM    8  H   UNL     1     -44.381  57.332 -58.933  1.00  0.00     0.190 HD
BRANCH   6   9
HETATM    9  C   UNL     1     -46.823  58.418 -58.965  1.00  0.00     0.077 A 
HETATM   10  C   UNL     1     -47.671  59.511 -59.185  1.00  0.00     0.053 A 
HETATM   11  N   UNL     1     -48.031  59.459 -60.548  1.00  0.00    -0.237 N 
HETATM   12  N   UNL     1     -47.476  58.369 -61.144  1.00  0.00    -0.178 NA
HETATM   13  C   UNL     1     -46.756  57.772 -60.209  1.00  0.00     0.158 A 
BRANCH  10  14
HETATM   14  C   UNL     1     -48.033  60.614 -58.240  1.00  0.00     0.056 C 
HETATM   15  C   UNL     1     -49.460  60.482 -57.721  1.00  0.00     0.011 C 
ENDBRANCH  10  14
BRANCH  11  16
HETATM   16  C   UNL     1     -48.814  60.330 -61.385  1.00  0.00     0.058 A 
HETATM   17  C   UNL     1     -50.104  60.040 -61.836  1.00  0.00     0.031 A 
HETATM   18  C   UNL     1     -50.808  60.953 -62.633  1.00  0.00     0.002 A 
HETATM   19  C   UNL     1     -50.234  62.167 -62.997  1.00  0.00     0.000 A 
HETATM   20  C   UNL     1     -48.946  62.469 -62.574  1.00  0.00     0.002 A 
HETATM   21  C   UNL     1     -48.241  61.558 -61.781  1.00  0.00     0.031 A 
ENDBRANCH  11  16
ENDBRANCH   6   9
ENDBRANCH   1   5
BRANCH   2  22
HETATM   22  C   UNL     1     -42.494  55.626 -55.801  1.00  0.00     0.121 A 
HETATM   23  N   UNL     1     -41.155  55.352 -55.840  1.00  0.00    -0.272 N 
HETATM   24  H   UNL     1     -40.568  55.290 -56.665  1.00  0.00     0.189 HD
HETATM   25  N   UNL     1     -40.598  55.165 -54.634  1.00  0.00    -0.174 NA
HETATM   26  C   UNL     1     -41.613  55.292 -53.764  1.00  0.00     0.089 A 
HETATM   27  C   UNL     1     -42.819  55.585 -54.460  1.00  0.00     0.071 A 
BRANCH  26  28
HETATM   28  C   UNL     1     -41.424  55.153 -52.317  1.00  0.00    -0.005 A 
HETATM   29  C   UNL     1     -41.373  56.284 -51.493  1.00  0.00     0.016 A 
HETATM   30  C   UNL     1     -41.227  56.149 -50.108  1.00  0.00     0.037 A 
HETATM   31  C   UNL     1     -41.126  54.887 -49.520  1.00  0.00     0.068 A 
HETATM   32  C   UNL     1     -41.158  53.756 -50.334  1.00  0.00     0.037 A 
HETATM   33  C   UNL     1     -41.307  53.889 -51.723  1.00  0.00     0.016 A 
BRANCH  31  34
HETATM   34  O   UNL     1     -40.997  54.893 -48.160  1.00  0.00    -0.356 OA
HETATM   35  C   UNL     1     -40.215  53.855 -47.583  1.00  0.00     0.210 C 
ENDBRANCH  31  34
ENDBRANCH  26  28
ENDBRANCH   2  22
TORSDOF 7
ENDMDL
MODEL 10
REMARK VINA RESULT:      -6.4      1.976      2.420
REMARK  7 active torsions:
REMARK  status: ('A' for Active; 'I' for Inactive)
REMARK    1  A    between atoms: C_2  and  C_3 
REMARK    2  A    between atoms: N_4  and  C_5 
REMARK    3  A    between atoms: C_13  and  C_14 
REMARK       I    between atoms: C_14  and  N_15 
REMARK    4  A    between atoms: N_15  and  N_16 
REMARK       I    between atoms: N_16  and  C_17 
REMARK    5  A    between atoms: C_17  and  C_18 
REMARK    6  A    between atoms: C_22  and  C_23 
REMARK    7  A    between atoms: C_26  and  O_27 
ROOT
HETATM    1  N   UNL     1     -44.773  57.429 -57.115  1.00  0.00    -0.262 N 
HETATM    2  C   UNL     1     -44.525  57.364 -58.468  1.00  0.00     0.288 C 
HETATM    3  O   UNL     1     -43.625  56.667 -58.933  1.00  0.00    -0.264 OA
HETATM    4  H   UNL     1     -45.569  57.918 -56.712  1.00  0.00     0.190 HD
ENDROOT
BRANCH   1   5
HETATM    5  N   UNL     1     -44.017  56.650 -56.228  1.00  0.00    -0.263 N 
HETATM    6  C   UNL     1     -44.160  56.898 -54.880  1.00  0.00     0.273 C 
HETATM    7  O   UNL     1     -44.911  57.793 -54.484  1.00  0.00    -0.266 OA
HETATM    8  H   UNL     1     -43.590  55.812 -56.607  1.00  0.00     0.190 HD
BRANCH   6   9
HETATM    9  C   UNL     1     -43.419  56.059 -53.952  1.00  0.00     0.077 A 
HETATM   10  C   UNL     1     -42.584  56.348 -52.865  1.00  0.00     0.053 A 
HETATM   11  N   UNL     1     -42.249  55.106 -52.286  1.00  0.00    -0.237 N 
HETATM   12  N   UNL     1     -42.807  54.087 -52.995  1.00  0.00    -0.178 NA
HETATM   13  C   UNL     1     -43.505  54.658 -53.962  1.00  0.00     0.158 A 
BRANCH  10  14
HETATM   14  C   UNL     1     -42.213  57.687 -52.307  1.00  0.00     0.056 C 
HETATM   15  C   UNL     1     -43.365  58.330 -51.542  1.00  0.00     0.011 C 
ENDBRANCH  10  14
BRANCH  11  16
HETATM   16  C   UNL     1     -41.490  54.746 -51.117  1.00  0.00     0.058 A 
HETATM   17  C   UNL     1     -41.721  55.260 -49.839  1.00  0.00     0.031 A 
HETATM   18  C   UNL     1     -40.948  54.841 -48.747  1.00  0.00     0.002 A 
HETATM   19  C   UNL     1     -39.931  53.907 -48.914  1.00  0.00     0.000 A 
HETATM   20  C   UNL     1     -39.673  53.395 -50.179  1.00  0.00     0.002 A 
HETATM   21  C   UNL     1     -40.440  53.814 -51.271  1.00  0.00     0.031 A 
ENDBRANCH  11  16
ENDBRANCH   6   9
ENDBRANCH   1   5
BRANCH   2  22
HETATM   22  C   UNL     1     -45.401  58.162 -59.281  1.00  0.00     0.121 A 
HETATM   23  N   UNL     1     -45.257  59.516 -59.401  1.00  0.00    -0.272 N 
HETATM   24  H   UNL     1     -44.556  60.098 -58.953  1.00  0.00     0.189 HD
HETATM   25  N   UNL     1     -46.152  60.094 -60.217  1.00  0.00    -0.174 NA
HETATM   26  C   UNL     1     -46.936  59.086 -60.633  1.00  0.00     0.089 A 
HETATM   27  C   UNL     1     -46.493  57.858 -60.068  1.00  0.00     0.071 A 
BRANCH  26  28
HETATM   28  C   UNL     1     -48.058  59.298 -61.551  1.00  0.00    -0.005 A 
HETATM   29  C   UNL     1     -48.842  58.220 -61.979  1.00  0.00     0.016 A 
HETATM   30  C   UNL     1     -49.934  58.427 -62.829  1.00  0.00     0.037 A 
HETATM   31  C   UNL     1     -50.262  59.710 -63.270  1.00  0.00     0.068 A 
HETATM   32  C   UNL     1     -49.477  60.788 -62.864  1.00  0.00     0.037 A 
HETATM   33  C   UNL     1     -48.384  60.583 -62.009  1.00  0.00     0.016 A 
BRANCH  31  34
HETATM   34  O   UNL     1     -51.355  59.777 -64.088  1.00  0.00    -0.356 OA
HETATM   35  C   UNL     1     -52.631  59.715 -63.462  1.00  0.00     0.210 C 
ENDBRANCH  31  34
ENDBRANCH  26  28
ENDBRANCH   2  22
TORSDOF 7
ENDMDL
