MODEL 1
REMARK VINA RESULT:      -8.7      0.000      0.000
REMARK  5 active torsions:
REMARK  status: ('A' for Active; 'I' for Inactive)
REMARK    1  A    between atoms: C_4  and  C_5 
REMARK    2  A    between atoms: C_5  and  C_6 
REMARK    3  A    between atoms: C_6  and  C_7 
REMARK       I    between atoms: C_7  and  N_8 
REMARK    4  A    between atoms: N_8  and  C_9 
REMARK    5  A    between atoms: C_11  and  C_12 
ROOT
HETATM    1  C   UNL     1     -41.724  54.886 -55.402  1.00  0.00     0.222 C 
HETATM    2  N   UNL     1     -41.735  56.132 -55.991  1.00  0.00    -0.327 N 
HETATM    3  O   UNL     1     -42.683  54.117 -55.346  1.00  0.00    -0.273 OA
HETATM    4  H   UNL     1     -40.898  56.697 -55.913  1.00  0.00     0.169 HD
ENDROOT
BRANCH   2   5
HETATM    5  C   UNL     1     -42.772  56.728 -56.742  1.00  0.00     0.035 A 
HETATM    6  C   UNL     1     -43.320  56.177 -57.903  1.00  0.00     0.042 A 
HETATM    7  C   UNL     1     -44.320  56.852 -58.626  1.00  0.00    -0.021 A 
HETATM    8  C   UNL     1     -44.778  58.089 -58.154  1.00  0.00     0.012 A 
HETATM    9  C   UNL     1     -44.243  58.644 -56.991  1.00  0.00     0.003 A 
HETATM   10  C   UNL     1     -43.243  57.968 -56.293  1.00  0.00     0.029 A 
BRANCH   7  11
HETATM   11  C   UNL     1     -44.871  56.291 -59.850  1.00  0.00     0.010 A 
HETATM   12  C   UNL     1     -44.424  55.226 -60.668  1.00  0.00     0.152 A 
HETATM   13  N   UNL     1     -45.229  54.995 -61.709  1.00  0.00    -0.187 NA
HETATM   14  N   UNL     1     -46.196  55.915 -61.566  1.00  0.00    -0.289 N 
HETATM   15  H   UNL     1     -46.942  55.943 -62.252  1.00  0.00     0.188 HD
HETATM   16  C   UNL     1     -46.031  56.709 -60.468  1.00  0.00     0.123 A 
ENDBRANCH   7  11
ENDBRANCH   2   5
BRANCH   1  17
HETATM   17  C   UNL     1     -40.381  54.408 -54.851  1.00  0.00     0.108 C 
BRANCH  17  18
HETATM   18  C   UNL     1     -40.331  53.821 -53.441  1.00  0.00     0.048 C 
BRANCH  18  19
HETATM   19  C   UNL     1     -40.070  52.334 -53.289  1.00  0.00    -0.057 A 
HETATM   20  C   UNL     1     -39.817  51.705 -52.060  1.00  0.00     0.013 A 
HETATM   21  C   UNL     1     -39.630  50.317 -51.980  1.00  0.00    -0.061 A 
HETATM   22  C   UNL     1     -39.417  49.646 -50.654  1.00  0.00     0.048 C 
HETATM   23  C   UNL     1     -39.672  49.553 -53.149  1.00  0.00     0.007 A 
HETATM   24  C   UNL     1     -39.895  50.165 -54.380  1.00  0.00     0.001 A 
HETATM   25  C   UNL     1     -40.097  51.543 -54.448  1.00  0.00     0.007 A 
ENDBRANCH  18  19
ENDBRANCH  17  18
ENDBRANCH   1  17
TORSDOF 5
ENDMDL
MODEL 2
REMARK VINA RESULT:      -8.2      2.507      8.644
REMARK  5 active torsions:
REMARK  status: ('A' for Active; 'I' for Inactive)
REMARK    1  A    between atoms: C_4  and  C_5 
REMARK    2  A    between atoms: C_5  and  C_6 
REMARK    3  A    between atoms: C_6  and  C_7 
REMARK       I    between atoms: C_7  and  N_8 
REMARK    4  A    between atoms: N_8  and  C_9 
REMARK    5  A    between atoms: C_11  and  C_12 
ROOT
HETATM    1  C   UNL     1     -42.443  56.132 -55.977  1.00  0.00     0.222 C 
HETATM    2  N   UNL     1     -41.221  55.703 -55.504  1.00  0.00    -0.327 N 
HETATM    3  O   UNL     1     -43.538  55.783 -55.536  1.00  0.00    -0.273 OA
HETATM    4  H   UNL     1     -40.392  56.013 -55.995  1.00  0.00     0.169 HD
ENDROOT
BRANCH   2   5
HETATM    5  C   UNL     1     -40.962  54.899 -54.373  1.00  0.00     0.035 A 
HETATM    6  C   UNL     1     -40.576  53.557 -54.432  1.00  0.00     0.042 A 
HETATM    7  C   UNL     1     -40.382  52.804 -53.260  1.00  0.00    -0.021 A 
HETATM    8  C   UNL     1     -40.565  53.426 -52.019  1.00  0.00     0.012 A 
HETATM    9  C   UNL     1     -40.942  54.767 -51.948  1.00  0.00     0.003 A 
HETATM   10  C   UNL     1     -41.143  55.497 -53.119  1.00  0.00     0.029 A 
BRANCH   7  11
HETATM   11  C   UNL     1     -40.007  51.400 -53.322  1.00  0.00     0.010 A 
HETATM   12  C   UNL     1     -39.880  50.519 -54.423  1.00  0.00     0.152 A 
HETATM   13  N   UNL     1     -39.485  49.294 -54.068  1.00  0.00    -0.187 NA
HETATM   14  N   UNL     1     -39.360  49.381 -52.734  1.00  0.00    -0.289 N 
HETATM   15  H   UNL     1     -39.065  48.557 -52.222  1.00  0.00     0.188 HD
HETATM   16  C   UNL     1     -39.653  50.619 -52.241  1.00  0.00     0.123 A 
ENDBRANCH   7  11
ENDBRANCH   2   5
BRANCH   1  17
HETATM   17  C   UNL     1     -42.411  57.184 -57.084  1.00  0.00     0.108 C 
BRANCH  17  18
HETATM   18  C   UNL     1     -43.730  57.631 -57.714  1.00  0.00     0.048 C 
BRANCH  18  19
HETATM   19  C   UNL     1     -44.361  56.742 -58.769  1.00  0.00    -0.057 A 
HETATM   20  C   UNL     1     -45.594  57.011 -59.384  1.00  0.00     0.013 A 
HETATM   21  C   UNL     1     -46.103  56.174 -60.387  1.00  0.00    -0.061 A 
HETATM   22  C   UNL     1     -47.393  56.501 -61.081  1.00  0.00     0.048 C 
HETATM   23  C   UNL     1     -45.380  55.037 -60.761  1.00  0.00     0.007 A 
HETATM   24  C   UNL     1     -44.169  54.741 -60.141  1.00  0.00     0.001 A 
HETATM   25  C   UNL     1     -43.662  55.588 -59.156  1.00  0.00     0.007 A 
ENDBRANCH  18  19
ENDBRANCH  17  18
ENDBRANCH   1  17
TORSDOF 5
ENDMDL
MODEL 3
REMARK VINA RESULT:      -8.1      3.028      8.545
REMARK  5 active torsions:
REMARK  status: ('A' for Active; 'I' for Inactive)
REMARK    1  A    between atoms: C_4  and  C_5 
REMARK    2  A    between atoms: C_5  and  C_6 
REMARK    3  A    between atoms: C_6  and  C_7 
REMARK       I    between atoms: C_7  and  N_8 
REMARK    4  A    between atoms: N_8  and  C_9 
REMARK    5  A    between atoms: C_11  and  C_12 
ROOT
HETATM    1  C   UNL     1     -42.920  55.716 -54.237  1.00  0.00     0.222 C 
HETATM    2  N   UNL     1     -41.644  55.691 -53.714  1.00  0.00    -0.327 N 
HETATM    3  O   UNL     1     -43.778  54.851 -54.060  1.00  0.00    -0.273 OA
HETATM    4  H   UNL     1     -41.010  56.431 -53.987  1.00  0.00     0.169 HD
ENDROOT
BRANCH   2   5
HETATM    5  C   UNL     1     -41.101  54.767 -52.795  1.00  0.00     0.035 A 
HETATM    6  C   UNL     1     -40.732  53.458 -53.118  1.00  0.00     0.042 A 
HETATM    7  C   UNL     1     -40.242  52.578 -52.137  1.00  0.00    -0.021 A 
HETATM    8  C   UNL     1     -40.110  53.038 -50.821  1.00  0.00     0.012 A 
HETATM    9  C   UNL     1     -40.468  54.344 -50.489  1.00  0.00     0.003 A 
HETATM   10  C   UNL     1     -40.965  55.202 -51.470  1.00  0.00     0.029 A 
BRANCH   7  11
HETATM   11  C   UNL     1     -39.883  51.208 -52.468  1.00  0.00     0.010 A 
HETATM   12  C   UNL     1     -39.750  50.558 -53.719  1.00  0.00     0.152 A 
HETATM   13  N   UNL     1     -39.375  49.281 -53.606  1.00  0.00    -0.187 NA
HETATM   14  N   UNL     1     -39.270  49.103 -52.279  1.00  0.00    -0.289 N 
HETATM   15  H   UNL     1     -38.993  48.191 -51.935  1.00  0.00     0.188 HD
HETATM   16  C   UNL     1     -39.556  50.225 -51.557  1.00  0.00     0.123 A 
ENDBRANCH   7  11
ENDBRANCH   2   5
BRANCH   1  17
HETATM   17  C   UNL     1     -43.305  56.965 -55.029  1.00  0.00     0.108 C 
BRANCH  17  18
HETATM   18  C   UNL     1     -42.346  57.480 -56.102  1.00  0.00     0.048 C 
BRANCH  18  19
HETATM   19  C   UNL     1     -42.608  57.096 -57.545  1.00  0.00    -0.057 A 
HETATM   20  C   UNL     1     -43.323  55.953 -57.935  1.00  0.00     0.013 A 
HETATM   21  C   UNL     1     -43.571  55.678 -59.288  1.00  0.00    -0.061 A 
HETATM   22  C   UNL     1     -44.387  54.485 -59.693  1.00  0.00     0.048 C 
HETATM   23  C   UNL     1     -43.074  56.546 -60.265  1.00  0.00     0.007 A 
HETATM   24  C   UNL     1     -42.339  57.670 -59.897  1.00  0.00     0.001 A 
HETATM   25  C   UNL     1     -42.111  57.944 -58.548  1.00  0.00     0.007 A 
ENDBRANCH  18  19
ENDBRANCH  17  18
ENDBRANCH   1  17
TORSDOF 5
ENDMDL
MODEL 4
REMARK VINA RESULT:      -8.0      1.948      3.028
REMARK  5 active torsions:
REMARK  status: ('A' for Active; 'I' for Inactive)
REMARK    1  A    between atoms: C_4  and  C_5 
REMARK    2  A    between atoms: C_5  and  C_6 
REMARK    3  A    between atoms: C_6  and  C_7 
REMARK       I    between atoms: C_7  and  N_8 
REMARK    4  A    between atoms: N_8  and  C_9 
REMARK    5  A    between atoms: C_11  and  C_12 
ROOT
HETATM    1  C   UNL     1     -42.221  55.326 -55.889  1.00  0.00     0.222 C 
HETATM    2  N   UNL     1     -42.146  56.154 -56.988  1.00  0.00    -0.327 N 
HETATM    3  O   UNL     1     -43.230  54.726 -55.519  1.00  0.00    -0.273 OA
HETATM    4  H   UNL     1     -41.274  56.642 -57.150  1.00  0.00     0.169 HD
ENDROOT
BRANCH   2   5
HETATM    5  C   UNL     1     -43.136  56.391 -57.966  1.00  0.00     0.035 A 
HETATM    6  C   UNL     1     -44.140  57.356 -57.853  1.00  0.00     0.042 A 
HETATM    7  C   UNL     1     -45.123  57.502 -58.848  1.00  0.00    -0.021 A 
HETATM    8  C   UNL     1     -45.074  56.671 -59.974  1.00  0.00     0.012 A 
HETATM    9  C   UNL     1     -44.072  55.710 -60.101  1.00  0.00     0.003 A 
HETATM   10  C   UNL     1     -43.112  55.568 -59.100  1.00  0.00     0.029 A 
BRANCH   7  11
HETATM   11  C   UNL     1     -46.184  58.490 -58.718  1.00  0.00     0.010 A 
HETATM   12  C   UNL     1     -47.309  58.537 -57.860  1.00  0.00     0.152 A 
HETATM   13  N   UNL     1     -48.048  59.637 -58.029  1.00  0.00    -0.187 NA
HETATM   14  N   UNL     1     -47.401  60.300 -59.002  1.00  0.00    -0.289 N 
HETATM   15  H   UNL     1     -47.779  61.187 -59.314  1.00  0.00     0.188 HD
HETATM   16  C   UNL     1     -46.279  59.660 -59.441  1.00  0.00     0.123 A 
ENDBRANCH   7  11
ENDBRANCH   2   5
BRANCH   1  17
HETATM   17  C   UNL     1     -40.916  55.083 -55.131  1.00  0.00     0.108 C 
BRANCH  17  18
HETATM   18  C   UNL     1     -40.983  54.732 -53.645  1.00  0.00     0.048 C 
BRANCH  18  19
HETATM   19  C   UNL     1     -40.518  53.356 -53.209  1.00  0.00    -0.057 A 
HETATM   20  C   UNL     1     -40.340  52.274 -54.085  1.00  0.00     0.013 A 
HETATM   21  C   UNL     1     -39.862  51.038 -53.625  1.00  0.00    -0.061 A 
HETATM   22  C   UNL     1     -39.620  49.905 -54.579  1.00  0.00     0.048 C 
HETATM   23  C   UNL     1     -39.584  50.875 -52.265  1.00  0.00     0.007 A 
HETATM   24  C   UNL     1     -39.782  51.930 -51.378  1.00  0.00     0.001 A 
HETATM   25  C   UNL     1     -40.241  53.161 -51.846  1.00  0.00     0.007 A 
ENDBRANCH  18  19
ENDBRANCH  17  18
ENDBRANCH   1  17
TORSDOF 5
ENDMDL
MODEL 5
REMARK VINA RESULT:      -8.0      2.846      3.735
REMARK  5 active torsions:
REMARK  status: ('A' for Active; 'I' for Inactive)
REMARK    1  A    between atoms: C_4  and  C_5 
REMARK    2  A    between atoms: C_5  and  C_6 
REMARK    3  A    between atoms: C_6  and  C_7 
REMARK       I    between atoms: C_7  and  N_8 
REMARK    4  A    between atoms: N_8  and  C_9 
REMARK    5  A    between atoms: C_11  and  C_12 
ROOT
HETATM    1  C   UNL     1     -42.928  55.681 -55.953  1.00  0.00     0.222 C 
HETATM    2  N   UNL     1     -42.507  55.611 -57.265  1.00  0.00    -0.327 N 
HETATM    3  O   UNL     1     -43.650  56.561 -55.485  1.00  0.00    -0.273 OA
HETATM    4  H   UNL     1     -41.861  54.872 -57.511  1.00  0.00     0.169 HD
ENDROOT
BRANCH   2   5
HETATM    5  C   UNL     1     -42.897  56.430 -58.346  1.00  0.00     0.035 A 
HETATM    6  C   UNL     1     -42.310  57.661 -58.654  1.00  0.00     0.042 A 
HETATM    7  C   UNL     1     -42.783  58.445 -59.720  1.00  0.00    -0.021 A 
HETATM    8  C   UNL     1     -43.851  57.967 -60.490  1.00  0.00     0.012 A 
HETATM    9  C   UNL     1     -44.439  56.737 -60.197  1.00  0.00     0.003 A 
HETATM   10  C   UNL     1     -43.967  55.976 -59.128  1.00  0.00     0.029 A 
BRANCH   7  11
HETATM   11  C   UNL     1     -42.189  59.739 -60.023  1.00  0.00     0.010 A 
HETATM   12  C   UNL     1     -41.920  60.370 -61.261  1.00  0.00     0.152 A 
HETATM   13  N   UNL     1     -41.382  61.584 -61.121  1.00  0.00    -0.187 NA
HETATM   14  N   UNL     1     -41.298  61.736 -59.790  1.00  0.00    -0.289 N 
HETATM   15  H   UNL     1     -40.911  62.600 -59.426  1.00  0.00     0.188 HD
HETATM   16  C   UNL     1     -41.774  60.666 -59.090  1.00  0.00     0.123 A 
ENDBRANCH   7  11
ENDBRANCH   2   5
BRANCH   1  17
HETATM   17  C   UNL     1     -42.521  54.521 -55.047  1.00  0.00     0.108 C 
BRANCH  17  18
HETATM   18  C   UNL     1     -41.243  54.647 -54.218  1.00  0.00     0.048 C 
BRANCH  18  19
HETATM   19  C   UNL     1     -40.670  53.395 -53.583  1.00  0.00    -0.057 A 
HETATM   20  C   UNL     1     -40.411  52.208 -54.285  1.00  0.00     0.013 A 
HETATM   21  C   UNL     1     -39.835  51.099 -53.648  1.00  0.00    -0.061 A 
HETATM   22  C   UNL     1     -39.509  49.853 -54.420  1.00  0.00     0.048 C 
HETATM   23  C   UNL     1     -39.539  51.171 -52.284  1.00  0.00     0.007 A 
HETATM   24  C   UNL     1     -39.814  52.332 -51.567  1.00  0.00     0.001 A 
HETATM   25  C   UNL     1     -40.371  53.436 -52.212  1.00  0.00     0.007 A 
ENDBRANCH  18  19
ENDBRANCH  17  18
ENDBRANCH   1  17
TORSDOF 5
ENDMDL
MODEL 6
REMARK VINA RESULT:      -8.0      2.765      9.194
REMARK  5 active torsions:
REMARK  status: ('A' for Active; 'I' for Inactive)
REMARK    1  A    between atoms: C_4  and  C_5 
REMARK    2  A    between atoms: C_5  and  C_6 
REMARK    3  A    between atoms: C_6  and  C_7 
REMARK       I    between atoms: C_7  and  N_8 
REMARK    4  A    between atoms: N_8  and  C_9 
REMARK    5  A    between atoms: C_11  and  C_12 
ROOT
HETATM    1  C   UNL     1     -42.420  55.832 -55.843  1.00  0.00     0.222 C 
HETATM    2  N   UNL     1     -41.198  55.585 -55.253  1.00  0.00    -0.327 N 
HETATM    3  O   UNL     1     -43.421  55.126 -55.727  1.00  0.00    -0.273 OA
HETATM    4  H   UNL     1     -40.433  56.208 -55.478  1.00  0.00     0.169 HD
ENDROOT
BRANCH   2   5
HETATM    5  C   UNL     1     -40.873  54.575 -54.321  1.00  0.00     0.035 A 
HETATM    6  C   UNL     1     -40.980  54.718 -52.935  1.00  0.00     0.042 A 
HETATM    7  C   UNL     1     -40.592  53.684 -52.066  1.00  0.00    -0.021 A 
HETATM    8  C   UNL     1     -40.107  52.488 -52.611  1.00  0.00     0.012 A 
HETATM    9  C   UNL     1     -40.004  52.332 -53.993  1.00  0.00     0.003 A 
HETATM   10  C   UNL     1     -40.381  53.372 -54.842  1.00  0.00     0.029 A 
BRANCH   7  11
HETATM   11  C   UNL     1     -40.678  53.843 -50.622  1.00  0.00     0.010 A 
HETATM   12  C   UNL     1     -41.041  54.958 -49.829  1.00  0.00     0.152 A 
HETATM   13  N   UNL     1     -41.021  54.696 -48.520  1.00  0.00    -0.187 NA
HETATM   14  N   UNL     1     -40.639  53.410 -48.465  1.00  0.00    -0.289 N 
HETATM   15  H   UNL     1     -40.547  52.973 -47.555  1.00  0.00     0.188 HD
HETATM   16  C   UNL     1     -40.429  52.854 -49.693  1.00  0.00     0.123 A 
ENDBRANCH   7  11
ENDBRANCH   2   5
BRANCH   1  17
HETATM   17  C   UNL     1     -42.540  57.135 -56.633  1.00  0.00     0.108 C 
BRANCH  17  18
HETATM   18  C   UNL     1     -42.485  57.077 -58.159  1.00  0.00     0.048 C 
BRANCH  18  19
HETATM   19  C   UNL     1     -43.710  56.588 -58.907  1.00  0.00    -0.057 A 
HETATM   20  C   UNL     1     -44.801  57.404 -59.243  1.00  0.00     0.013 A 
HETATM   21  C   UNL     1     -45.885  56.902 -59.978  1.00  0.00    -0.061 A 
HETATM   22  C   UNL     1     -47.020  57.797 -60.382  1.00  0.00     0.048 C 
HETATM   23  C   UNL     1     -45.889  55.557 -60.358  1.00  0.00     0.007 A 
HETATM   24  C   UNL     1     -44.827  54.726 -60.010  1.00  0.00     0.001 A 
HETATM   25  C   UNL     1     -43.745  55.239 -59.294  1.00  0.00     0.007 A 
ENDBRANCH  18  19
ENDBRANCH  17  18
ENDBRANCH   1  17
TORSDOF 5
ENDMDL
MODEL 7
REMARK VINA RESULT:      -7.7      3.023      8.030
REMARK  5 active torsions:
REMARK  status: ('A' for Active; 'I' for Inactive)
REMARK    1  A    between atoms: C_4  and  C_5 
REMARK    2  A    between atoms: C_5  and  C_6 
REMARK    3  A    between atoms: C_6  and  C_7 
REMARK       I    between atoms: C_7  and  N_8 
REMARK    4  A    between atoms: N_8  and  C_9 
REMARK    5  A    between atoms: C_11  and  C_12 
ROOT
HETATM    1  C   UNL     1     -42.371  55.461 -56.197  1.00  0.00     0.222 C 
HETATM    2  N   UNL     1     -41.281  55.563 -55.359  1.00  0.00    -0.327 N 
HETATM    3  O   UNL     1     -43.225  54.577 -56.148  1.00  0.00    -0.273 OA
HETATM    4  H   UNL     1     -40.614  56.302 -55.543  1.00  0.00     0.169 HD
ENDROOT
BRANCH   2   5
HETATM    5  C   UNL     1     -40.983  54.779 -54.223  1.00  0.00     0.035 A 
HETATM    6  C   UNL     1     -40.572  53.444 -54.274  1.00  0.00     0.042 A 
HETATM    7  C   UNL     1     -40.339  52.710 -53.098  1.00  0.00    -0.021 A 
HETATM    8  C   UNL     1     -40.509  53.344 -51.860  1.00  0.00     0.012 A 
HETATM    9  C   UNL     1     -40.912  54.677 -51.798  1.00  0.00     0.003 A 
HETATM   10  C   UNL     1     -41.152  55.389 -52.974  1.00  0.00     0.029 A 
BRANCH   7  11
HETATM   11  C   UNL     1     -39.936  51.313 -53.150  1.00  0.00     0.010 A 
HETATM   12  C   UNL     1     -39.757  50.438 -54.249  1.00  0.00     0.152 A 
HETATM   13  N   UNL     1     -39.351  49.219 -53.884  1.00  0.00    -0.187 NA
HETATM   14  N   UNL     1     -39.272  49.305 -52.546  1.00  0.00    -0.289 N 
HETATM   15  H   UNL     1     -38.979  48.485 -52.026  1.00  0.00     0.188 HD
HETATM   16  C   UNL     1     -39.604  50.536 -52.060  1.00  0.00     0.123 A 
ENDBRANCH   7  11
ENDBRANCH   2   5
BRANCH   1  17
HETATM   17  C   UNL     1     -42.557  56.592 -57.209  1.00  0.00     0.108 C 
BRANCH  17  18
HETATM   18  C   UNL     1     -43.204  57.896 -56.744  1.00  0.00     0.048 C 
BRANCH  18  19
HETATM   19  C   UNL     1     -43.048  58.299 -55.290  1.00  0.00    -0.057 A 
HETATM   20  C   UNL     1     -43.926  57.904 -54.269  1.00  0.00     0.013 A 
HETATM   21  C   UNL     1     -43.700  58.273 -52.934  1.00  0.00    -0.061 A 
HETATM   22  C   UNL     1     -44.612  57.798 -51.841  1.00  0.00     0.048 C 
HETATM   23  C   UNL     1     -42.595  59.069 -52.622  1.00  0.00     0.007 A 
HETATM   24  C   UNL     1     -41.729  59.492 -53.627  1.00  0.00     0.001 A 
HETATM   25  C   UNL     1     -41.952  59.107 -54.949  1.00  0.00     0.007 A 
ENDBRANCH  18  19
ENDBRANCH  17  18
ENDBRANCH   1  17
TORSDOF 5
ENDMDL
MODEL 8
REMARK VINA RESULT:      -7.7      4.832      6.981
REMARK  5 active torsions:
REMARK  status: ('A' for Active; 'I' for Inactive)
REMARK    1  A    between atoms: C_4  and  C_5 
REMARK    2  A    between atoms: C_5  and  C_6 
REMARK    3  A    between atoms: C_6  and  C_7 
REMARK       I    between atoms: C_7  and  N_8 
REMARK    4  A    between atoms: N_8  and  C_9 
REMARK    5  A    between atoms: C_11  and  C_12 
ROOT
HETATM    1  C   UNL     1     -41.520  56.895 -54.172  1.00  0.00     0.222 C 
HETATM    2  N   UNL     1     -41.569  56.901 -52.794  1.00  0.00    -0.327 N 
HETATM    3  O   UNL     1     -41.655  57.884 -54.892  1.00  0.00    -0.273 OA
HETATM    4  H   UNL     1     -41.509  56.010 -52.318  1.00  0.00     0.169 HD
ENDROOT
BRANCH   2   5
HETATM    5  C   UNL     1     -41.656  58.017 -51.933  1.00  0.00     0.035 A 
HETATM    6  C   UNL     1     -42.850  58.658 -51.593  1.00  0.00     0.042 A 
HETATM    7  C   UNL     1     -42.855  59.795 -50.767  1.00  0.00    -0.021 A 
HETATM    8  C   UNL     1     -41.637  60.274 -50.269  1.00  0.00     0.012 A 
HETATM    9  C   UNL     1     -40.440  59.638 -50.596  1.00  0.00     0.003 A 
HETATM   10  C   UNL     1     -40.450  58.518 -51.427  1.00  0.00     0.029 A 
BRANCH   7  11
HETATM   11  C   UNL     1     -44.096  60.479 -50.435  1.00  0.00     0.010 A 
HETATM   12  C   UNL     1     -45.420  60.278 -50.895  1.00  0.00     0.152 A 
HETATM   13  N   UNL     1     -46.300  61.105 -50.326  1.00  0.00    -0.187 NA
HETATM   14  N   UNL     1     -45.544  61.845 -49.499  1.00  0.00    -0.289 N 
HETATM   15  H   UNL     1     -45.997  62.563 -48.944  1.00  0.00     0.188 HD
HETATM   16  C   UNL     1     -44.223  61.506 -49.523  1.00  0.00     0.123 A 
ENDBRANCH   7  11
ENDBRANCH   2   5
BRANCH   1  17
HETATM   17  C   UNL     1     -41.191  55.558 -54.834  1.00  0.00     0.108 C 
BRANCH  17  18
HETATM   18  C   UNL     1     -41.899  54.297 -54.338  1.00  0.00     0.048 C 
BRANCH  18  19
HETATM   19  C   UNL     1     -41.066  53.218 -53.673  1.00  0.00    -0.057 A 
HETATM   20  C   UNL     1     -40.683  52.024 -54.302  1.00  0.00     0.013 A 
HETATM   21  C   UNL     1     -39.873  51.085 -53.648  1.00  0.00    -0.061 A 
HETATM   22  C   UNL     1     -39.420  49.838 -54.349  1.00  0.00     0.048 C 
HETATM   23  C   UNL     1     -39.461  51.334 -52.335  1.00  0.00     0.007 A 
HETATM   24  C   UNL     1     -39.855  52.501 -51.686  1.00  0.00     0.001 A 
HETATM   25  C   UNL     1     -40.647  53.437 -52.351  1.00  0.00     0.007 A 
ENDBRANCH  18  19
ENDBRANCH  17  18
ENDBRANCH   1  17
TORSDOF 5
ENDMDL
MODEL 9
REMARK VINA RESULT:      -7.7      3.357      8.565
REMARK  5 active torsions:
REMARK  status: ('A' for Active; 'I' for Inactive)
REMARK    1  A    between atoms: C_4  and  C_5 
REMARK    2  A    between atoms: C_5  and  C_6 
REMARK    3  A    between atoms: C_6  and  C_7 
REMARK       I    between atoms: C_7  and  N_8 
REMARK    4  A    between atoms: N_8  and  C_9 
REMARK    5  A    between atoms: C_11  and  C_12 
ROOT
HETATM    1  C   UNL     1     -42.352  55.146 -55.793  1.00  0.00     0.222 C 
HETATM    2  N   UNL     1     -41.102  54.935 -55.249  1.00  0.00    -0.327 N 
HETATM    3  O   UNL     1     -43.371  54.523 -55.496  1.00  0.00    -0.273 OA
HETATM    4  H   UNL     1     -40.330  55.470 -55.625  1.00  0.00     0.169 HD
ENDROOT
BRANCH   2   5
HETATM    5  C   UNL     1     -40.754  54.078 -54.183  1.00  0.00     0.035 A 
HETATM    6  C   UNL     1     -40.899  54.402 -52.831  1.00  0.00     0.042 A 
HETATM    7  C   UNL     1     -40.485  53.515 -51.822  1.00  0.00    -0.021 A 
HETATM    8  C   UNL     1     -39.934  52.281 -52.190  1.00  0.00     0.012 A 
HETATM    9  C   UNL     1     -39.791  51.944 -53.536  1.00  0.00     0.003 A 
HETATM   10  C   UNL     1     -40.195  52.840 -54.526  1.00  0.00     0.029 A 
BRANCH   7  11
HETATM   11  C   UNL     1     -40.612  53.864 -50.415  1.00  0.00     0.010 A 
HETATM   12  C   UNL     1     -41.020  55.067 -49.789  1.00  0.00     0.152 A 
HETATM   13  N   UNL     1     -41.028  54.984 -48.456  1.00  0.00    -0.187 NA
HETATM   14  N   UNL     1     -40.620  53.727 -48.220  1.00  0.00    -0.289 N 
HETATM   15  H   UNL     1     -40.542  53.417 -47.257  1.00  0.00     0.188 HD
HETATM   16  C   UNL     1     -40.366  53.016 -49.356  1.00  0.00     0.123 A 
ENDBRANCH   7  11
ENDBRANCH   2   5
BRANCH   1  17
HETATM   17  C   UNL     1     -42.474  56.303 -56.783  1.00  0.00     0.108 C 
BRANCH  17  18
HETATM   18  C   UNL     1     -42.989  57.651 -56.279  1.00  0.00     0.048 C 
BRANCH  18  19
HETATM   19  C   UNL     1     -42.907  57.943 -54.793  1.00  0.00    -0.057 A 
HETATM   20  C   UNL     1     -41.720  58.275 -54.123  1.00  0.00     0.013 A 
HETATM   21  C   UNL     1     -41.719  58.580 -52.754  1.00  0.00    -0.061 A 
HETATM   22  C   UNL     1     -40.453  58.990 -52.059  1.00  0.00     0.048 C 
HETATM   23  C   UNL     1     -42.920  58.527 -52.041  1.00  0.00     0.007 A 
HETATM   24  C   UNL     1     -44.103  58.174 -52.684  1.00  0.00     0.001 A 
HETATM   25  C   UNL     1     -44.097  57.888 -54.050  1.00  0.00     0.007 A 
ENDBRANCH  18  19
ENDBRANCH  17  18
ENDBRANCH   1  17
TORSDOF 5
ENDMDL
MODEL 10
REMARK VINA RESULT:      -7.5     14.428     18.086
REMARK  5 active torsions:
REMARK  status: ('A' for Active; 'I' for Inactive)
REMARK    1  A    between atoms: C_4  and  C_5 
REMARK    2  A    between atoms: C_5  and  C_6 
REMARK    3  A    between atoms: C_6  and  C_7 
REMARK       I    between atoms: C_7  and  N_8 
REMARK    4  A    between atoms: N_8  and  C_9 
REMARK    5  A    between atoms: C_11  and  C_12 
ROOT
HETATM    1  C   UNL     1     -35.927  41.987 -53.934  1.00  0.00     0.222 C 
HETATM    2  N   UNL     1     -36.083  40.700 -53.462  1.00  0.00    -0.327 N 
HETATM    3  O   UNL     1     -35.720  42.979 -53.236  1.00  0.00    -0.273 OA
HETATM    4  H   UNL     1     -36.315  39.979 -54.133  1.00  0.00     0.169 HD
ENDROOT
BRANCH   2   5
HETATM    5  C   UNL     1     -35.922  40.236 -52.138  1.00  0.00     0.035 A 
HETATM    6  C   UNL     1     -34.687  40.091 -51.499  1.00  0.00     0.042 A 
HETATM    7  C   UNL     1     -34.601  39.576 -50.194  1.00  0.00    -0.021 A 
HETATM    8  C   UNL     1     -35.780  39.222 -49.527  1.00  0.00     0.012 A 
HETATM    9  C   UNL     1     -37.018  39.370 -50.152  1.00  0.00     0.003 A 
HETATM   10  C   UNL     1     -37.086  39.871 -51.452  1.00  0.00     0.029 A 
BRANCH   7  11
HETATM   11  C   UNL     1     -33.313  39.399 -49.539  1.00  0.00     0.010 A 
HETATM   12  C   UNL     1     -32.032  39.914 -49.853  1.00  0.00     0.152 A 
HETATM   13  N   UNL     1     -31.091  39.537 -48.983  1.00  0.00    -0.187 NA
HETATM   14  N   UNL     1     -31.764  38.773 -48.108  1.00  0.00    -0.289 N 
HETATM   15  H   UNL     1     -31.253  38.360 -47.336  1.00  0.00     0.188 HD
HETATM   16  C   UNL     1     -33.095  38.666 -48.392  1.00  0.00     0.123 A 
ENDBRANCH   7  11
ENDBRANCH   2   5
BRANCH   1  17
HETATM   17  C   UNL     1     -35.936  42.158 -55.452  1.00  0.00     0.108 C 
BRANCH  17  18
HETATM   18  C   UNL     1     -37.279  42.215 -56.179  1.00  0.00     0.048 C 
BRANCH  18  19
HETATM   19  C   UNL     1     -37.421  41.466 -57.490  1.00  0.00    -0.057 A 
HETATM   20  C   UNL     1     -37.885  40.146 -57.591  1.00  0.00     0.013 A 
HETATM   21  C   UNL     1     -38.039  39.524 -58.839  1.00  0.00    -0.061 A 
HETATM   22  C   UNL     1     -38.591  38.132 -58.942  1.00  0.00     0.048 C 
HETATM   23  C   UNL     1     -37.697  40.225 -59.999  1.00  0.00     0.007 A 
HETATM   24  C   UNL     1     -37.209  41.526 -59.915  1.00  0.00     0.001 A 
HETATM   25  C   UNL     1     -37.076  42.143 -58.670  1.00  0.00     0.007 A 
ENDBRANCH  18  19
ENDBRANCH  17  18
ENDBRANCH   1  17
TORSDOF 5
ENDMDL
