MODEL 1
REMARK VINA RESULT:      -8.5      0.000      0.000
REMARK  10 active torsions:
REMARK  status: ('A' for Active; 'I' for Inactive)
REMARK    1  A    between atoms: C_4  and  C_5 
REMARK    2  A    between atoms: C_7  and  C_8 
REMARK    3  A    between atoms: C_8  and  C_9 
REMARK       I    between atoms: C_9  and  N_10 
REMARK    4  A    between atoms: N_10  and  C_11 
REMARK    5  A    between atoms: C_11  and  C_12 
REMARK    6  A    between atoms: C_12  and  N_13 
REMARK    7  A    between atoms: C_24  and  C_25 
REMARK    8  A    between atoms: C_25  and  O_26 
REMARK    9  A    between atoms: O_26  and  C_27 
REMARK   10  A    between atoms: C_27  and  C_28 
ROOT
HETATM    1  C   UNL     1     -42.991  57.701 -53.650  1.00  0.00     0.166 C 
HETATM    2  N   UNL     1     -42.801  58.268 -55.001  1.00  0.00    -0.318 N 
HETATM    3  C   UNL     1     -43.084  57.929 -56.215  1.00  0.00     0.011 C 
HETATM    4  C   UNL     1     -41.971  59.576 -54.967  1.00  0.00     0.170 C 
HETATM    5  S   UNL     1     -42.154  60.466 -56.439  1.00  0.00    -0.086 SA
HETATM    6  C   UNL     1     -42.705  58.942 -57.277  1.00  0.00     0.135 C 
HETATM    7  N   UNL     1     -41.110  59.861 -54.052  1.00  0.00    -0.229 NA
HETATM    8  C   UNL     1     -40.817  58.851 -53.149  1.00  0.00     0.048 C 
HETATM    9  C   UNL     1     -39.457  58.995 -52.508  1.00  0.00     0.071 C 
HETATM   10  C   UNL     1     -41.633  57.786 -52.982  1.00  0.00     0.069 C 
ENDROOT
BRANCH   3  11
HETATM   11  C   UNL     1     -43.690  56.601 -56.567  1.00  0.00     0.156 C 
BRANCH  11  12
HETATM   12  C   UNL     1     -43.762  56.351 -58.061  1.00  0.00     0.223 C 
HETATM   13  N   UNL     1     -44.977  56.631 -58.630  1.00  0.00    -0.359 N 
HETATM   14  H   UNL     1     -45.745  56.864 -58.004  1.00  0.00     0.162 HD
HETATM   15  O   UNL     1     -42.799  55.923 -58.690  1.00  0.00    -0.273 OA
BRANCH  13  16
HETATM   16  C   UNL     1     -45.410  56.280 -59.987  1.00  0.00     0.150 C 
BRANCH  16  17
HETATM   17  C   UNL     1     -46.920  56.307 -60.309  1.00  0.00     0.253 C 
BRANCH  17  18
HETATM   18  N   UNL     1     -47.273  57.220 -61.468  1.00  0.00    -0.077 N 
HETATM   19  H   UNL     1     -46.453  57.204 -62.106  1.00  0.00     0.279 HD
HETATM   20  C   UNL     1     -48.472  56.781 -62.261  1.00  0.00     0.269 C 
HETATM   21  C   UNL     1     -47.429  58.647 -61.014  1.00  0.00     0.269 C 
ENDBRANCH  17  18
ENDBRANCH  16  17
ENDBRANCH  13  16
ENDBRANCH  11  12
ENDBRANCH   3  11
BRANCH   1  22
HETATM   22  C   UNL     1     -44.119  58.403 -52.839  1.00  0.00    -0.024 A 
HETATM   23  C   UNL     1     -44.545  59.692 -53.267  1.00  0.00     0.017 A 
HETATM   24  C   UNL     1     -45.555  60.423 -52.626  1.00  0.00    -0.061 A 
HETATM   25  C   UNL     1     -45.981  61.766 -53.151  1.00  0.00     0.048 C 
HETATM   26  C   UNL     1     -46.193  59.864 -51.530  1.00  0.00     0.007 A 
HETATM   27  C   UNL     1     -45.776  58.630 -51.048  1.00  0.00     0.008 A 
HETATM   28  C   UNL     1     -44.726  57.904 -51.655  1.00  0.00    -0.053 A 
HETATM   29  C   UNL     1     -44.354  56.636 -50.940  1.00  0.00     0.049 C 
ENDBRANCH   1  22
BRANCH  10  30
HETATM   30  C   UNL     1     -41.227  56.554 -52.285  1.00  0.00     0.294 C 
HETATM   31  O   UNL     1     -41.079  56.556 -51.073  1.00  0.00    -0.259 OA
BRANCH  30  32
HETATM   32  O   UNL     1     -41.002  55.554 -53.153  1.00  0.00    -0.313 OA
BRANCH  32  33
HETATM   33  C   UNL     1     -41.848  54.397 -53.029  1.00  0.00     0.217 C 
BRANCH  33  34
HETATM   34  C   UNL     1     -41.028  53.135 -53.097  1.00  0.00    -0.034 A 
HETATM   35  C   UNL     1     -41.022  52.340 -54.254  1.00  0.00     0.009 A 
HETATM   36  C   UNL     1     -40.236  51.189 -54.322  1.00  0.00     0.001 A 
HETATM   37  C   UNL     1     -39.438  50.824 -53.240  1.00  0.00     0.000 A 
HETATM   38  C   UNL     1     -39.428  51.608 -52.089  1.00  0.00     0.001 A 
HETATM   39  C   UNL     1     -40.221  52.755 -52.015  1.00  0.00     0.009 A 
ENDBRANCH  33  34
ENDBRANCH  32  33
ENDBRANCH  30  32
ENDBRANCH  10  30
TORSDOF 10
ENDMDL
MODEL 2
REMARK VINA RESULT:      -8.2      3.835      7.281
REMARK  10 active torsions:
REMARK  status: ('A' for Active; 'I' for Inactive)
REMARK    1  A    between atoms: C_4  and  C_5 
REMARK    2  A    between atoms: C_7  and  C_8 
REMARK    3  A    between atoms: C_8  and  C_9 
REMARK       I    between atoms: C_9  and  N_10 
REMARK    4  A    between atoms: N_10  and  C_11 
REMARK    5  A    between atoms: C_11  and  C_12 
REMARK    6  A    between atoms: C_12  and  N_13 
REMARK    7  A    between atoms: C_24  and  C_25 
REMARK    8  A    between atoms: C_25  and  O_26 
REMARK    9  A    between atoms: O_26  and  C_27 
REMARK   10  A    between atoms: C_27  and  C_28 
ROOT
HETATM    1  C   UNL     1     -42.524  57.987 -51.880  1.00  0.00     0.166 C 
HETATM    2  N   UNL     1     -43.631  58.830 -51.385  1.00  0.00    -0.318 N 
HETATM    3  C   UNL     1     -43.774  60.036 -50.942  1.00  0.00     0.011 C 
HETATM    4  C   UNL     1     -44.962  58.041 -51.292  1.00  0.00     0.170 C 
HETATM    5  S   UNL     1     -46.313  59.115 -51.178  1.00  0.00    -0.086 SA
HETATM    6  C   UNL     1     -45.197  60.440 -50.610  1.00  0.00     0.135 C 
HETATM    7  N   UNL     1     -45.034  56.766 -51.122  1.00  0.00    -0.229 NA
HETATM    8  C   UNL     1     -43.841  56.114 -50.853  1.00  0.00     0.048 C 
HETATM    9  C   UNL     1     -44.024  54.813 -50.107  1.00  0.00     0.071 C 
HETATM   10  C   UNL     1     -42.643  56.679 -51.124  1.00  0.00     0.069 C 
ENDROOT
BRANCH   3  11
HETATM   11  C   UNL     1     -42.613  60.958 -50.710  1.00  0.00     0.156 C 
BRANCH  11  12
HETATM   12  C   UNL     1     -42.979  62.425 -50.820  1.00  0.00     0.223 C 
HETATM   13  N   UNL     1     -43.181  63.057 -49.620  1.00  0.00    -0.359 N 
HETATM   14  H   UNL     1     -43.185  62.480 -48.782  1.00  0.00     0.162 HD
HETATM   15  O   UNL     1     -43.090  62.982 -51.909  1.00  0.00    -0.273 OA
BRANCH  13  16
HETATM   16  C   UNL     1     -43.756  64.391 -49.419  1.00  0.00     0.150 C 
BRANCH  16  17
HETATM   17  C   UNL     1     -45.273  64.580 -49.641  1.00  0.00     0.253 C 
BRANCH  17  18
HETATM   18  N   UNL     1     -46.095  64.382 -48.383  1.00  0.00    -0.077 N 
HETATM   19  H   UNL     1     -46.804  65.142 -48.380  1.00  0.00     0.279 HD
HETATM   20  C   UNL     1     -46.835  63.074 -48.324  1.00  0.00     0.269 C 
HETATM   21  C   UNL     1     -45.260  64.576 -47.146  1.00  0.00     0.269 C 
ENDBRANCH  17  18
ENDBRANCH  16  17
ENDBRANCH  13  16
ENDBRANCH  11  12
ENDBRANCH   3  11
BRANCH   1  22
HETATM   22  C   UNL     1     -42.531  57.805 -53.426  1.00  0.00    -0.024 A 
HETATM   23  C   UNL     1     -42.709  56.490 -53.942  1.00  0.00     0.017 A 
HETATM   24  C   UNL     1     -42.742  56.197 -55.313  1.00  0.00    -0.061 A 
HETATM   25  C   UNL     1     -42.968  54.789 -55.790  1.00  0.00     0.048 C 
HETATM   26  C   UNL     1     -42.615  57.234 -56.222  1.00  0.00     0.007 A 
HETATM   27  C   UNL     1     -42.391  58.526 -55.764  1.00  0.00     0.008 A 
HETATM   28  C   UNL     1     -42.306  58.829 -54.386  1.00  0.00    -0.053 A 
HETATM   29  C   UNL     1     -41.967  60.262 -54.084  1.00  0.00     0.049 C 
ENDBRANCH   1  22
BRANCH  10  30
HETATM   30  C   UNL     1     -41.369  56.180 -50.581  1.00  0.00     0.294 C 
HETATM   31  O   UNL     1     -40.953  56.597 -49.511  1.00  0.00    -0.259 OA
BRANCH  30  32
HETATM   32  O   UNL     1     -40.776  55.326 -51.432  1.00  0.00    -0.313 OA
BRANCH  32  33
HETATM   33  C   UNL     1     -40.428  54.035 -50.901  1.00  0.00     0.217 C 
BRANCH  33  34
HETATM   34  C   UNL     1     -40.278  53.031 -52.015  1.00  0.00    -0.034 A 
HETATM   35  C   UNL     1     -40.634  53.357 -53.333  1.00  0.00     0.009 A 
HETATM   36  C   UNL     1     -40.464  52.433 -54.365  1.00  0.00     0.001 A 
HETATM   37  C   UNL     1     -39.924  51.178 -54.096  1.00  0.00     0.000 A 
HETATM   38  C   UNL     1     -39.559  50.843 -52.794  1.00  0.00     0.001 A 
HETATM   39  C   UNL     1     -39.737  51.763 -51.758  1.00  0.00     0.009 A 
ENDBRANCH  33  34
ENDBRANCH  32  33
ENDBRANCH  30  32
ENDBRANCH  10  30
TORSDOF 10
ENDMDL
MODEL 3
REMARK VINA RESULT:      -8.2      2.884      7.714
REMARK  10 active torsions:
REMARK  status: ('A' for Active; 'I' for Inactive)
REMARK    1  A    between atoms: C_4  and  C_5 
REMARK    2  A    between atoms: C_7  and  C_8 
REMARK    3  A    between atoms: C_8  and  C_9 
REMARK       I    between atoms: C_9  and  N_10 
REMARK    4  A    between atoms: N_10  and  C_11 
REMARK    5  A    between atoms: C_11  and  C_12 
REMARK    6  A    between atoms: C_12  and  N_13 
REMARK    7  A    between atoms: C_24  and  C_25 
REMARK    8  A    between atoms: C_25  and  O_26 
REMARK    9  A    between atoms: O_26  and  C_27 
REMARK   10  A    between atoms: C_27  and  C_28 
ROOT
HETATM    1  C   UNL     1     -43.465  58.744 -55.144  1.00  0.00     0.166 C 
HETATM    2  N   UNL     1     -42.557  58.213 -54.107  1.00  0.00    -0.318 N 
HETATM    3  C   UNL     1     -42.466  57.140 -53.393  1.00  0.00     0.011 C 
HETATM    4  C   UNL     1     -41.474  59.245 -53.703  1.00  0.00     0.170 C 
HETATM    5  S   UNL     1     -40.166  58.478 -52.869  1.00  0.00    -0.086 SA
HETATM    6  C   UNL     1     -41.257  57.069 -52.481  1.00  0.00     0.135 C 
HETATM    7  N   UNL     1     -41.622  60.521 -53.798  1.00  0.00    -0.229 NA
HETATM    8  C   UNL     1     -42.890  60.969 -54.135  1.00  0.00     0.048 C 
HETATM    9  C   UNL     1     -43.170  62.380 -53.675  1.00  0.00     0.071 C 
HETATM   10  C   UNL     1     -43.807  60.152 -54.700  1.00  0.00     0.069 C 
ENDROOT
BRANCH   3  11
HETATM   11  C   UNL     1     -43.509  56.060 -53.412  1.00  0.00     0.156 C 
BRANCH  11  12
HETATM   12  C   UNL     1     -42.945  54.675 -53.163  1.00  0.00     0.223 C 
HETATM   13  N   UNL     1     -42.117  54.208 -54.151  1.00  0.00    -0.359 N 
HETATM   14  H   UNL     1     -42.044  54.762 -55.002  1.00  0.00     0.162 HD
HETATM   15  O   UNL     1     -43.227  54.036 -52.154  1.00  0.00    -0.273 OA
BRANCH  13  16
HETATM   16  C   UNL     1     -41.613  52.838 -54.296  1.00  0.00     0.150 C 
BRANCH  16  17
HETATM   17  C   UNL     1     -40.089  52.626 -54.432  1.00  0.00     0.253 C 
BRANCH  17  18
HETATM   18  N   UNL     1     -39.514  51.695 -53.382  1.00  0.00    -0.077 N 
HETATM   19  H   UNL     1     -38.482  51.795 -53.443  1.00  0.00     0.279 HD
HETATM   20  C   UNL     1     -39.918  52.024 -51.972  1.00  0.00     0.269 C 
HETATM   21  C   UNL     1     -39.819  50.255 -53.700  1.00  0.00     0.269 C 
ENDBRANCH  17  18
ENDBRANCH  16  17
ENDBRANCH  13  16
ENDBRANCH  11  12
ENDBRANCH   3  11
BRANCH   1  22
HETATM   22  C   UNL     1     -42.863  58.683 -56.579  1.00  0.00    -0.024 A 
HETATM   23  C   UNL     1     -42.473  59.908 -57.191  1.00  0.00     0.017 A 
HETATM   24  C   UNL     1     -41.913  59.985 -58.474  1.00  0.00    -0.061 A 
HETATM   25  C   UNL     1     -41.491  61.309 -59.048  1.00  0.00     0.048 C 
HETATM   26  C   UNL     1     -41.704  58.814 -59.185  1.00  0.00     0.007 A 
HETATM   27  C   UNL     1     -42.115  57.601 -58.647  1.00  0.00     0.008 A 
HETATM   28  C   UNL     1     -42.727  57.514 -57.376  1.00  0.00    -0.053 A 
HETATM   29  C   UNL     1     -43.187  56.133 -57.001  1.00  0.00     0.049 C 
ENDBRANCH   1  22
BRANCH  10  30
HETATM   30  C   UNL     1     -45.241  60.478 -54.786  1.00  0.00     0.294 C 
HETATM   31  O   UNL     1     -46.006  60.111 -53.908  1.00  0.00    -0.259 OA
BRANCH  30  32
HETATM   32  O   UNL     1     -45.528  61.121 -55.930  1.00  0.00    -0.313 OA
BRANCH  32  33
HETATM   33  C   UNL     1     -46.677  60.650 -56.656  1.00  0.00     0.217 C 
BRANCH  33  34
HETATM   34  C   UNL     1     -46.254  59.744 -57.782  1.00  0.00    -0.034 A 
HETATM   35  C   UNL     1     -46.498  58.363 -57.727  1.00  0.00     0.009 A 
HETATM   36  C   UNL     1     -46.131  57.533 -58.788  1.00  0.00     0.001 A 
HETATM   37  C   UNL     1     -45.527  58.074 -59.920  1.00  0.00     0.000 A 
HETATM   38  C   UNL     1     -45.286  59.444 -59.992  1.00  0.00     0.001 A 
HETATM   39  C   UNL     1     -45.644  60.275 -58.928  1.00  0.00     0.009 A 
ENDBRANCH  33  34
ENDBRANCH  32  33
ENDBRANCH  30  32
ENDBRANCH  10  30
TORSDOF 10
ENDMDL
MODEL 4
REMARK VINA RESULT:      -8.1      3.290      7.145
REMARK  10 active torsions:
REMARK  status: ('A' for Active; 'I' for Inactive)
REMARK    1  A    between atoms: C_4  and  C_5 
REMARK    2  A    between atoms: C_7  and  C_8 
REMARK    3  A    between atoms: C_8  and  C_9 
REMARK       I    between atoms: C_9  and  N_10 
REMARK    4  A    between atoms: N_10  and  C_11 
REMARK    5  A    between atoms: C_11  and  C_12 
REMARK    6  A    between atoms: C_12  and  N_13 
REMARK    7  A    between atoms: C_24  and  C_25 
REMARK    8  A    between atoms: C_25  and  O_26 
REMARK    9  A    between atoms: O_26  and  C_27 
REMARK   10  A    between atoms: C_27  and  C_28 
ROOT
HETATM    1  C   UNL     1     -43.828  58.721 -53.096  1.00  0.00     0.166 C 
HETATM    2  N   UNL     1     -44.051  60.181 -53.095  1.00  0.00    -0.318 N 
HETATM    3  C   UNL     1     -44.924  61.002 -52.611  1.00  0.00     0.011 C 
HETATM    4  C   UNL     1     -43.014  60.925 -53.973  1.00  0.00     0.170 C 
HETATM    5  S   UNL     1     -42.980  62.614 -53.598  1.00  0.00    -0.086 SA
HETATM    6  C   UNL     1     -44.642  62.470 -52.860  1.00  0.00     0.135 C 
HETATM    7  N   UNL     1     -42.407  60.395 -54.978  1.00  0.00    -0.229 NA
HETATM    8  C   UNL     1     -42.844  59.139 -55.367  1.00  0.00     0.048 C 
HETATM    9  C   UNL     1     -42.555  58.825 -56.816  1.00  0.00     0.071 C 
HETATM   10  C   UNL     1     -43.574  58.353 -54.544  1.00  0.00     0.069 C 
ENDROOT
BRANCH   3  11
HETATM   11  C   UNL     1     -46.166  60.542 -51.903  1.00  0.00     0.156 C 
BRANCH  11  12
HETATM   12  C   UNL     1     -45.939  60.222 -50.439  1.00  0.00     0.223 C 
HETATM   13  N   UNL     1     -45.499  61.279 -49.684  1.00  0.00    -0.359 N 
HETATM   14  H   UNL     1     -45.253  62.135 -50.175  1.00  0.00     0.162 HD
HETATM   15  O   UNL     1     -46.134  59.098 -49.987  1.00  0.00    -0.273 OA
BRANCH  13  16
HETATM   16  C   UNL     1     -44.986  61.219 -48.310  1.00  0.00     0.150 C 
BRANCH  16  17
HETATM   17  C   UNL     1     -45.993  61.022 -47.156  1.00  0.00     0.253 C 
BRANCH  17  18
HETATM   18  N   UNL     1     -45.544  59.998 -46.133  1.00  0.00    -0.077 N 
HETATM   19  H   UNL     1     -44.897  59.356 -46.633  1.00  0.00     0.279 HD
HETATM   20  C   UNL     1     -44.794  60.575 -44.964  1.00  0.00     0.269 C 
HETATM   21  C   UNL     1     -46.696  59.153 -45.659  1.00  0.00     0.269 C 
ENDBRANCH  17  18
ENDBRANCH  16  17
ENDBRANCH  13  16
ENDBRANCH  11  12
ENDBRANCH   3  11
BRANCH   1  22
HETATM   22  C   UNL     1     -42.686  58.270 -52.140  1.00  0.00    -0.024 A 
HETATM   23  C   UNL     1     -41.407  58.876 -52.296  1.00  0.00     0.017 A 
HETATM   24  C   UNL     1     -40.301  58.561 -51.493  1.00  0.00    -0.061 A 
HETATM   25  C   UNL     1     -38.987  59.265 -51.689  1.00  0.00     0.048 C 
HETATM   26  C   UNL     1     -40.453  57.630 -50.479  1.00  0.00     0.007 A 
HETATM   27  C   UNL     1     -41.670  56.978 -50.322  1.00  0.00     0.008 A 
HETATM   28  C   UNL     1     -42.779  57.249 -51.156  1.00  0.00    -0.053 A 
HETATM   29  C   UNL     1     -43.978  56.381 -50.895  1.00  0.00     0.049 C 
ENDBRANCH   1  22
BRANCH  10  30
HETATM   30  C   UNL     1     -44.320  57.169 -55.003  1.00  0.00     0.294 C 
HETATM   31  O   UNL     1     -45.531  57.227 -55.151  1.00  0.00    -0.259 OA
BRANCH  30  32
HETATM   32  O   UNL     1     -43.511  56.105 -55.142  1.00  0.00    -0.313 OA
BRANCH  32  33
HETATM   33  C   UNL     1     -43.763  54.993 -54.265  1.00  0.00     0.217 C 
BRANCH  33  34
HETATM   34  C   UNL     1     -42.483  54.256 -53.969  1.00  0.00    -0.034 A 
HETATM   35  C   UNL     1     -41.541  54.010 -54.979  1.00  0.00     0.009 A 
HETATM   36  C   UNL     1     -40.343  53.354 -54.691  1.00  0.00     0.001 A 
HETATM   37  C   UNL     1     -40.066  52.947 -53.388  1.00  0.00     0.000 A 
HETATM   38  C   UNL     1     -40.989  53.190 -52.374  1.00  0.00     0.001 A 
HETATM   39  C   UNL     1     -42.192  53.838 -52.661  1.00  0.00     0.009 A 
ENDBRANCH  33  34
ENDBRANCH  32  33
ENDBRANCH  30  32
ENDBRANCH  10  30
TORSDOF 10
ENDMDL
MODEL 5
REMARK VINA RESULT:      -7.9      2.851      7.819
REMARK  10 active torsions:
REMARK  status: ('A' for Active; 'I' for Inactive)
REMARK    1  A    between atoms: C_4  and  C_5 
REMARK    2  A    between atoms: C_7  and  C_8 
REMARK    3  A    between atoms: C_8  and  C_9 
REMARK       I    between atoms: C_9  and  N_10 
REMARK    4  A    between atoms: N_10  and  C_11 
REMARK    5  A    between atoms: C_11  and  C_12 
REMARK    6  A    between atoms: C_12  and  N_13 
REMARK    7  A    between atoms: C_24  and  C_25 
REMARK    8  A    between atoms: C_25  and  O_26 
REMARK    9  A    between atoms: O_26  and  C_27 
REMARK   10  A    between atoms: C_27  and  C_28 
ROOT
HETATM    1  C   UNL     1     -43.525  58.071 -54.019  1.00  0.00     0.166 C 
HETATM    2  N   UNL     1     -42.397  58.128 -53.068  1.00  0.00    -0.318 N 
HETATM    3  C   UNL     1     -42.094  57.594 -51.930  1.00  0.00     0.011 C 
HETATM    4  C   UNL     1     -41.325  59.160 -53.501  1.00  0.00     0.170 C 
HETATM    5  S   UNL     1     -39.831  58.888 -52.674  1.00  0.00    -0.086 SA
HETATM    6  C   UNL     1     -40.727  57.957 -51.386  1.00  0.00     0.135 C 
HETATM    7  N   UNL     1     -41.574  60.196 -54.225  1.00  0.00    -0.229 NA
HETATM    8  C   UNL     1     -42.910  60.460 -54.482  1.00  0.00     0.048 C 
HETATM    9  C   UNL     1     -43.186  61.913 -54.793  1.00  0.00     0.071 C 
HETATM   10  C   UNL     1     -43.865  59.516 -54.329  1.00  0.00     0.069 C 
ENDROOT
BRANCH   3  11
HETATM   11  C   UNL     1     -43.047  56.724 -51.163  1.00  0.00     0.156 C 
BRANCH  11  12
HETATM   12  C   UNL     1     -42.474  55.362 -50.820  1.00  0.00     0.223 C 
HETATM   13  N   UNL     1     -41.313  55.048 -51.479  1.00  0.00    -0.359 N 
HETATM   14  H   UNL     1     -41.002  55.683 -52.210  1.00  0.00     0.162 HD
HETATM   15  O   UNL     1     -43.027  54.613 -50.020  1.00  0.00    -0.273 OA
BRANCH  13  16
HETATM   16  C   UNL     1     -40.660  53.735 -51.523  1.00  0.00     0.150 C 
BRANCH  16  17
HETATM   17  C   UNL     1     -40.808  52.882 -52.802  1.00  0.00     0.253 C 
BRANCH  17  18
HETATM   18  N   UNL     1     -39.731  51.825 -52.949  1.00  0.00    -0.077 N 
HETATM   19  H   UNL     1     -38.845  52.339 -53.118  1.00  0.00     0.279 HD
HETATM   20  C   UNL     1     -39.531  50.968 -51.729  1.00  0.00     0.269 C 
HETATM   21  C   UNL     1     -39.964  50.970 -54.166  1.00  0.00     0.269 C 
ENDBRANCH  17  18
ENDBRANCH  16  17
ENDBRANCH  13  16
ENDBRANCH  11  12
ENDBRANCH   3  11
BRANCH   1  22
HETATM   22  C   UNL     1     -43.217  57.228 -55.291  1.00  0.00    -0.024 A 
HETATM   23  C   UNL     1     -42.922  57.924 -56.497  1.00  0.00     0.017 A 
HETATM   24  C   UNL     1     -42.621  57.279 -57.706  1.00  0.00    -0.061 A 
HETATM   25  C   UNL     1     -42.283  58.075 -58.936  1.00  0.00     0.048 C 
HETATM   26  C   UNL     1     -42.587  55.895 -57.736  1.00  0.00     0.007 A 
HETATM   27  C   UNL     1     -42.918  55.175 -56.595  1.00  0.00     0.008 A 
HETATM   28  C   UNL     1     -43.271  55.811 -55.383  1.00  0.00    -0.053 A 
HETATM   29  C   UNL     1     -43.686  54.871 -54.286  1.00  0.00     0.049 C 
ENDBRANCH   1  22
BRANCH  10  30
HETATM   30  C   UNL     1     -45.305  59.818 -54.281  1.00  0.00     0.294 C 
HETATM   31  O   UNL     1     -45.788  60.349 -53.293  1.00  0.00    -0.259 OA
BRANCH  30  32
HETATM   32  O   UNL     1     -45.934  59.376 -55.383  1.00  0.00    -0.313 OA
BRANCH  32  33
HETATM   33  C   UNL     1     -45.917  60.254 -56.523  1.00  0.00     0.217 C 
BRANCH  33  34
HETATM   34  C   UNL     1     -45.947  59.457 -57.801  1.00  0.00    -0.034 A 
HETATM   35  C   UNL     1     -45.483  60.007 -59.006  1.00  0.00     0.009 A 
HETATM   36  C   UNL     1     -45.486  59.252 -60.180  1.00  0.00     0.001 A 
HETATM   37  C   UNL     1     -45.940  57.936 -60.163  1.00  0.00     0.000 A 
HETATM   38  C   UNL     1     -46.397  57.374 -58.972  1.00  0.00     0.001 A 
HETATM   39  C   UNL     1     -46.404  58.130 -57.798  1.00  0.00     0.009 A 
ENDBRANCH  33  34
ENDBRANCH  32  33
ENDBRANCH  30  32
ENDBRANCH  10  30
TORSDOF 10
ENDMDL
MODEL 6
REMARK VINA RESULT:      -7.8      3.273      7.016
REMARK  10 active torsions:
REMARK  status: ('A' for Active; 'I' for Inactive)
REMARK    1  A    between atoms: C_4  and  C_5 
REMARK    2  A    between atoms: C_7  and  C_8 
REMARK    3  A    between atoms: C_8  and  C_9 
REMARK       I    between atoms: C_9  and  N_10 
REMARK    4  A    between atoms: N_10  and  C_11 
REMARK    5  A    between atoms: C_11  and  C_12 
REMARK    6  A    between atoms: C_12  and  N_13 
REMARK    7  A    between atoms: C_24  and  C_25 
REMARK    8  A    between atoms: C_25  and  O_26 
REMARK    9  A    between atoms: O_26  and  C_27 
REMARK   10  A    between atoms: C_27  and  C_28 
ROOT
HETATM    1  C   UNL     1     -43.499  57.817 -53.137  1.00  0.00     0.166 C 
HETATM    2  N   UNL     1     -43.021  58.776 -52.120  1.00  0.00    -0.318 N 
HETATM    3  C   UNL     1     -43.480  59.308 -51.036  1.00  0.00     0.011 C 
HETATM    4  C   UNL     1     -41.638  59.368 -52.489  1.00  0.00     0.170 C 
HETATM    5  S   UNL     1     -40.887  60.097 -51.112  1.00  0.00    -0.086 SA
HETATM    6  C   UNL     1     -42.519  60.225 -50.306  1.00  0.00     0.135 C 
HETATM    7  N   UNL     1     -41.199  59.478 -53.695  1.00  0.00    -0.229 NA
HETATM    8  C   UNL     1     -42.101  59.188 -54.707  1.00  0.00     0.048 C 
HETATM    9  C   UNL     1     -41.772  59.864 -56.017  1.00  0.00     0.071 C 
HETATM   10  C   UNL     1     -43.226  58.476 -54.474  1.00  0.00     0.069 C 
ENDROOT
BRANCH   3  11
HETATM   11  C   UNL     1     -44.885  59.088 -50.555  1.00  0.00     0.156 C 
BRANCH  11  12
HETATM   12  C   UNL     1     -45.829  60.216 -50.923  1.00  0.00     0.223 C 
HETATM   13  N   UNL     1     -46.155  60.279 -52.253  1.00  0.00    -0.359 N 
HETATM   14  H   UNL     1     -45.660  59.656 -52.887  1.00  0.00     0.162 HD
HETATM   15  O   UNL     1     -46.250  61.005 -50.082  1.00  0.00    -0.273 OA
BRANCH  13  16
HETATM   16  C   UNL     1     -46.854  61.376 -52.933  1.00  0.00     0.150 C 
BRANCH  16  17
HETATM   17  C   UNL     1     -46.011  62.491 -53.588  1.00  0.00     0.253 C 
BRANCH  17  18
HETATM   18  N   UNL     1     -44.707  61.993 -54.179  1.00  0.00    -0.077 N 
HETATM   19  H   UNL     1     -44.757  60.955 -54.152  1.00  0.00     0.279 HD
HETATM   20  C   UNL     1     -44.477  62.398 -55.609  1.00  0.00     0.269 C 
HETATM   21  C   UNL     1     -43.532  62.382 -53.321  1.00  0.00     0.269 C 
ENDBRANCH  17  18
ENDBRANCH  16  17
ENDBRANCH  13  16
ENDBRANCH  11  12
ENDBRANCH   3  11
BRANCH   1  22
HETATM   22  C   UNL     1     -42.853  56.406 -53.006  1.00  0.00    -0.024 A 
HETATM   23  C   UNL     1     -41.974  55.976 -54.039  1.00  0.00     0.017 A 
HETATM   24  C   UNL     1     -41.325  54.733 -54.033  1.00  0.00    -0.061 A 
HETATM   25  C   UNL     1     -40.380  54.356 -55.140  1.00  0.00     0.048 C 
HETATM   26  C   UNL     1     -41.526  53.879 -52.961  1.00  0.00     0.007 A 
HETATM   27  C   UNL     1     -42.415  54.236 -51.955  1.00  0.00     0.008 A 
HETATM   28  C   UNL     1     -43.113  55.465 -51.973  1.00  0.00    -0.053 A 
HETATM   29  C   UNL     1     -44.098  55.636 -50.851  1.00  0.00     0.049 C 
ENDBRANCH   1  22
BRANCH  10  30
HETATM   30  C   UNL     1     -44.354  58.409 -55.419  1.00  0.00     0.294 C 
HETATM   31  O   UNL     1     -45.360  59.073 -55.220  1.00  0.00    -0.259 OA
BRANCH  30  32
HETATM   32  O   UNL     1     -44.122  57.516 -56.395  1.00  0.00    -0.313 OA
BRANCH  32  33
HETATM   33  C   UNL     1     -44.775  57.760 -57.653  1.00  0.00     0.217 C 
BRANCH  33  34
HETATM   34  C   UNL     1     -43.761  58.090 -58.718  1.00  0.00    -0.034 A 
HETATM   35  C   UNL     1     -43.659  59.389 -59.239  1.00  0.00     0.009 A 
HETATM   36  C   UNL     1     -42.697  59.695 -60.203  1.00  0.00     0.001 A 
HETATM   37  C   UNL     1     -41.818  58.711 -60.648  1.00  0.00     0.000 A 
HETATM   38  C   UNL     1     -41.903  57.419 -60.134  1.00  0.00     0.001 A 
HETATM   39  C   UNL     1     -42.871  57.108 -59.176  1.00  0.00     0.009 A 
ENDBRANCH  33  34
ENDBRANCH  32  33
ENDBRANCH  30  32
ENDBRANCH  10  30
TORSDOF 10
ENDMDL
MODEL 7
REMARK VINA RESULT:      -7.8      3.428      8.444
REMARK  10 active torsions:
REMARK  status: ('A' for Active; 'I' for Inactive)
REMARK    1  A    between atoms: C_4  and  C_5 
REMARK    2  A    between atoms: C_7  and  C_8 
REMARK    3  A    between atoms: C_8  and  C_9 
REMARK       I    between atoms: C_9  and  N_10 
REMARK    4  A    between atoms: N_10  and  C_11 
REMARK    5  A    between atoms: C_11  and  C_12 
REMARK    6  A    between atoms: C_12  and  N_13 
REMARK    7  A    between atoms: C_24  and  C_25 
REMARK    8  A    between atoms: C_25  and  O_26 
REMARK    9  A    between atoms: O_26  and  C_27 
REMARK   10  A    between atoms: C_27  and  C_28 
ROOT
HETATM    1  C   UNL     1     -43.379  57.511 -53.265  1.00  0.00     0.166 C 
HETATM    2  N   UNL     1     -42.851  58.476 -52.279  1.00  0.00    -0.318 N 
HETATM    3  C   UNL     1     -43.257  59.017 -51.178  1.00  0.00     0.011 C 
HETATM    4  C   UNL     1     -41.486  59.063 -52.717  1.00  0.00     0.170 C 
HETATM    5  S   UNL     1     -40.669  59.800 -51.382  1.00  0.00    -0.086 SA
HETATM    6  C   UNL     1     -42.261  59.937 -50.501  1.00  0.00     0.135 C 
HETATM    7  N   UNL     1     -41.104  59.163 -53.943  1.00  0.00    -0.229 NA
HETATM    8  C   UNL     1     -42.053  58.868 -54.909  1.00  0.00     0.048 C 
HETATM    9  C   UNL     1     -41.785  59.535 -56.238  1.00  0.00     0.071 C 
HETATM   10  C   UNL     1     -43.168  58.160 -54.618  1.00  0.00     0.069 C 
ENDROOT
BRANCH   3  11
HETATM   11  C   UNL     1     -44.639  58.804 -50.630  1.00  0.00     0.156 C 
BRANCH  11  12
HETATM   12  C   UNL     1     -45.364  60.097 -50.311  1.00  0.00     0.223 C 
HETATM   13  N   UNL     1     -45.301  60.479 -48.996  1.00  0.00    -0.359 N 
HETATM   14  H   UNL     1     -44.886  59.824 -48.337  1.00  0.00     0.162 HD
HETATM   15  O   UNL     1     -45.962  60.731 -51.175  1.00  0.00    -0.273 OA
BRANCH  13  16
HETATM   16  C   UNL     1     -46.081  61.544 -48.355  1.00  0.00     0.150 C 
BRANCH  16  17
HETATM   17  C   UNL     1     -46.277  61.493 -46.824  1.00  0.00     0.253 C 
BRANCH  17  18
HETATM   18  N   UNL     1     -45.566  60.329 -46.164  1.00  0.00    -0.077 N 
HETATM   19  H   UNL     1     -44.998  59.879 -46.908  1.00  0.00     0.279 HD
HETATM   20  C   UNL     1     -44.628  60.721 -45.055  1.00  0.00     0.269 C 
HETATM   21  C   UNL     1     -46.543  59.287 -45.688  1.00  0.00     0.269 C 
ENDBRANCH  17  18
ENDBRANCH  16  17
ENDBRANCH  13  16
ENDBRANCH  11  12
ENDBRANCH   3  11
BRANCH   1  22
HETATM   22  C   UNL     1     -42.730  56.100 -53.155  1.00  0.00    -0.024 A 
HETATM   23  C   UNL     1     -41.864  55.680 -54.203  1.00  0.00     0.017 A 
HETATM   24  C   UNL     1     -41.214  54.437 -54.216  1.00  0.00    -0.061 A 
HETATM   25  C   UNL     1     -40.284  54.071 -55.339  1.00  0.00     0.048 C 
HETATM   26  C   UNL     1     -41.401  53.573 -53.149  1.00  0.00     0.007 A 
HETATM   27  C   UNL     1     -42.276  53.922 -52.129  1.00  0.00     0.008 A 
HETATM   28  C   UNL     1     -42.976  55.150 -52.127  1.00  0.00    -0.053 A 
HETATM   29  C   UNL     1     -43.946  55.310 -50.990  1.00  0.00     0.049 C 
ENDBRANCH   1  22
BRANCH  10  30
HETATM   30  C   UNL     1     -44.339  58.090 -55.508  1.00  0.00     0.294 C 
HETATM   31  O   UNL     1     -45.328  58.768 -55.275  1.00  0.00    -0.259 OA
BRANCH  30  32
HETATM   32  O   UNL     1     -44.162  57.178 -56.479  1.00  0.00    -0.313 OA
BRANCH  32  33
HETATM   33  C   UNL     1     -44.791  57.458 -57.741  1.00  0.00     0.217 C 
BRANCH  33  34
HETATM   34  C   UNL     1     -43.779  57.970 -58.732  1.00  0.00    -0.034 A 
HETATM   35  C   UNL     1     -42.690  57.178 -59.127  1.00  0.00     0.009 A 
HETATM   36  C   UNL     1     -41.773  57.648 -60.068  1.00  0.00     0.001 A 
HETATM   37  C   UNL     1     -41.939  58.908 -60.636  1.00  0.00     0.000 A 
HETATM   38  C   UNL     1     -43.020  59.703 -60.259  1.00  0.00     0.001 A 
HETATM   39  C   UNL     1     -43.934  59.239 -59.311  1.00  0.00     0.009 A 
ENDBRANCH  33  34
ENDBRANCH  32  33
ENDBRANCH  30  32
ENDBRANCH  10  30
TORSDOF 10
ENDMDL
MODEL 8
REMARK VINA RESULT:      -7.8     17.311     20.763
REMARK  10 active torsions:
REMARK  status: ('A' for Active; 'I' for Inactive)
REMARK    1  A    between atoms: C_4  and  C_5 
REMARK    2  A    between atoms: C_7  and  C_8 
REMARK    3  A    between atoms: C_8  and  C_9 
REMARK       I    between atoms: C_9  and  N_10 
REMARK    4  A    between atoms: N_10  and  C_11 
REMARK    5  A    between atoms: C_11  and  C_12 
REMARK    6  A    between atoms: C_12  and  N_13 
REMARK    7  A    between atoms: C_24  and  C_25 
REMARK    8  A    between atoms: C_25  and  O_26 
REMARK    9  A    between atoms: O_26  and  C_27 
REMARK   10  A    between atoms: C_27  and  C_28 
ROOT
HETATM    1  C   UNL     1     -34.445  40.293 -53.633  1.00  0.00     0.166 C 
HETATM    2  N   UNL     1     -34.243  39.144 -54.539  1.00  0.00    -0.318 N 
HETATM    3  C   UNL     1     -33.294  38.689 -55.289  1.00  0.00     0.011 C 
HETATM    4  C   UNL     1     -35.534  38.302 -54.702  1.00  0.00     0.170 C 
HETATM    5  S   UNL     1     -35.179  36.740 -55.355  1.00  0.00    -0.086 SA
HETATM    6  C   UNL     1     -33.596  37.382 -55.995  1.00  0.00     0.135 C 
HETATM    7  N   UNL     1     -36.725  38.773 -54.560  1.00  0.00    -0.229 NA
HETATM    8  C   UNL     1     -36.828  40.147 -54.408  1.00  0.00     0.048 C 
HETATM    9  C   UNL     1     -38.171  40.698 -54.826  1.00  0.00     0.071 C 
HETATM   10  C   UNL     1     -35.769  40.905 -54.046  1.00  0.00     0.069 C 
ENDROOT
BRANCH   3  11
HETATM   11  C   UNL     1     -32.003  39.425 -55.500  1.00  0.00     0.156 C 
BRANCH  11  12
HETATM   12  C   UNL     1     -30.776  38.563 -55.275  1.00  0.00     0.223 C 
HETATM   13  N   UNL     1     -29.743  38.800 -56.145  1.00  0.00    -0.359 N 
HETATM   14  H   UNL     1     -29.920  39.432 -56.922  1.00  0.00     0.162 HD
HETATM   15  O   UNL     1     -30.735  37.719 -54.385  1.00  0.00    -0.273 OA
BRANCH  13  16
HETATM   16  C   UNL     1     -28.536  37.982 -56.314  1.00  0.00     0.150 C 
BRANCH  16  17
HETATM   17  C   UNL     1     -28.372  37.175 -57.621  1.00  0.00     0.253 C 
BRANCH  17  18
HETATM   18  N   UNL     1     -28.794  37.941 -58.859  1.00  0.00    -0.077 N 
HETATM   19  H   UNL     1     -29.354  38.749 -58.521  1.00  0.00     0.279 HD
HETATM   20  C   UNL     1     -27.653  38.490 -59.670  1.00  0.00     0.269 C 
HETATM   21  C   UNL     1     -29.714  37.121 -59.724  1.00  0.00     0.269 C 
ENDBRANCH  17  18
ENDBRANCH  16  17
ENDBRANCH  13  16
ENDBRANCH  11  12
ENDBRANCH   3  11
BRANCH   1  22
HETATM   22  C   UNL     1     -34.392  39.908 -52.126  1.00  0.00    -0.024 A 
HETATM   23  C   UNL     1     -35.626  39.775 -51.428  1.00  0.00     0.017 A 
HETATM   24  C   UNL     1     -35.711  39.425 -50.072  1.00  0.00    -0.061 A 
HETATM   25  C   UNL     1     -37.049  39.268 -49.404  1.00  0.00     0.048 C 
HETATM   26  C   UNL     1     -34.543  39.174 -49.371  1.00  0.00     0.007 A 
HETATM   27  C   UNL     1     -33.315  39.339 -49.999  1.00  0.00     0.008 A 
HETATM   28  C   UNL     1     -33.213  39.739 -51.351  1.00  0.00    -0.053 A 
HETATM   29  C   UNL     1     -31.804  39.955 -51.830  1.00  0.00     0.049 C 
ENDBRANCH   1  22
BRANCH  10  30
HETATM   30  C   UNL     1     -35.739  42.372 -54.176  1.00  0.00     0.294 C 
HETATM   31  O   UNL     1     -35.541  43.070 -53.193  1.00  0.00    -0.259 OA
BRANCH  30  32
HETATM   32  O   UNL     1     -36.017  42.758 -55.432  1.00  0.00    -0.313 OA
BRANCH  32  33
HETATM   33  C   UNL     1     -35.090  42.338 -56.449  1.00  0.00     0.217 C 
BRANCH  33  34
HETATM   34  C   UNL     1     -35.814  41.619 -57.557  1.00  0.00    -0.034 A 
HETATM   35  C   UNL     1     -36.766  42.281 -58.346  1.00  0.00     0.009 A 
HETATM   36  C   UNL     1     -37.411  41.617 -59.391  1.00  0.00     0.001 A 
HETATM   37  C   UNL     1     -37.104  40.288 -59.667  1.00  0.00     0.000 A 
HETATM   38  C   UNL     1     -36.155  39.619 -58.897  1.00  0.00     0.001 A 
HETATM   39  C   UNL     1     -35.515  40.279 -57.845  1.00  0.00     0.009 A 
ENDBRANCH  33  34
ENDBRANCH  32  33
ENDBRANCH  30  32
ENDBRANCH  10  30
TORSDOF 10
ENDMDL
MODEL 9
REMARK VINA RESULT:      -7.7      3.076      7.887
REMARK  10 active torsions:
REMARK  status: ('A' for Active; 'I' for Inactive)
REMARK    1  A    between atoms: C_4  and  C_5 
REMARK    2  A    between atoms: C_7  and  C_8 
REMARK    3  A    between atoms: C_8  and  C_9 
REMARK       I    between atoms: C_9  and  N_10 
REMARK    4  A    between atoms: N_10  and  C_11 
REMARK    5  A    between atoms: C_11  and  C_12 
REMARK    6  A    between atoms: C_12  and  N_13 
REMARK    7  A    between atoms: C_24  and  C_25 
REMARK    8  A    between atoms: C_25  and  O_26 
REMARK    9  A    between atoms: O_26  and  C_27 
REMARK   10  A    between atoms: C_27  and  C_28 
ROOT
HETATM    1  C   UNL     1     -43.470  57.488 -53.299  1.00  0.00     0.166 C 
HETATM    2  N   UNL     1     -43.079  58.479 -52.276  1.00  0.00    -0.318 N 
HETATM    3  C   UNL     1     -43.597  58.983 -51.204  1.00  0.00     0.011 C 
HETATM    4  C   UNL     1     -41.730  59.161 -52.616  1.00  0.00     0.170 C 
HETATM    5  S   UNL     1     -41.060  59.941 -51.225  1.00  0.00    -0.086 SA
HETATM    6  C   UNL     1     -42.714  59.963 -50.456  1.00  0.00     0.135 C 
HETATM    7  N   UNL     1     -41.272  59.296 -53.812  1.00  0.00    -0.229 NA
HETATM    8  C   UNL     1     -42.130  58.945 -54.842  1.00  0.00     0.048 C 
HETATM    9  C   UNL     1     -41.817  59.638 -56.147  1.00  0.00     0.071 C 
HETATM   10  C   UNL     1     -43.211  58.161 -54.632  1.00  0.00     0.069 C 
ENDROOT
BRANCH   3  11
HETATM   11  C   UNL     1     -44.995  58.672 -50.754  1.00  0.00     0.156 C 
BRANCH  11  12
HETATM   12  C   UNL     1     -45.716  59.869 -50.165  1.00  0.00     0.223 C 
HETATM   13  N   UNL     1     -46.089  60.819 -51.081  1.00  0.00    -0.359 N 
HETATM   14  H   UNL     1     -45.757  60.706 -52.036  1.00  0.00     0.162 HD
HETATM   15  O   UNL     1     -45.932  59.964 -48.961  1.00  0.00    -0.273 OA
BRANCH  13  16
HETATM   16  C   UNL     1     -46.592  62.166 -50.788  1.00  0.00     0.150 C 
BRANCH  16  17
HETATM   17  C   UNL     1     -45.618  63.200 -50.181  1.00  0.00     0.253 C 
BRANCH  17  18
HETATM   18  N   UNL     1     -45.970  63.598 -48.761  1.00  0.00    -0.077 N 
HETATM   19  H   UNL     1     -45.966  64.637 -48.744  1.00  0.00     0.279 HD
HETATM   20  C   UNL     1     -47.331  63.145 -48.308  1.00  0.00     0.269 C 
HETATM   21  C   UNL     1     -44.911  63.153 -47.788  1.00  0.00     0.269 C 
ENDBRANCH  17  18
ENDBRANCH  16  17
ENDBRANCH  13  16
ENDBRANCH  11  12
ENDBRANCH   3  11
BRANCH   1  22
HETATM   22  C   UNL     1     -42.736  56.124 -53.148  1.00  0.00    -0.024 A 
HETATM   23  C   UNL     1     -41.861  55.717 -54.194  1.00  0.00     0.017 A 
HETATM   24  C   UNL     1     -41.138  54.516 -54.173  1.00  0.00    -0.061 A 
HETATM   25  C   UNL     1     -40.203  54.164 -55.297  1.00  0.00     0.048 C 
HETATM   26  C   UNL     1     -41.256  53.683 -53.072  1.00  0.00     0.007 A 
HETATM   27  C   UNL     1     -42.136  54.016 -52.050  1.00  0.00     0.008 A 
HETATM   28  C   UNL     1     -42.909  55.199 -52.082  1.00  0.00    -0.053 A 
HETATM   29  C   UNL     1     -43.871  55.344 -50.936  1.00  0.00     0.049 C 
ENDBRANCH   1  22
BRANCH  10  30
HETATM   30  C   UNL     1     -44.310  58.017 -55.601  1.00  0.00     0.294 C 
HETATM   31  O   UNL     1     -45.395  58.533 -55.378  1.00  0.00    -0.259 OA
BRANCH  30  32
HETATM   32  O   UNL     1     -43.954  57.232 -56.632  1.00  0.00    -0.313 OA
BRANCH  32  33
HETATM   33  C   UNL     1     -44.088  57.803 -57.945  1.00  0.00     0.217 C 
BRANCH  33  34
HETATM   34  C   UNL     1     -44.513  56.750 -58.936  1.00  0.00    -0.034 A 
HETATM   35  C   UNL     1     -45.697  56.891 -59.676  1.00  0.00     0.009 A 
HETATM   36  C   UNL     1     -46.069  55.927 -60.614  1.00  0.00     0.001 A 
HETATM   37  C   UNL     1     -45.257  54.817 -60.833  1.00  0.00     0.000 A 
HETATM   38  C   UNL     1     -44.075  54.667 -60.111  1.00  0.00     0.001 A 
HETATM   39  C   UNL     1     -43.705  55.626 -59.165  1.00  0.00     0.009 A 
ENDBRANCH  33  34
ENDBRANCH  32  33
ENDBRANCH  30  32
ENDBRANCH  10  30
TORSDOF 10
ENDMDL
MODEL 10
REMARK VINA RESULT:      -7.6      2.081      3.069
REMARK  10 active torsions:
REMARK  status: ('A' for Active; 'I' for Inactive)
REMARK    1  A    between atoms: C_4  and  C_5 
REMARK    2  A    between atoms: C_7  and  C_8 
REMARK    3  A    between atoms: C_8  and  C_9 
REMARK       I    between atoms: C_9  and  N_10 
REMARK    4  A    between atoms: N_10  and  C_11 
REMARK    5  A    between atoms: C_11  and  C_12 
REMARK    6  A    between atoms: C_12  and  N_13 
REMARK    7  A    between atoms: C_24  and  C_25 
REMARK    8  A    between atoms: C_25  and  O_26 
REMARK    9  A    between atoms: O_26  and  C_27 
REMARK   10  A    between atoms: C_27  and  C_28 
ROOT
HETATM    1  C   UNL     1     -43.971  59.679 -53.680  1.00  0.00     0.166 C 
HETATM    2  N   UNL     1     -43.720  59.693 -55.135  1.00  0.00    -0.318 N 
HETATM    3  C   UNL     1     -44.361  59.361 -56.206  1.00  0.00     0.011 C 
HETATM    4  C   UNL     1     -42.277  60.149 -55.469  1.00  0.00     0.170 C 
HETATM    5  S   UNL     1     -42.141  60.613 -57.130  1.00  0.00    -0.086 SA
HETATM    6  C   UNL     1     -43.642  59.649 -57.509  1.00  0.00     0.135 C 
HETATM    7  N   UNL     1     -41.274  60.011 -54.672  1.00  0.00    -0.229 NA
HETATM    8  C   UNL     1     -41.499  59.267 -53.524  1.00  0.00     0.048 C 
HETATM    9  C   UNL     1     -40.245  58.650 -52.953  1.00  0.00     0.071 C 
HETATM   10  C   UNL     1     -42.748  59.026 -53.065  1.00  0.00     0.069 C 
ENDROOT
BRANCH   3  11
HETATM   11  C   UNL     1     -45.699  58.680 -56.173  1.00  0.00     0.156 C 
BRANCH  11  12
HETATM   12  C   UNL     1     -46.400  58.667 -57.518  1.00  0.00     0.223 C 
HETATM   13  N   UNL     1     -46.435  57.442 -58.133  1.00  0.00    -0.359 N 
HETATM   14  H   UNL     1     -45.900  56.688 -57.706  1.00  0.00     0.162 HD
HETATM   15  O   UNL     1     -46.884  59.685 -58.003  1.00  0.00    -0.273 OA
BRANCH  13  16
HETATM   16  C   UNL     1     -46.837  57.168 -59.517  1.00  0.00     0.150 C 
BRANCH  16  17
HETATM   17  C   UNL     1     -46.247  55.928 -60.224  1.00  0.00     0.253 C 
BRANCH  17  18
HETATM   18  N   UNL     1     -44.943  55.452 -59.615  1.00  0.00    -0.077 N 
HETATM   19  H   UNL     1     -44.992  55.690 -58.605  1.00  0.00     0.279 HD
HETATM   20  C   UNL     1     -44.714  53.969 -59.718  1.00  0.00     0.269 C 
HETATM   21  C   UNL     1     -43.768  56.210 -60.172  1.00  0.00     0.269 C 
ENDBRANCH  17  18
ENDBRANCH  16  17
ENDBRANCH  13  16
ENDBRANCH  11  12
ENDBRANCH   3  11
BRANCH   1  22
HETATM   22  C   UNL     1     -44.273  61.088 -53.092  1.00  0.00    -0.024 A 
HETATM   23  C   UNL     1     -43.459  61.553 -52.020  1.00  0.00     0.017 A 
HETATM   24  C   UNL     1     -43.626  62.806 -51.412  1.00  0.00    -0.061 A 
HETATM   25  C   UNL     1     -42.708  63.249 -50.307  1.00  0.00     0.048 C 
HETATM   26  C   UNL     1     -44.617  63.652 -51.882  1.00  0.00     0.007 A 
HETATM   27  C   UNL     1     -45.466  63.220 -52.893  1.00  0.00     0.008 A 
HETATM   28  C   UNL     1     -45.342  61.941 -53.481  1.00  0.00    -0.053 A 
HETATM   29  C   UNL     1     -46.406  61.615 -54.492  1.00  0.00     0.049 C 
ENDBRANCH   1  22
BRANCH  10  30
HETATM   30  C   UNL     1     -43.058  58.001 -52.055  1.00  0.00     0.294 C 
HETATM   31  O   UNL     1     -43.152  58.309 -50.877  1.00  0.00    -0.259 OA
BRANCH  30  32
HETATM   32  O   UNL     1     -43.134  56.778 -52.607  1.00  0.00    -0.313 OA
BRANCH  32  33
HETATM   33  C   UNL     1     -42.466  55.717 -51.903  1.00  0.00     0.217 C 
BRANCH  33  34
HETATM   34  C   UNL     1     -41.704  54.845 -52.867  1.00  0.00    -0.034 A 
HETATM   35  C   UNL     1     -41.350  55.315 -54.140  1.00  0.00     0.009 A 
HETATM   36  C   UNL     1     -40.617  54.512 -55.017  1.00  0.00     0.001 A 
HETATM   37  C   UNL     1     -40.218  53.236 -54.626  1.00  0.00     0.000 A 
HETATM   38  C   UNL     1     -40.556  52.759 -53.362  1.00  0.00     0.001 A 
HETATM   39  C   UNL     1     -41.297  53.557 -52.487  1.00  0.00     0.009 A 
ENDBRANCH  33  34
ENDBRANCH  32  33
ENDBRANCH  30  32
ENDBRANCH  10  30
TORSDOF 10
ENDMDL
