MODEL 1
REMARK VINA RESULT:      -9.3      0.000      0.000
REMARK  7 active torsions:
REMARK  status: ('A' for Active; 'I' for Inactive)
REMARK    1  A    between atoms: C_4  and  C_5 
REMARK    2  A    between atoms: C_9  and  C_10 
REMARK       I    between atoms: C_10  and  N_11 
REMARK    3  A    between atoms: N_11  and  N_12 
REMARK       I    between atoms: N_12  and  C_13 
REMARK    4  A    between atoms: C_13  and  C_14 
REMARK    5  A    between atoms: C_14  and  C_15 
REMARK    6  A    between atoms: C_15  and  N_16 
REMARK    7  A    between atoms: C_15  and  C_20 
REMARK       I    between atoms: N_16  and  C_17 
REMARK       I    between atoms: C_17  and  N_18 
ROOT
HETATM    1  N   UNL     1     -44.285  56.040 -54.335  1.00  0.00    -0.267 N 
HETATM    2  C   UNL     1     -44.584  57.311 -53.886  1.00  0.00     0.238 C 
HETATM    3  O   UNL     1     -44.864  58.235 -54.648  1.00  0.00    -0.272 OA
HETATM    4  H   UNL     1     -43.653  55.488 -53.738  1.00  0.00     0.190 HD
ENDROOT
BRANCH   1   5
HETATM    5  N   UNL     1     -44.173  55.875 -55.726  1.00  0.00    -0.262 N 
HETATM    6  C   UNL     1     -43.039  55.445 -56.389  1.00  0.00     0.288 C 
HETATM    7  O   UNL     1     -42.949  55.654 -57.599  1.00  0.00    -0.264 OA
HETATM    8  H   UNL     1     -44.878  56.350 -56.289  1.00  0.00     0.190 HD
BRANCH   6   9
HETATM    9  C   UNL     1     -42.005  54.765 -55.650  1.00  0.00     0.121 A 
HETATM   10  N   UNL     1     -40.740  55.216 -55.422  1.00  0.00    -0.272 N 
HETATM   11  N   UNL     1     -39.954  54.365 -54.741  1.00  0.00    -0.174 NA
HETATM   12  H   UNL     1     -40.345  56.089 -55.751  1.00  0.00     0.189 HD
HETATM   13  C   UNL     1     -40.769  53.340 -54.434  1.00  0.00     0.089 A 
HETATM   14  C   UNL     1     -42.066  53.566 -54.970  1.00  0.00     0.071 A 
BRANCH  13  15
HETATM   15  C   UNL     1     -40.307  52.177 -53.673  1.00  0.00    -0.006 A 
HETATM   16  C   UNL     1     -40.003  52.286 -52.307  1.00  0.00     0.014 A 
HETATM   17  C   UNL     1     -39.589  51.167 -51.578  1.00  0.00     0.001 A 
HETATM   18  C   UNL     1     -39.479  49.928 -52.205  1.00  0.00     0.000 A 
HETATM   19  C   UNL     1     -39.773  49.806 -53.561  1.00  0.00     0.001 A 
HETATM   20  C   UNL     1     -40.181  50.925 -54.292  1.00  0.00     0.014 A 
ENDBRANCH  13  15
ENDBRANCH   6   9
ENDBRANCH   1   5
BRANCH   2  21
HETATM   21  C   UNL     1     -44.520  57.504 -52.382  1.00  0.00     0.134 C 
BRANCH  21  22
HETATM   22  C   UNL     1     -43.123  57.840 -51.825  1.00  0.00     0.127 C 
BRANCH  22  23
HETATM   23  N   UNL     1     -42.170  58.495 -52.727  1.00  0.00    -0.339 N 
HETATM   24  C   UNL     1     -42.120  59.801 -53.078  1.00  0.00     0.292 C 
HETATM   25  N   UNL     1     -41.204  60.056 -54.039  1.00  0.00    -0.254 NA
HETATM   26  O   UNL     1     -42.827  60.688 -52.624  1.00  0.00    -0.254 OA
HETATM   27  H   UNL     1     -41.063  59.360 -54.757  1.00  0.00     0.128 HD
HETATM   28  H   UNL     1     -41.273  60.999 -54.409  1.00  0.00     0.128 HD
HETATM   29  H   UNL     1     -41.428  57.912 -53.086  1.00  0.00     0.164 HD
ENDBRANCH  22  23
BRANCH  22  30
HETATM   30  C   UNL     1     -42.481  56.708 -51.030  1.00  0.00    -0.035 A 
HETATM   31  C   UNL     1     -41.185  56.799 -50.496  1.00  0.00     0.011 A 
HETATM   32  C   UNL     1     -40.618  55.725 -49.804  1.00  0.00     0.024 A 
HETATM   33  C   UNL     1     -41.340  54.545 -49.641  1.00  0.00     0.034 A 
HETATM   34 CL   UNL     1     -40.638  53.223 -48.793  1.00  0.00    -0.084 Cl
HETATM   35  C   UNL     1     -42.625  54.432 -50.160  1.00  0.00     0.024 A 
HETATM   36  C   UNL     1     -43.193  55.507 -50.849  1.00  0.00     0.011 A 
ENDBRANCH  22  30
ENDBRANCH  21  22
ENDBRANCH   2  21
TORSDOF 7
ENDMDL
MODEL 2
REMARK VINA RESULT:      -8.9      1.653      2.604
REMARK  7 active torsions:
REMARK  status: ('A' for Active; 'I' for Inactive)
REMARK    1  A    between atoms: C_4  and  C_5 
REMARK    2  A    between atoms: C_9  and  C_10 
REMARK       I    between atoms: C_10  and  N_11 
REMARK    3  A    between atoms: N_11  and  N_12 
REMARK       I    between atoms: N_12  and  C_13 
REMARK    4  A    between atoms: C_13  and  C_14 
REMARK    5  A    between atoms: C_14  and  C_15 
REMARK    6  A    between atoms: C_15  and  N_16 
REMARK    7  A    between atoms: C_15  and  C_20 
REMARK       I    between atoms: N_16  and  C_17 
REMARK       I    between atoms: C_17  and  N_18 
ROOT
HETATM    1  N   UNL     1     -43.135  58.417 -54.427  1.00  0.00    -0.267 N 
HETATM    2  C   UNL     1     -42.066  58.973 -53.753  1.00  0.00     0.238 C 
HETATM    3  O   UNL     1     -41.126  59.516 -54.333  1.00  0.00    -0.272 OA
HETATM    4  H   UNL     1     -43.606  57.632 -53.956  1.00  0.00     0.190 HD
ENDROOT
BRANCH   1   5
HETATM    5  N   UNL     1     -43.038  58.368 -55.829  1.00  0.00    -0.262 N 
HETATM    6  C   UNL     1     -42.527  57.310 -56.556  1.00  0.00     0.288 C 
HETATM    7  O   UNL     1     -42.189  57.506 -57.723  1.00  0.00    -0.264 OA
HETATM    8  H   UNL     1     -43.103  59.265 -56.310  1.00  0.00     0.190 HD
BRANCH   6   9
HETATM    9  C   UNL     1     -42.412  56.015 -55.932  1.00  0.00     0.121 A 
HETATM   10  N   UNL     1     -43.354  55.031 -55.925  1.00  0.00    -0.272 N 
HETATM   11  N   UNL     1     -43.015  53.933 -55.228  1.00  0.00    -0.174 NA
HETATM   12  H   UNL     1     -44.273  55.076 -56.348  1.00  0.00     0.189 HD
HETATM   13  C   UNL     1     -41.753  54.175 -54.829  1.00  0.00     0.089 A 
HETATM   14  C   UNL     1     -41.337  55.461 -55.268  1.00  0.00     0.071 A 
BRANCH  13  15
HETATM   15  C   UNL     1     -40.988  53.212 -54.034  1.00  0.00    -0.006 A 
HETATM   16  C   UNL     1     -40.627  51.966 -54.567  1.00  0.00     0.014 A 
HETATM   17  C   UNL     1     -39.872  51.060 -53.814  1.00  0.00     0.001 A 
HETATM   18  C   UNL     1     -39.469  51.393 -52.523  1.00  0.00     0.000 A 
HETATM   19  C   UNL     1     -39.825  52.625 -51.979  1.00  0.00     0.001 A 
HETATM   20  C   UNL     1     -40.584  53.528 -52.728  1.00  0.00     0.014 A 
ENDBRANCH  13  15
ENDBRANCH   6   9
ENDBRANCH   1   5
BRANCH   2  21
HETATM   21  C   UNL     1     -42.111  58.850 -52.241  1.00  0.00     0.134 C 
BRANCH  21  22
HETATM   22  C   UNL     1     -43.150  57.851 -51.697  1.00  0.00     0.127 C 
BRANCH  22  23
HETATM   23  N   UNL     1     -44.335  58.398 -51.029  1.00  0.00    -0.339 N 
HETATM   24  C   UNL     1     -45.336  59.128 -51.574  1.00  0.00     0.292 C 
HETATM   25  N   UNL     1     -46.210  59.598 -50.656  1.00  0.00    -0.254 NA
HETATM   26  O   UNL     1     -45.463  59.386 -52.762  1.00  0.00    -0.254 OA
HETATM   27  H   UNL     1     -45.848  59.877 -49.756  1.00  0.00     0.128 HD
HETATM   28  H   UNL     1     -46.867  60.267 -51.045  1.00  0.00     0.128 HD
HETATM   29  H   UNL     1     -44.446  58.154 -50.055  1.00  0.00     0.164 HD
ENDBRANCH  22  23
BRANCH  22  30
HETATM   30  C   UNL     1     -42.546  56.678 -50.932  1.00  0.00    -0.035 A 
HETATM   31  C   UNL     1     -43.246  55.481 -50.705  1.00  0.00     0.011 A 
HETATM   32  C   UNL     1     -42.669  54.443 -49.968  1.00  0.00     0.024 A 
HETATM   33  C   UNL     1     -41.387  54.591 -49.445  1.00  0.00     0.034 A 
HETATM   34 CL   UNL     1     -40.681  53.314 -48.534  1.00  0.00    -0.084 Cl
HETATM   35  C   UNL     1     -40.674  55.767 -49.658  1.00  0.00     0.024 A 
HETATM   36  C   UNL     1     -41.249  56.802 -50.399  1.00  0.00     0.011 A 
ENDBRANCH  22  30
ENDBRANCH  21  22
ENDBRANCH   2  21
TORSDOF 7
ENDMDL
MODEL 3
REMARK VINA RESULT:      -8.7      1.502      1.801
REMARK  7 active torsions:
REMARK  status: ('A' for Active; 'I' for Inactive)
REMARK    1  A    between atoms: C_4  and  C_5 
REMARK    2  A    between atoms: C_9  and  C_10 
REMARK       I    between atoms: C_10  and  N_11 
REMARK    3  A    between atoms: N_11  and  N_12 
REMARK       I    between atoms: N_12  and  C_13 
REMARK    4  A    between atoms: C_13  and  C_14 
REMARK    5  A    between atoms: C_14  and  C_15 
REMARK    6  A    between atoms: C_15  and  N_16 
REMARK    7  A    between atoms: C_15  and  C_20 
REMARK       I    between atoms: N_16  and  C_17 
REMARK       I    between atoms: C_17  and  N_18 
ROOT
HETATM    1  N   UNL     1     -43.994  56.812 -54.563  1.00  0.00    -0.267 N 
HETATM    2  C   UNL     1     -43.872  58.176 -54.391  1.00  0.00     0.238 C 
HETATM    3  O   UNL     1     -43.924  58.971 -55.330  1.00  0.00    -0.272 OA
HETATM    4  H   UNL     1     -43.509  56.226 -53.869  1.00  0.00     0.190 HD
ENDROOT
BRANCH   1   5
HETATM    5  N   UNL     1     -44.037  56.347 -55.889  1.00  0.00    -0.262 N 
HETATM    6  C   UNL     1     -43.044  55.614 -56.510  1.00  0.00     0.288 C 
HETATM    7  O   UNL     1     -43.039  55.550 -57.739  1.00  0.00    -0.264 OA
HETATM    8  H   UNL     1     -44.718  56.802 -56.497  1.00  0.00     0.190 HD
BRANCH   6   9
HETATM    9  C   UNL     1     -42.052  54.945 -55.704  1.00  0.00     0.121 A 
HETATM   10  N   UNL     1     -40.876  55.472 -55.262  1.00  0.00    -0.272 N 
HETATM   11  N   UNL     1     -40.106  54.620 -54.564  1.00  0.00    -0.174 NA
HETATM   12  H   UNL     1     -40.528  56.405 -55.448  1.00  0.00     0.189 HD
HETATM   13  C   UNL     1     -40.851  53.505 -54.472  1.00  0.00     0.089 A 
HETATM   14  C   UNL     1     -42.084  53.679 -55.157  1.00  0.00     0.071 A 
BRANCH  13  15
HETATM   15  C   UNL     1     -40.381  52.308 -53.770  1.00  0.00    -0.006 A 
HETATM   16  C   UNL     1     -39.920  52.386 -52.447  1.00  0.00     0.014 A 
HETATM   17  C   UNL     1     -39.498  51.237 -51.771  1.00  0.00     0.001 A 
HETATM   18  C   UNL     1     -39.536  49.999 -52.409  1.00  0.00     0.000 A 
HETATM   19  C   UNL     1     -39.987  49.907 -53.724  1.00  0.00     0.001 A 
HETATM   20  C   UNL     1     -40.403  51.057 -54.402  1.00  0.00     0.014 A 
ENDBRANCH  13  15
ENDBRANCH   6   9
ENDBRANCH   1   5
BRANCH   2  21
HETATM   21  C   UNL     1     -43.644  58.637 -52.963  1.00  0.00     0.134 C 
BRANCH  21  22
HETATM   22  C   UNL     1     -44.101  57.647 -51.876  1.00  0.00     0.127 C 
BRANCH  22  23
HETATM   23  N   UNL     1     -45.055  58.131 -50.872  1.00  0.00    -0.339 N 
HETATM   24  C   UNL     1     -45.037  59.310 -50.209  1.00  0.00     0.292 C 
HETATM   25  N   UNL     1     -45.983  59.390 -49.246  1.00  0.00    -0.254 NA
HETATM   26  O   UNL     1     -44.251  60.225 -50.403  1.00  0.00    -0.254 OA
HETATM   27  H   UNL     1     -46.207  58.552 -48.730  1.00  0.00     0.128 HD
HETATM   28  H   UNL     1     -45.872  60.205 -48.651  1.00  0.00     0.128 HD
HETATM   29  H   UNL     1     -45.851  57.536 -50.695  1.00  0.00     0.164 HD
ENDBRANCH  22  23
BRANCH  22  30
HETATM   30  C   UNL     1     -42.966  56.841 -51.251  1.00  0.00    -0.035 A 
HETATM   31  C   UNL     1     -41.731  57.415 -50.908  1.00  0.00     0.011 A 
HETATM   32  C   UNL     1     -40.703  56.634 -50.370  1.00  0.00     0.024 A 
HETATM   33  C   UNL     1     -40.898  55.269 -50.173  1.00  0.00     0.034 A 
HETATM   34 CL   UNL     1     -39.631  54.310 -49.517  1.00  0.00    -0.084 Cl
HETATM   35  C   UNL     1     -42.114  54.679 -50.505  1.00  0.00     0.024 A 
HETATM   36  C   UNL     1     -43.142  55.461 -51.038  1.00  0.00     0.011 A 
ENDBRANCH  22  30
ENDBRANCH  21  22
ENDBRANCH   2  21
TORSDOF 7
ENDMDL
MODEL 4
REMARK VINA RESULT:      -8.6      2.170      3.227
REMARK  7 active torsions:
REMARK  status: ('A' for Active; 'I' for Inactive)
REMARK    1  A    between atoms: C_4  and  C_5 
REMARK    2  A    between atoms: C_9  and  C_10 
REMARK       I    between atoms: C_10  and  N_11 
REMARK    3  A    between atoms: N_11  and  N_12 
REMARK       I    between atoms: N_12  and  C_13 
REMARK    4  A    between atoms: C_13  and  C_14 
REMARK    5  A    between atoms: C_14  and  C_15 
REMARK    6  A    between atoms: C_15  and  N_16 
REMARK    7  A    between atoms: C_15  and  C_20 
REMARK       I    between atoms: N_16  and  C_17 
REMARK       I    between atoms: C_17  and  N_18 
ROOT
HETATM    1  N   UNL     1     -44.150  56.428 -54.575  1.00  0.00    -0.267 N 
HETATM    2  C   UNL     1     -44.768  57.615 -54.237  1.00  0.00     0.238 C 
HETATM    3  O   UNL     1     -45.327  58.331 -55.067  1.00  0.00    -0.272 OA
HETATM    4  H   UNL     1     -43.364  56.142 -53.974  1.00  0.00     0.190 HD
ENDROOT
BRANCH   1   5
HETATM    5  N   UNL     1     -44.057  56.135 -55.947  1.00  0.00    -0.262 N 
HETATM    6  C   UNL     1     -42.960  55.570 -56.569  1.00  0.00     0.288 C 
HETATM    7  O   UNL     1     -42.862  55.666 -57.792  1.00  0.00    -0.264 OA
HETATM    8  H   UNL     1     -44.730  56.608 -56.549  1.00  0.00     0.190 HD
BRANCH   6   9
HETATM    9  C   UNL     1     -41.972  54.885 -55.772  1.00  0.00     0.121 A 
HETATM   10  N   UNL     1     -40.729  55.341 -55.453  1.00  0.00    -0.272 N 
HETATM   11  N   UNL     1     -39.984  54.485 -54.734  1.00  0.00    -0.174 NA
HETATM   12  H   UNL     1     -40.320  56.222 -55.741  1.00  0.00     0.189 HD
HETATM   13  C   UNL     1     -40.809  53.450 -54.498  1.00  0.00     0.089 A 
HETATM   14  C   UNL     1     -42.068  53.675 -55.117  1.00  0.00     0.071 A 
BRANCH  13  15
HETATM   15  C   UNL     1     -40.390  52.277 -53.726  1.00  0.00    -0.006 A 
HETATM   16  C   UNL     1     -40.250  51.024 -54.342  1.00  0.00     0.014 A 
HETATM   17  C   UNL     1     -39.823  49.914 -53.607  1.00  0.00     0.001 A 
HETATM   18  C   UNL     1     -39.528  50.046 -52.252  1.00  0.00     0.000 A 
HETATM   19  C   UNL     1     -39.667  51.283 -51.627  1.00  0.00     0.001 A 
HETATM   20  C   UNL     1     -40.100  52.392 -52.359  1.00  0.00     0.014 A 
ENDBRANCH  13  15
ENDBRANCH   6   9
ENDBRANCH   1   5
BRANCH   2  21
HETATM   21  C   UNL     1     -44.695  57.996 -52.770  1.00  0.00     0.134 C 
BRANCH  21  22
HETATM   22  C   UNL     1     -43.713  57.161 -51.926  1.00  0.00     0.127 C 
BRANCH  22  23
HETATM   23  N   UNL     1     -44.277  56.273 -50.905  1.00  0.00    -0.339 N 
HETATM   24  C   UNL     1     -44.090  54.940 -50.768  1.00  0.00     0.292 C 
HETATM   25  N   UNL     1     -44.865  54.393 -49.805  1.00  0.00    -0.254 NA
HETATM   26  O   UNL     1     -43.334  54.253 -51.439  1.00  0.00    -0.254 OA
HETATM   27  H   UNL     1     -45.796  54.763 -49.678  1.00  0.00     0.128 HD
HETATM   28  H   UNL     1     -44.839  53.377 -49.806  1.00  0.00     0.128 HD
HETATM   29  H   UNL     1     -44.827  56.719 -50.185  1.00  0.00     0.164 HD
ENDBRANCH  22  23
BRANCH  22  30
HETATM   30  C   UNL     1     -42.514  57.949 -51.407  1.00  0.00    -0.035 A 
HETATM   31  C   UNL     1     -42.572  59.327 -51.142  1.00  0.00     0.011 A 
HETATM   32  C   UNL     1     -41.441  60.020 -50.701  1.00  0.00     0.024 A 
HETATM   33  C   UNL     1     -40.237  59.343 -50.522  1.00  0.00     0.034 A 
HETATM   34 CL   UNL     1     -38.846  60.199 -49.984  1.00  0.00    -0.084 Cl
HETATM   35  C   UNL     1     -40.156  57.978 -50.777  1.00  0.00     0.024 A 
HETATM   36  C   UNL     1     -41.288  57.285 -51.214  1.00  0.00     0.011 A 
ENDBRANCH  22  30
ENDBRANCH  21  22
ENDBRANCH   2  21
TORSDOF 7
ENDMDL
MODEL 5
REMARK VINA RESULT:      -8.3      3.165      6.516
REMARK  7 active torsions:
REMARK  status: ('A' for Active; 'I' for Inactive)
REMARK    1  A    between atoms: C_4  and  C_5 
REMARK    2  A    between atoms: C_9  and  C_10 
REMARK       I    between atoms: C_10  and  N_11 
REMARK    3  A    between atoms: N_11  and  N_12 
REMARK       I    between atoms: N_12  and  C_13 
REMARK    4  A    between atoms: C_13  and  C_14 
REMARK    5  A    between atoms: C_14  and  C_15 
REMARK    6  A    between atoms: C_15  and  N_16 
REMARK    7  A    between atoms: C_15  and  C_20 
REMARK       I    between atoms: N_16  and  C_17 
REMARK       I    between atoms: C_17  and  N_18 
ROOT
HETATM    1  N   UNL     1     -42.381  58.117 -54.001  1.00  0.00    -0.267 N 
HETATM    2  C   UNL     1     -41.269  57.554 -53.409  1.00  0.00     0.238 C 
HETATM    3  O   UNL     1     -40.208  58.163 -53.276  1.00  0.00    -0.272 OA
HETATM    4  H   UNL     1     -43.023  57.461 -54.468  1.00  0.00     0.190 HD
ENDROOT
BRANCH   1   5
HETATM    5  N   UNL     1     -42.209  59.383 -54.586  1.00  0.00    -0.262 N 
HETATM    6  C   UNL     1     -42.160  59.635 -55.944  1.00  0.00     0.288 C 
HETATM    7  O   UNL     1     -41.683  60.702 -56.328  1.00  0.00    -0.264 OA
HETATM    8  H   UNL     1     -41.838  60.109 -53.973  1.00  0.00     0.190 HD
BRANCH   6   9
HETATM    9  C   UNL     1     -42.671  58.649 -56.863  1.00  0.00     0.121 A 
HETATM   10  N   UNL     1     -42.045  57.505 -57.256  1.00  0.00    -0.272 N 
HETATM   11  N   UNL     1     -42.720  56.777 -58.162  1.00  0.00    -0.174 NA
HETATM   12  H   UNL     1     -41.126  57.193 -56.966  1.00  0.00     0.189 HD
HETATM   13  C   UNL     1     -43.885  57.433 -58.307  1.00  0.00     0.089 A 
HETATM   14  C   UNL     1     -43.897  58.599 -57.494  1.00  0.00     0.071 A 
BRANCH  13  15
HETATM   15  C   UNL     1     -44.937  56.965 -59.213  1.00  0.00    -0.006 A 
HETATM   16  C   UNL     1     -46.133  57.683 -59.357  1.00  0.00     0.014 A 
HETATM   17  C   UNL     1     -47.122  57.248 -60.244  1.00  0.00     0.001 A 
HETATM   18  C   UNL     1     -46.924  56.095 -60.999  1.00  0.00     0.000 A 
HETATM   19  C   UNL     1     -45.742  55.369 -60.864  1.00  0.00     0.001 A 
HETATM   20  C   UNL     1     -44.756  55.800 -59.972  1.00  0.00     0.014 A 
ENDBRANCH  13  15
ENDBRANCH   6   9
ENDBRANCH   1   5
BRANCH   2  21
HETATM   21  C   UNL     1     -41.430  56.116 -52.949  1.00  0.00     0.134 C 
BRANCH  21  22
HETATM   22  C   UNL     1     -40.951  55.051 -53.953  1.00  0.00     0.127 C 
BRANCH  22  23
HETATM   23  N   UNL     1     -41.766  54.831 -55.152  1.00  0.00    -0.339 N 
HETATM   24  C   UNL     1     -43.095  54.588 -55.221  1.00  0.00     0.292 C 
HETATM   25  N   UNL     1     -43.515  54.291 -56.471  1.00  0.00    -0.254 NA
HETATM   26  O   UNL     1     -43.871  54.598 -54.277  1.00  0.00    -0.254 OA
HETATM   27  H   UNL     1     -42.898  53.755 -57.063  1.00  0.00     0.128 HD
HETATM   28  H   UNL     1     -44.475  53.961 -56.497  1.00  0.00     0.128 HD
HETATM   29  H   UNL     1     -41.287  54.925 -56.036  1.00  0.00     0.164 HD
ENDBRANCH  22  23
BRANCH  22  30
HETATM   30  C   UNL     1     -40.508  53.742 -53.307  1.00  0.00    -0.035 A 
HETATM   31  C   UNL     1     -40.209  52.592 -54.057  1.00  0.00     0.011 A 
HETATM   32  C   UNL     1     -39.841  51.401 -53.425  1.00  0.00     0.024 A 
HETATM   33  C   UNL     1     -39.771  51.344 -52.036  1.00  0.00     0.034 A 
HETATM   34 CL   UNL     1     -39.324  49.875 -51.261  1.00  0.00    -0.084 Cl
HETATM   35  C   UNL     1     -40.062  52.470 -51.272  1.00  0.00     0.024 A 
HETATM   36  C   UNL     1     -40.426  53.662 -51.904  1.00  0.00     0.011 A 
ENDBRANCH  22  30
ENDBRANCH  21  22
ENDBRANCH   2  21
TORSDOF 7
ENDMDL
MODEL 6
REMARK VINA RESULT:      -8.1      4.199      6.752
REMARK  7 active torsions:
REMARK  status: ('A' for Active; 'I' for Inactive)
REMARK    1  A    between atoms: C_4  and  C_5 
REMARK    2  A    between atoms: C_9  and  C_10 
REMARK       I    between atoms: C_10  and  N_11 
REMARK    3  A    between atoms: N_11  and  N_12 
REMARK       I    between atoms: N_12  and  C_13 
REMARK    4  A    between atoms: C_13  and  C_14 
REMARK    5  A    between atoms: C_14  and  C_15 
REMARK    6  A    between atoms: C_15  and  N_16 
REMARK    7  A    between atoms: C_15  and  C_20 
REMARK       I    between atoms: N_16  and  C_17 
REMARK       I    between atoms: C_17  and  N_18 
ROOT
HETATM    1  N   UNL     1     -43.974  56.079 -55.853  1.00  0.00    -0.267 N 
HETATM    2  C   UNL     1     -42.951  56.529 -56.663  1.00  0.00     0.238 C 
HETATM    3  O   UNL     1     -42.136  57.375 -56.295  1.00  0.00    -0.272 OA
HETATM    4  H   UNL     1     -44.824  55.759 -56.337  1.00  0.00     0.190 HD
ENDROOT
BRANCH   1   5
HETATM    5  N   UNL     1     -44.138  56.739 -54.622  1.00  0.00    -0.262 N 
HETATM    6  C   UNL     1     -43.565  56.350 -53.426  1.00  0.00     0.288 C 
HETATM    7  O   UNL     1     -44.033  56.792 -52.377  1.00  0.00    -0.264 OA
HETATM    8  H   UNL     1     -44.931  57.378 -54.562  1.00  0.00     0.190 HD
BRANCH   6   9
HETATM    9  C   UNL     1     -42.439  55.449 -53.444  1.00  0.00     0.121 A 
HETATM   10  N   UNL     1     -41.143  55.775 -53.712  1.00  0.00    -0.272 N 
HETATM   11  N   UNL     1     -40.291  54.736 -53.710  1.00  0.00    -0.174 NA
HETATM   12  H   UNL     1     -40.791  56.695 -53.948  1.00  0.00     0.189 HD
HETATM   13  C   UNL     1     -41.050  53.689 -53.339  1.00  0.00     0.089 A 
HETATM   14  C   UNL     1     -42.396  54.103 -53.146  1.00  0.00     0.071 A 
BRANCH  13  15
HETATM   15  C   UNL     1     -40.503  52.338 -53.202  1.00  0.00    -0.006 A 
HETATM   16  C   UNL     1     -39.977  51.897 -51.978  1.00  0.00     0.014 A 
HETATM   17  C   UNL     1     -39.481  50.596 -51.843  1.00  0.00     0.001 A 
HETATM   18  C   UNL     1     -39.508  49.724 -52.929  1.00  0.00     0.000 A 
HETATM   19  C   UNL     1     -40.022  50.150 -54.151  1.00  0.00     0.001 A 
HETATM   20  C   UNL     1     -40.513  51.451 -54.288  1.00  0.00     0.014 A 
ENDBRANCH  13  15
ENDBRANCH   6   9
ENDBRANCH   1   5
BRANCH   2  21
HETATM   21  C   UNL     1     -42.909  55.929 -58.056  1.00  0.00     0.134 C 
BRANCH  21  22
HETATM   22  C   UNL     1     -43.828  56.607 -59.089  1.00  0.00     0.127 C 
BRANCH  22  23
HETATM   23  N   UNL     1     -44.036  55.922 -60.369  1.00  0.00    -0.339 N 
HETATM   24  C   UNL     1     -45.201  55.471 -60.891  1.00  0.00     0.292 C 
HETATM   25  N   UNL     1     -45.031  54.758 -62.027  1.00  0.00    -0.254 NA
HETATM   26  O   UNL     1     -46.310  55.640 -60.408  1.00  0.00    -0.254 OA
HETATM   27  H   UNL     1     -44.213  54.172 -62.100  1.00  0.00     0.128 HD
HETATM   28  H   UNL     1     -45.881  54.294 -62.332  1.00  0.00     0.128 HD
HETATM   29  H   UNL     1     -43.221  55.824 -60.956  1.00  0.00     0.164 HD
ENDBRANCH  22  23
BRANCH  22  30
HETATM   30  C   UNL     1     -43.567  58.099 -59.269  1.00  0.00    -0.035 A 
HETATM   31  C   UNL     1     -42.391  58.596 -59.856  1.00  0.00     0.011 A 
HETATM   32  C   UNL     1     -42.173  59.972 -59.971  1.00  0.00     0.024 A 
HETATM   33  C   UNL     1     -43.128  60.868 -59.498  1.00  0.00     0.034 A 
HETATM   34 CL   UNL     1     -42.856  62.561 -59.635  1.00  0.00    -0.084 Cl
HETATM   35  C   UNL     1     -44.301  60.400 -58.914  1.00  0.00     0.024 A 
HETATM   36  C   UNL     1     -44.520  59.024 -58.803  1.00  0.00     0.011 A 
ENDBRANCH  22  30
ENDBRANCH  21  22
ENDBRANCH   2  21
TORSDOF 7
ENDMDL
MODEL 7
REMARK VINA RESULT:      -8.0      2.938      3.763
REMARK  7 active torsions:
REMARK  status: ('A' for Active; 'I' for Inactive)
REMARK    1  A    between atoms: C_4  and  C_5 
REMARK    2  A    between atoms: C_9  and  C_10 
REMARK       I    between atoms: C_10  and  N_11 
REMARK    3  A    between atoms: N_11  and  N_12 
REMARK       I    between atoms: N_12  and  C_13 
REMARK    4  A    between atoms: C_13  and  C_14 
REMARK    5  A    between atoms: C_14  and  C_15 
REMARK    6  A    between atoms: C_15  and  N_16 
REMARK    7  A    between atoms: C_15  and  C_20 
REMARK       I    between atoms: N_16  and  C_17 
REMARK       I    between atoms: C_17  and  N_18 
ROOT
HETATM    1  N   UNL     1     -42.713  57.262 -53.933  1.00  0.00    -0.267 N 
HETATM    2  C   UNL     1     -43.229  56.779 -52.748  1.00  0.00     0.238 C 
HETATM    3  O   UNL     1     -44.074  55.885 -52.707  1.00  0.00    -0.272 OA
HETATM    4  H   UNL     1     -42.397  58.242 -53.921  1.00  0.00     0.190 HD
ENDROOT
BRANCH   1   5
HETATM    5  N   UNL     1     -43.302  56.785 -55.117  1.00  0.00    -0.262 N 
HETATM    6  C   UNL     1     -42.780  55.792 -55.924  1.00  0.00     0.288 C 
HETATM    7  O   UNL     1     -43.196  55.692 -57.078  1.00  0.00    -0.264 OA
HETATM    8  H   UNL     1     -44.011  57.387 -55.534  1.00  0.00     0.190 HD
BRANCH   6   9
HETATM    9  C   UNL     1     -41.775  54.905 -55.391  1.00  0.00     0.121 A 
HETATM   10  N   UNL     1     -40.425  55.052 -55.498  1.00  0.00    -0.272 N 
HETATM   11  N   UNL     1     -39.707  54.057 -54.952  1.00  0.00    -0.174 NA
HETATM   12  H   UNL     1     -39.938  55.800 -55.978  1.00  0.00     0.189 HD
HETATM   13  C   UNL     1     -40.629  53.260 -54.384  1.00  0.00     0.089 A 
HETATM   14  C   UNL     1     -41.934  53.771 -54.622  1.00  0.00     0.071 A 
BRANCH  13  15
HETATM   15  C   UNL     1     -40.267  52.039 -53.659  1.00  0.00    -0.006 A 
HETATM   16  C   UNL     1     -40.193  50.806 -54.323  1.00  0.00     0.014 A 
HETATM   17  C   UNL     1     -39.819  49.648 -53.633  1.00  0.00     0.001 A 
HETATM   18  C   UNL     1     -39.512  49.712 -52.276  1.00  0.00     0.000 A 
HETATM   19  C   UNL     1     -39.585  50.930 -51.604  1.00  0.00     0.001 A 
HETATM   20  C   UNL     1     -39.965  52.087 -52.291  1.00  0.00     0.014 A 
ENDBRANCH  13  15
ENDBRANCH   6   9
ENDBRANCH   1   5
BRANCH   2  21
HETATM   21  C   UNL     1     -42.704  57.442 -51.488  1.00  0.00     0.134 C 
BRANCH  21  22
HETATM   22  C   UNL     1     -42.344  58.932 -51.635  1.00  0.00     0.127 C 
BRANCH  22  23
HETATM   23  N   UNL     1     -40.978  59.340 -51.290  1.00  0.00    -0.339 N 
HETATM   24  C   UNL     1     -39.864  59.239 -52.051  1.00  0.00     0.292 C 
HETATM   25  N   UNL     1     -38.736  59.577 -51.386  1.00  0.00    -0.254 NA
HETATM   26  O   UNL     1     -39.825  58.860 -53.212  1.00  0.00    -0.254 OA
HETATM   27  H   UNL     1     -38.673  59.338 -50.407  1.00  0.00     0.128 HD
HETATM   28  H   UNL     1     -37.891  59.356 -51.904  1.00  0.00     0.128 HD
HETATM   29  H   UNL     1     -40.865  59.802 -50.399  1.00  0.00     0.164 HD
ENDBRANCH  22  23
BRANCH  22  30
HETATM   30  C   UNL     1     -43.391  59.885 -51.065  1.00  0.00    -0.035 A 
HETATM   31  C   UNL     1     -43.104  60.796 -50.036  1.00  0.00     0.011 A 
HETATM   32  C   UNL     1     -44.100  61.628 -49.517  1.00  0.00     0.024 A 
HETATM   33  C   UNL     1     -45.397  61.555 -50.019  1.00  0.00     0.034 A 
HETATM   34 CL   UNL     1     -46.623  62.575 -49.375  1.00  0.00    -0.084 Cl
HETATM   35  C   UNL     1     -45.705  60.661 -51.039  1.00  0.00     0.024 A 
HETATM   36  C   UNL     1     -44.707  59.833 -51.560  1.00  0.00     0.011 A 
ENDBRANCH  22  30
ENDBRANCH  21  22
ENDBRANCH   2  21
TORSDOF 7
ENDMDL
MODEL 8
REMARK VINA RESULT:      -8.0      2.962      3.944
REMARK  7 active torsions:
REMARK  status: ('A' for Active; 'I' for Inactive)
REMARK    1  A    between atoms: C_4  and  C_5 
REMARK    2  A    between atoms: C_9  and  C_10 
REMARK       I    between atoms: C_10  and  N_11 
REMARK    3  A    between atoms: N_11  and  N_12 
REMARK       I    between atoms: N_12  and  C_13 
REMARK    4  A    between atoms: C_13  and  C_14 
REMARK    5  A    between atoms: C_14  and  C_15 
REMARK    6  A    between atoms: C_15  and  N_16 
REMARK    7  A    between atoms: C_15  and  C_20 
REMARK       I    between atoms: N_16  and  C_17 
REMARK       I    between atoms: C_17  and  N_18 
ROOT
HETATM    1  N   UNL     1     -44.430  56.387 -54.293  1.00  0.00    -0.267 N 
HETATM    2  C   UNL     1     -44.699  57.669 -53.856  1.00  0.00     0.238 C 
HETATM    3  O   UNL     1     -44.842  58.617 -54.628  1.00  0.00    -0.272 OA
HETATM    4  H   UNL     1     -43.899  55.792 -53.643  1.00  0.00     0.190 HD
ENDROOT
BRANCH   1   5
HETATM    5  N   UNL     1     -44.181  56.230 -55.667  1.00  0.00    -0.262 N 
HETATM    6  C   UNL     1     -42.993  55.784 -56.217  1.00  0.00     0.288 C 
HETATM    7  O   UNL     1     -42.778  56.000 -57.409  1.00  0.00    -0.264 OA
HETATM    8  H   UNL     1     -44.817  56.723 -56.294  1.00  0.00     0.190 HD
BRANCH   6   9
HETATM    9  C   UNL     1     -42.052  55.079 -55.383  1.00  0.00     0.121 A 
HETATM   10  N   UNL     1     -40.992  55.621 -54.719  1.00  0.00    -0.272 N 
HETATM   11  N   UNL     1     -40.239  54.735 -54.046  1.00  0.00    -0.174 NA
HETATM   12  H   UNL     1     -40.711  56.594 -54.728  1.00  0.00     0.189 HD
HETATM   13  C   UNL     1     -40.884  53.566 -54.208  1.00  0.00     0.089 A 
HETATM   14  C   UNL     1     -42.034  53.748 -55.023  1.00  0.00     0.071 A 
BRANCH  13  15
HETATM   15  C   UNL     1     -40.395  52.317 -53.618  1.00  0.00    -0.006 A 
HETATM   16  C   UNL     1     -39.995  52.265 -52.275  1.00  0.00     0.014 A 
HETATM   17  C   UNL     1     -39.556  51.064 -51.708  1.00  0.00     0.001 A 
HETATM   18  C   UNL     1     -39.516  49.903 -52.477  1.00  0.00     0.000 A 
HETATM   19  C   UNL     1     -39.906  49.941 -53.814  1.00  0.00     0.001 A 
HETATM   20  C   UNL     1     -40.339  51.143 -54.383  1.00  0.00     0.014 A 
ENDBRANCH  13  15
ENDBRANCH   6   9
ENDBRANCH   1   5
BRANCH   2  21
HETATM   21  C   UNL     1     -44.783  57.842 -52.351  1.00  0.00     0.134 C 
BRANCH  21  22
HETATM   22  C   UNL     1     -43.599  58.592 -51.712  1.00  0.00     0.127 C 
BRANCH  22  23
HETATM   23  N   UNL     1     -42.762  57.856 -50.759  1.00  0.00    -0.339 N 
HETATM   24  C   UNL     1     -42.246  56.612 -50.893  1.00  0.00     0.292 C 
HETATM   25  N   UNL     1     -41.633  56.169 -49.772  1.00  0.00    -0.254 NA
HETATM   26  O   UNL     1     -42.324  55.913 -51.892  1.00  0.00    -0.254 OA
HETATM   27  H   UNL     1     -42.027  56.432 -48.881  1.00  0.00     0.128 HD
HETATM   28  H   UNL     1     -41.383  55.186 -49.822  1.00  0.00     0.128 HD
HETATM   29  H   UNL     1     -42.492  58.359 -49.926  1.00  0.00     0.164 HD
ENDBRANCH  22  23
BRANCH  22  30
HETATM   30  C   UNL     1     -43.945  59.992 -51.214  1.00  0.00    -0.035 A 
HETATM   31  C   UNL     1     -42.975  60.879 -50.718  1.00  0.00     0.011 A 
HETATM   32  C   UNL     1     -43.337  62.141 -50.238  1.00  0.00     0.024 A 
HETATM   33  C   UNL     1     -44.674  62.530 -50.246  1.00  0.00     0.034 A 
HETATM   34 CL   UNL     1     -45.118  64.081 -49.651  1.00  0.00    -0.084 Cl
HETATM   35  C   UNL     1     -45.652  61.669 -50.734  1.00  0.00     0.024 A 
HETATM   36  C   UNL     1     -45.289  60.409 -51.217  1.00  0.00     0.011 A 
ENDBRANCH  22  30
ENDBRANCH  21  22
ENDBRANCH   2  21
TORSDOF 7
ENDMDL
MODEL 9
REMARK VINA RESULT:      -7.9      2.242      4.995
REMARK  7 active torsions:
REMARK  status: ('A' for Active; 'I' for Inactive)
REMARK    1  A    between atoms: C_4  and  C_5 
REMARK    2  A    between atoms: C_9  and  C_10 
REMARK       I    between atoms: C_10  and  N_11 
REMARK    3  A    between atoms: N_11  and  N_12 
REMARK       I    between atoms: N_12  and  C_13 
REMARK    4  A    between atoms: C_13  and  C_14 
REMARK    5  A    between atoms: C_14  and  C_15 
REMARK    6  A    between atoms: C_15  and  N_16 
REMARK    7  A    between atoms: C_15  and  C_20 
REMARK       I    between atoms: N_16  and  C_17 
REMARK       I    between atoms: C_17  and  N_18 
ROOT
HETATM    1  N   UNL     1     -43.229  58.612 -54.187  1.00  0.00    -0.267 N 
HETATM    2  C   UNL     1     -44.309  57.828 -54.540  1.00  0.00     0.238 C 
HETATM    3  O   UNL     1     -45.466  58.113 -54.231  1.00  0.00    -0.272 OA
HETATM    4  H   UNL     1     -42.333  58.119 -54.073  1.00  0.00     0.190 HD
ENDROOT
BRANCH   1   5
HETATM    5  N   UNL     1     -43.491  59.691 -53.325  1.00  0.00    -0.262 N 
HETATM    6  C   UNL     1     -43.256  59.699 -51.963  1.00  0.00     0.288 C 
HETATM    7  O   UNL     1     -43.819  60.548 -51.273  1.00  0.00    -0.264 OA
HETATM    8  H   UNL     1     -44.129  60.401 -53.683  1.00  0.00     0.190 HD
BRANCH   6   9
HETATM    9  C   UNL     1     -42.361  58.721 -51.396  1.00  0.00     0.121 A 
HETATM   10  N   UNL     1     -41.113  58.953 -50.902  1.00  0.00    -0.272 N 
HETATM   11  N   UNL     1     -40.465  57.857 -50.473  1.00  0.00    -0.174 NA
HETATM   12  H   UNL     1     -40.634  59.845 -50.875  1.00  0.00     0.189 HD
HETATM   13  C   UNL     1     -41.365  56.868 -50.615  1.00  0.00     0.089 A 
HETATM   14  C   UNL     1     -42.570  57.375 -51.172  1.00  0.00     0.071 A 
BRANCH  13  15
HETATM   15  C   UNL     1     -41.065  55.481 -50.249  1.00  0.00    -0.006 A 
HETATM   16  C   UNL     1     -40.798  54.520 -51.235  1.00  0.00     0.014 A 
HETATM   17  C   UNL     1     -40.484  53.204 -50.880  1.00  0.00     0.001 A 
HETATM   18  C   UNL     1     -40.431  52.837 -49.538  1.00  0.00     0.000 A 
HETATM   19  C   UNL     1     -40.699  53.781 -48.548  1.00  0.00     0.001 A 
HETATM   20  C   UNL     1     -41.018  55.094 -48.902  1.00  0.00     0.014 A 
ENDBRANCH  13  15
ENDBRANCH   6   9
ENDBRANCH   1   5
BRANCH   2  21
HETATM   21  C   UNL     1     -43.976  56.569 -55.319  1.00  0.00     0.134 C 
BRANCH  21  22
HETATM   22  C   UNL     1     -42.495  56.418 -55.716  1.00  0.00     0.127 C 
BRANCH  22  23
HETATM   23  N   UNL     1     -42.117  56.784 -57.085  1.00  0.00    -0.339 N 
HETATM   24  C   UNL     1     -42.069  58.021 -57.632  1.00  0.00     0.292 C 
HETATM   25  N   UNL     1     -41.816  58.003 -58.960  1.00  0.00    -0.254 NA
HETATM   26  O   UNL     1     -42.256  59.071 -57.036  1.00  0.00    -0.254 OA
HETATM   27  H   UNL     1     -42.207  57.250 -59.507  1.00  0.00     0.128 HD
HETATM   28  H   UNL     1     -41.931  58.912 -59.396  1.00  0.00     0.128 HD
HETATM   29  H   UNL     1     -41.801  56.027 -57.674  1.00  0.00     0.164 HD
ENDBRANCH  22  23
BRANCH  22  30
HETATM   30  C   UNL     1     -41.863  55.102 -55.275  1.00  0.00    -0.035 A 
HETATM   31  C   UNL     1     -42.627  53.994 -54.872  1.00  0.00     0.011 A 
HETATM   32  C   UNL     1     -42.009  52.817 -54.441  1.00  0.00     0.024 A 
HETATM   33  C   UNL     1     -40.620  52.735 -54.404  1.00  0.00     0.034 A 
HETATM   34 CL   UNL     1     -39.862  51.287 -53.867  1.00  0.00    -0.084 Cl
HETATM   35  C   UNL     1     -39.842  53.819 -54.799  1.00  0.00     0.024 A 
HETATM   36  C   UNL     1     -40.461  54.994 -55.233  1.00  0.00     0.011 A 
ENDBRANCH  22  30
ENDBRANCH  21  22
ENDBRANCH   2  21
TORSDOF 7
ENDMDL
MODEL 10
REMARK VINA RESULT:      -7.9      2.190      2.758
REMARK  7 active torsions:
REMARK  status: ('A' for Active; 'I' for Inactive)
REMARK    1  A    between atoms: C_4  and  C_5 
REMARK    2  A    between atoms: C_9  and  C_10 
REMARK       I    between atoms: C_10  and  N_11 
REMARK    3  A    between atoms: N_11  and  N_12 
REMARK       I    between atoms: N_12  and  C_13 
REMARK    4  A    between atoms: C_13  and  C_14 
REMARK    5  A    between atoms: C_14  and  C_15 
REMARK    6  A    between atoms: C_15  and  N_16 
REMARK    7  A    between atoms: C_15  and  C_20 
REMARK       I    between atoms: N_16  and  C_17 
REMARK       I    between atoms: C_17  and  N_18 
ROOT
HETATM    1  N   UNL     1     -44.474  56.207 -54.165  1.00  0.00    -0.267 N 
HETATM    2  C   UNL     1     -44.633  57.470 -53.630  1.00  0.00     0.238 C 
HETATM    3  O   UNL     1     -44.642  58.488 -54.322  1.00  0.00    -0.272 OA
HETATM    4  H   UNL     1     -44.037  55.508 -53.548  1.00  0.00     0.190 HD
ENDROOT
BRANCH   1   5
HETATM    5  N   UNL     1     -44.174  56.139 -55.537  1.00  0.00    -0.262 N 
HETATM    6  C   UNL     1     -42.959  55.754 -56.070  1.00  0.00     0.288 C 
HETATM    7  O   UNL     1     -42.709  56.046 -57.239  1.00  0.00    -0.264 OA
HETATM    8  H   UNL     1     -44.801  56.653 -56.155  1.00  0.00     0.190 HD
BRANCH   6   9
HETATM    9  C   UNL     1     -42.028  55.022 -55.247  1.00  0.00     0.121 A 
HETATM   10  N   UNL     1     -40.996  55.544 -54.527  1.00  0.00    -0.272 N 
HETATM   11  N   UNL     1     -40.246  54.637 -53.879  1.00  0.00    -0.174 NA
HETATM   12  H   UNL     1     -40.731  56.521 -54.479  1.00  0.00     0.189 HD
HETATM   13  C   UNL     1     -40.868  53.468 -54.117  1.00  0.00     0.089 A 
HETATM   14  C   UNL     1     -41.998  53.674 -54.953  1.00  0.00     0.071 A 
BRANCH  13  15
HETATM   15  C   UNL     1     -40.376  52.198 -53.577  1.00  0.00    -0.006 A 
HETATM   16  C   UNL     1     -39.947  52.102 -52.245  1.00  0.00     0.014 A 
HETATM   17  C   UNL     1     -39.504  50.882 -51.726  1.00  0.00     0.001 A 
HETATM   18  C   UNL     1     -39.489  49.745 -52.531  1.00  0.00     0.000 A 
HETATM   19  C   UNL     1     -39.907  49.827 -53.857  1.00  0.00     0.001 A 
HETATM   20  C   UNL     1     -40.344  51.048 -54.379  1.00  0.00     0.014 A 
ENDBRANCH  13  15
ENDBRANCH   6   9
ENDBRANCH   1   5
BRANCH   2  21
HETATM   21  C   UNL     1     -44.773  57.527 -52.120  1.00  0.00     0.134 C 
BRANCH  21  22
HETATM   22  C   UNL     1     -44.317  58.847 -51.470  1.00  0.00     0.127 C 
BRANCH  22  23
HETATM   23  N   UNL     1     -44.862  60.096 -52.012  1.00  0.00    -0.339 N 
HETATM   24  C   UNL     1     -46.135  60.548 -51.940  1.00  0.00     0.292 C 
HETATM   25  N   UNL     1     -46.339  61.671 -52.665  1.00  0.00    -0.254 NA
HETATM   26  O   UNL     1     -47.046  60.017 -51.323  1.00  0.00    -0.254 OA
HETATM   27  H   UNL     1     -45.844  61.769 -53.538  1.00  0.00     0.128 HD
HETATM   28  H   UNL     1     -47.321  61.922 -52.735  1.00  0.00     0.128 HD
HETATM   29  H   UNL     1     -44.194  60.720 -52.443  1.00  0.00     0.164 HD
ENDBRANCH  22  23
BRANCH  22  30
HETATM   30  C   UNL     1     -42.814  58.932 -51.223  1.00  0.00    -0.035 A 
HETATM   31  C   UNL     1     -41.984  57.799 -51.217  1.00  0.00     0.011 A 
HETATM   32  C   UNL     1     -40.616  57.915 -50.951  1.00  0.00     0.024 A 
HETATM   33  C   UNL     1     -40.064  59.165 -50.684  1.00  0.00     0.034 A 
HETATM   34 CL   UNL     1     -38.382  59.304 -50.351  1.00  0.00    -0.084 Cl
HETATM   35  C   UNL     1     -40.867  60.301 -50.685  1.00  0.00     0.024 A 
HETATM   36  C   UNL     1     -42.233  60.185 -50.955  1.00  0.00     0.011 A 
ENDBRANCH  22  30
ENDBRANCH  21  22
ENDBRANCH   2  21
TORSDOF 7
ENDMDL
