MODEL 1
REMARK VINA RESULT:     -10.1      0.000      0.000
REMARK  4 active torsions:
REMARK  status: ('A' for Active; 'I' for Inactive)
REMARK    1  A    between atoms: C_9  and  C_10 
REMARK    2  A    between atoms: C_10  and  C_11 
REMARK       I    between atoms: C_11  and  N_12 
REMARK    3  A    between atoms: N_12  and  C_13 
REMARK    4  A    between atoms: C_20  and  C_21 
REMARK       I    between atoms: C_21  and  N_22 
ROOT
HETATM    1  C   UNL     1     -42.738  56.803 -56.832  1.00  0.00     0.035 A 
HETATM    2  C   UNL     1     -43.240  56.056 -57.905  1.00  0.00     0.046 A 
HETATM    3  C   UNL     1     -44.210  56.628 -58.758  1.00  0.00     0.030 A 
HETATM    4  C   UNL     1     -44.620  57.935 -58.526  1.00  0.00     0.063 A 
HETATM    5  N   UNL     1     -45.538  58.205 -59.501  1.00  0.00    -0.277 N 
HETATM    6  H   UNL     1     -46.045  59.070 -59.644  1.00  0.00     0.189 HD
HETATM    7  N   UNL     1     -45.785  57.180 -60.333  1.00  0.00    -0.168 NA
HETATM    8  C   UNL     1     -44.974  56.194 -59.884  1.00  0.00     0.156 A 
HETATM    9  C   UNL     1     -44.130  58.712 -57.475  1.00  0.00     0.034 A 
HETATM   10  C   UNL     1     -43.192  58.113 -56.626  1.00  0.00     0.032 A 
ENDROOT
BRANCH   1  11
HETATM   11  N   UNL     1     -41.823  56.288 -55.890  1.00  0.00    -0.327 N 
HETATM   12  C   UNL     1     -42.109  55.803 -54.625  1.00  0.00     0.226 C 
HETATM   13  O   UNL     1     -43.225  55.560 -54.173  1.00  0.00    -0.273 OA
HETATM   14  H   UNL     1     -40.850  56.288 -56.169  1.00  0.00     0.169 HD
BRANCH  12  15
HETATM   15  C   UNL     1     -40.862  55.594 -53.777  1.00  0.00     0.141 C 
BRANCH  15  16
HETATM   16  C   UNL     1     -40.526  54.129 -53.628  1.00  0.00    -0.049 A 
HETATM   17  C   UNL     1     -40.378  53.326 -54.764  1.00  0.00     0.008 A 
HETATM   18  C   UNL     1     -40.106  51.963 -54.641  1.00  0.00     0.013 A 
HETATM   19  C   UNL     1     -39.970  51.372 -53.378  1.00  0.00    -0.026 A 
HETATM   20  C   UNL     1     -39.708  50.001 -53.239  1.00  0.00     0.012 A 
HETATM   21  C   UNL     1     -40.101  52.175 -52.221  1.00  0.00    -0.025 A 
HETATM   22  C   UNL     1     -39.576  49.424 -51.976  1.00  0.00     0.001 A 
HETATM   23  C   UNL     1     -39.701  50.212 -50.836  1.00  0.00     0.001 A 
HETATM   24  C   UNL     1     -39.961  51.579 -50.957  1.00  0.00     0.012 A 
HETATM   25  C   UNL     1     -40.375  53.548 -52.361  1.00  0.00     0.020 A 
ENDBRANCH  15  16
ENDBRANCH  12  15
ENDBRANCH   1  11
BRANCH   8  26
HETATM   26  C   UNL     1     -44.962  54.869 -60.518  1.00  0.00     0.270 C 
HETATM   27  N   UNL     1     -45.027  53.827 -59.634  1.00  0.00    -0.365 N 
HETATM   28  H   UNL     1     -45.056  54.034 -58.643  1.00  0.00     0.159 HD
HETATM   29  H   UNL     1     -44.991  52.881 -59.977  1.00  0.00     0.159 HD
HETATM   30  O   UNL     1     -44.887  54.671 -61.726  1.00  0.00    -0.266 OA
ENDBRANCH   8  26
TORSDOF 4
ENDMDL
MODEL 2
REMARK VINA RESULT:      -9.9      0.555      1.460
REMARK  4 active torsions:
REMARK  status: ('A' for Active; 'I' for Inactive)
REMARK    1  A    between atoms: C_9  and  C_10 
REMARK    2  A    between atoms: C_10  and  C_11 
REMARK       I    between atoms: C_11  and  N_12 
REMARK    3  A    between atoms: N_12  and  C_13 
REMARK    4  A    between atoms: C_20  and  C_21 
REMARK       I    between atoms: C_21  and  N_22 
ROOT
HETATM    1  C   UNL     1     -42.935  56.960 -56.893  1.00  0.00     0.035 A 
HETATM    2  C   UNL     1     -43.372  56.181 -57.972  1.00  0.00     0.046 A 
HETATM    3  C   UNL     1     -44.429  56.646 -58.785  1.00  0.00     0.030 A 
HETATM    4  C   UNL     1     -44.992  57.886 -58.509  1.00  0.00     0.063 A 
HETATM    5  N   UNL     1     -45.964  58.062 -59.452  1.00  0.00    -0.277 N 
HETATM    6  H   UNL     1     -46.578  58.860 -59.559  1.00  0.00     0.189 HD
HETATM    7  N   UNL     1     -46.106  57.033 -60.304  1.00  0.00    -0.168 NA
HETATM    8  C   UNL     1     -45.166  56.146 -59.901  1.00  0.00     0.156 A 
HETATM    9  C   UNL     1     -44.572  58.695 -57.451  1.00  0.00     0.034 A 
HETATM   10  C   UNL     1     -43.542  58.198 -56.641  1.00  0.00     0.032 A 
ENDROOT
BRANCH   1  11
HETATM   11  N   UNL     1     -41.937  56.542 -55.989  1.00  0.00    -0.327 N 
HETATM   12  C   UNL     1     -42.120  55.859 -54.799  1.00  0.00     0.226 C 
HETATM   13  O   UNL     1     -43.160  55.331 -54.414  1.00  0.00    -0.273 OA
HETATM   14  H   UNL     1     -40.985  56.782 -56.235  1.00  0.00     0.169 HD
BRANCH  12  15
HETATM   15  C   UNL     1     -40.863  55.819 -53.942  1.00  0.00     0.141 C 
BRANCH  15  16
HETATM   16  C   UNL     1     -40.599  54.435 -53.398  1.00  0.00    -0.049 A 
HETATM   17  C   UNL     1     -40.472  54.236 -52.019  1.00  0.00     0.008 A 
HETATM   18  C   UNL     1     -40.189  52.970 -51.506  1.00  0.00     0.013 A 
HETATM   19  C   UNL     1     -40.033  51.870 -52.361  1.00  0.00    -0.026 A 
HETATM   20  C   UNL     1     -39.736  50.594 -51.859  1.00  0.00     0.012 A 
HETATM   21  C   UNL     1     -40.173  52.053 -53.755  1.00  0.00    -0.025 A 
HETATM   22  C   UNL     1     -39.582  49.508 -52.720  1.00  0.00     0.001 A 
HETATM   23  C   UNL     1     -39.724  49.684 -54.093  1.00  0.00     0.001 A 
HETATM   24  C   UNL     1     -40.018  50.948 -54.608  1.00  0.00     0.012 A 
HETATM   25  C   UNL     1     -40.460  53.336 -54.259  1.00  0.00     0.020 A 
ENDBRANCH  15  16
ENDBRANCH  12  15
ENDBRANCH   1  11
BRANCH   8  26
HETATM   26  C   UNL     1     -45.008  54.848 -60.570  1.00  0.00     0.270 C 
HETATM   27  N   UNL     1     -45.034  53.776 -59.721  1.00  0.00    -0.365 N 
HETATM   28  H   UNL     1     -45.134  53.948 -58.727  1.00  0.00     0.159 HD
HETATM   29  H   UNL     1     -44.899  52.848 -60.087  1.00  0.00     0.159 HD
HETATM   30  O   UNL     1     -44.851  54.696 -61.777  1.00  0.00    -0.266 OA
ENDBRANCH   8  26
TORSDOF 4
ENDMDL
MODEL 3
REMARK VINA RESULT:      -9.4      1.804      2.918
REMARK  4 active torsions:
REMARK  status: ('A' for Active; 'I' for Inactive)
REMARK    1  A    between atoms: C_9  and  C_10 
REMARK    2  A    between atoms: C_10  and  C_11 
REMARK       I    between atoms: C_11  and  N_12 
REMARK    3  A    between atoms: N_12  and  C_13 
REMARK    4  A    between atoms: C_20  and  C_21 
REMARK       I    between atoms: C_21  and  N_22 
ROOT
HETATM    1  C   UNL     1     -43.116  56.257 -57.880  1.00  0.00     0.035 A 
HETATM    2  C   UNL     1     -44.128  57.216 -57.738  1.00  0.00     0.046 A 
HETATM    3  C   UNL     1     -45.058  57.407 -58.783  1.00  0.00     0.030 A 
HETATM    4  C   UNL     1     -44.963  56.613 -59.919  1.00  0.00     0.063 A 
HETATM    5  N   UNL     1     -45.984  57.018 -60.731  1.00  0.00    -0.277 N 
HETATM    6  H   UNL     1     -46.223  56.653 -61.646  1.00  0.00     0.189 HD
HETATM    7  N   UNL     1     -46.722  58.025 -60.238  1.00  0.00    -0.168 NA
HETATM    8  C   UNL     1     -46.159  58.281 -59.034  1.00  0.00     0.156 A 
HETATM    9  C   UNL     1     -43.977  55.639 -60.088  1.00  0.00     0.034 A 
HETATM   10  C   UNL     1     -43.048  55.489 -59.050  1.00  0.00     0.032 A 
ENDROOT
BRANCH   1  11
HETATM   11  N   UNL     1     -42.105  56.050 -56.919  1.00  0.00    -0.327 N 
HETATM   12  C   UNL     1     -42.243  55.461 -55.674  1.00  0.00     0.226 C 
HETATM   13  O   UNL     1     -43.223  54.844 -55.264  1.00  0.00    -0.273 OA
HETATM   14  H   UNL     1     -41.182  56.385 -57.165  1.00  0.00     0.169 HD
BRANCH  12  15
HETATM   15  C   UNL     1     -41.020  55.656 -54.789  1.00  0.00     0.141 C 
BRANCH  15  16
HETATM   16  C   UNL     1     -40.717  54.423 -53.972  1.00  0.00    -0.049 A 
HETATM   17  C   UNL     1     -40.632  54.511 -52.578  1.00  0.00     0.008 A 
HETATM   18  C   UNL     1     -40.314  53.388 -51.813  1.00  0.00     0.013 A 
HETATM   19  C   UNL     1     -40.079  52.149 -52.424  1.00  0.00    -0.026 A 
HETATM   20  C   UNL     1     -39.747  51.015 -51.668  1.00  0.00     0.012 A 
HETATM   21  C   UNL     1     -40.176  52.042 -53.830  1.00  0.00    -0.025 A 
HETATM   22  C   UNL     1     -39.515  49.787 -52.289  1.00  0.00     0.001 A 
HETATM   23  C   UNL     1     -39.613  49.679 -53.672  1.00  0.00     0.001 A 
HETATM   24  C   UNL     1     -39.943  50.798 -54.439  1.00  0.00     0.012 A 
HETATM   25  C   UNL     1     -40.499  53.183 -54.589  1.00  0.00     0.020 A 
ENDBRANCH  15  16
ENDBRANCH  12  15
ENDBRANCH   1  11
BRANCH   8  26
HETATM   26  C   UNL     1     -46.665  59.356 -58.170  1.00  0.00     0.270 C 
HETATM   27  N   UNL     1     -47.772  59.013 -57.443  1.00  0.00    -0.365 N 
HETATM   28  H   UNL     1     -48.162  58.085 -57.564  1.00  0.00     0.159 HD
HETATM   29  H   UNL     1     -48.208  59.698 -56.848  1.00  0.00     0.159 HD
HETATM   30  O   UNL     1     -46.178  60.478 -58.089  1.00  0.00    -0.266 OA
ENDBRANCH   8  26
TORSDOF 4
ENDMDL
MODEL 4
REMARK VINA RESULT:      -8.9      1.540      2.181
REMARK  4 active torsions:
REMARK  status: ('A' for Active; 'I' for Inactive)
REMARK    1  A    between atoms: C_9  and  C_10 
REMARK    2  A    between atoms: C_10  and  C_11 
REMARK       I    between atoms: C_11  and  N_12 
REMARK    3  A    between atoms: N_12  and  C_13 
REMARK    4  A    between atoms: C_20  and  C_21 
REMARK       I    between atoms: C_21  and  N_22 
ROOT
HETATM    1  C   UNL     1     -42.732  57.471 -55.758  1.00  0.00     0.035 A 
HETATM    2  C   UNL     1     -43.305  56.696 -56.775  1.00  0.00     0.046 A 
HETATM    3  C   UNL     1     -43.370  57.210 -58.089  1.00  0.00     0.030 A 
HETATM    4  C   UNL     1     -42.834  58.466 -58.345  1.00  0.00     0.063 A 
HETATM    5  N   UNL     1     -43.035  58.681 -59.679  1.00  0.00    -0.277 N 
HETATM    6  H   UNL     1     -42.766  59.496 -60.217  1.00  0.00     0.189 HD
HETATM    7  N   UNL     1     -43.681  57.688 -60.312  1.00  0.00    -0.168 NA
HETATM    8  C   UNL     1     -43.900  56.772 -59.341  1.00  0.00     0.156 A 
HETATM    9  C   UNL     1     -42.244  59.259 -57.359  1.00  0.00     0.034 A 
HETATM   10  C   UNL     1     -42.218  58.740 -56.058  1.00  0.00     0.032 A 
ENDROOT
BRANCH   1  11
HETATM   11  N   UNL     1     -42.690  57.067 -54.407  1.00  0.00    -0.327 N 
HETATM   12  C   UNL     1     -41.563  56.804 -53.648  1.00  0.00     0.226 C 
HETATM   13  O   UNL     1     -40.401  57.057 -53.956  1.00  0.00    -0.273 OA
HETATM   14  H   UNL     1     -43.586  56.943 -53.952  1.00  0.00     0.169 HD
BRANCH  12  15
HETATM   15  C   UNL     1     -41.887  56.120 -52.327  1.00  0.00     0.141 C 
BRANCH  15  16
HETATM   16  C   UNL     1     -41.283  54.739 -52.248  1.00  0.00    -0.049 A 
HETATM   17  C   UNL     1     -40.676  54.307 -51.064  1.00  0.00     0.008 A 
HETATM   18  C   UNL     1     -40.079  53.048 -50.989  1.00  0.00     0.013 A 
HETATM   19  C   UNL     1     -40.080  52.188 -52.097  1.00  0.00    -0.026 A 
HETATM   20  C   UNL     1     -39.473  50.924 -52.039  1.00  0.00     0.012 A 
HETATM   21  C   UNL     1     -40.703  52.606 -53.295  1.00  0.00    -0.025 A 
HETATM   22  C   UNL     1     -39.481  50.079 -53.148  1.00  0.00     0.001 A 
HETATM   23  C   UNL     1     -40.096  50.486 -54.328  1.00  0.00     0.001 A 
HETATM   24  C   UNL     1     -40.705  51.741 -54.401  1.00  0.00     0.012 A 
HETATM   25  C   UNL     1     -41.302  53.878 -53.355  1.00  0.00     0.020 A 
ENDBRANCH  15  16
ENDBRANCH  12  15
ENDBRANCH   1  11
BRANCH   8  26
HETATM   26  C   UNL     1     -44.619  55.522 -59.621  1.00  0.00     0.270 C 
HETATM   27  N   UNL     1     -45.976  55.668 -59.709  1.00  0.00    -0.365 N 
HETATM   28  H   UNL     1     -46.376  56.587 -59.560  1.00  0.00     0.159 HD
HETATM   29  H   UNL     1     -46.555  54.858 -59.865  1.00  0.00     0.159 HD
HETATM   30  O   UNL     1     -44.090  54.424 -59.755  1.00  0.00    -0.266 OA
ENDBRANCH   8  26
TORSDOF 4
ENDMDL
MODEL 5
REMARK VINA RESULT:      -8.7      2.188      3.298
REMARK  4 active torsions:
REMARK  status: ('A' for Active; 'I' for Inactive)
REMARK    1  A    between atoms: C_9  and  C_10 
REMARK    2  A    between atoms: C_10  and  C_11 
REMARK       I    between atoms: C_11  and  N_12 
REMARK    3  A    between atoms: N_12  and  C_13 
REMARK    4  A    between atoms: C_20  and  C_21 
REMARK       I    between atoms: C_21  and  N_22 
ROOT
HETATM    1  C   UNL     1     -43.106  56.343 -55.120  1.00  0.00     0.035 A 
HETATM    2  C   UNL     1     -43.827  57.462 -55.559  1.00  0.00     0.046 A 
HETATM    3  C   UNL     1     -44.117  57.607 -56.933  1.00  0.00     0.030 A 
HETATM    4  C   UNL     1     -43.703  56.616 -57.815  1.00  0.00     0.063 A 
HETATM    5  N   UNL     1     -44.128  57.026 -59.047  1.00  0.00    -0.277 N 
HETATM    6  H   UNL     1     -44.005  56.545 -59.930  1.00  0.00     0.189 HD
HETATM    7  N   UNL     1     -44.759  58.211 -59.052  1.00  0.00    -0.168 NA
HETATM    8  C   UNL     1     -44.756  58.587 -57.752  1.00  0.00     0.156 A 
HETATM    9  C   UNL     1     -42.996  55.483 -57.410  1.00  0.00     0.034 A 
HETATM   10  C   UNL     1     -42.694  55.376 -56.046  1.00  0.00     0.032 A 
ENDROOT
BRANCH   1  11
HETATM   11  N   UNL     1     -42.712  56.154 -53.779  1.00  0.00    -0.327 N 
HETATM   12  C   UNL     1     -41.473  56.427 -53.226  1.00  0.00     0.226 C 
HETATM   13  O   UNL     1     -40.561  57.058 -53.755  1.00  0.00    -0.273 OA
HETATM   14  H   UNL     1     -43.410  55.761 -53.161  1.00  0.00     0.169 HD
BRANCH  12  15
HETATM   15  C   UNL     1     -41.306  55.841 -51.830  1.00  0.00     0.141 C 
BRANCH  15  16
HETATM   16  C   UNL     1     -40.864  54.398 -51.878  1.00  0.00    -0.049 A 
HETATM   17  C   UNL     1     -40.427  53.761 -50.712  1.00  0.00     0.008 A 
HETATM   18  C   UNL     1     -39.978  52.441 -50.749  1.00  0.00     0.013 A 
HETATM   19  C   UNL     1     -39.961  51.724 -51.953  1.00  0.00    -0.026 A 
HETATM   20  C   UNL     1     -39.501  50.399 -52.007  1.00  0.00     0.012 A 
HETATM   21  C   UNL     1     -40.413  52.350 -53.137  1.00  0.00    -0.025 A 
HETATM   22  C   UNL     1     -39.487  49.698 -53.212  1.00  0.00     0.001 A 
HETATM   23  C   UNL     1     -39.936  50.311 -54.378  1.00  0.00     0.001 A 
HETATM   24  C   UNL     1     -40.397  51.628 -54.341  1.00  0.00     0.012 A 
HETATM   25  C   UNL     1     -40.864  53.682 -53.085  1.00  0.00     0.020 A 
ENDBRANCH  15  16
ENDBRANCH  12  15
ENDBRANCH   1  11
BRANCH   8  26
HETATM   26  C   UNL     1     -45.339  59.867 -57.328  1.00  0.00     0.270 C 
HETATM   27  N   UNL     1     -46.501  59.743 -56.617  1.00  0.00    -0.365 N 
HETATM   28  H   UNL     1     -46.874  58.814 -56.458  1.00  0.00     0.159 HD
HETATM   29  H   UNL     1     -46.989  60.570 -56.313  1.00  0.00     0.159 HD
HETATM   30  O   UNL     1     -44.866  60.970 -57.580  1.00  0.00    -0.266 OA
ENDBRANCH   8  26
TORSDOF 4
ENDMDL
MODEL 6
REMARK VINA RESULT:      -8.6      4.212      5.505
REMARK  4 active torsions:
REMARK  status: ('A' for Active; 'I' for Inactive)
REMARK    1  A    between atoms: C_9  and  C_10 
REMARK    2  A    between atoms: C_10  and  C_11 
REMARK       I    between atoms: C_11  and  N_12 
REMARK    3  A    between atoms: N_12  and  C_13 
REMARK    4  A    between atoms: C_20  and  C_21 
REMARK       I    between atoms: C_21  and  N_22 
ROOT
HETATM    1  C   UNL     1     -41.641  58.532 -51.316  1.00  0.00     0.035 A 
HETATM    2  C   UNL     1     -42.436  58.803 -52.438  1.00  0.00     0.046 A 
HETATM    3  C   UNL     1     -43.073  60.057 -52.554  1.00  0.00     0.030 A 
HETATM    4  C   UNL     1     -42.870  61.007 -51.560  1.00  0.00     0.063 A 
HETATM    5  N   UNL     1     -43.595  62.099 -51.948  1.00  0.00    -0.277 N 
HETATM    6  H   UNL     1     -43.677  62.984 -51.464  1.00  0.00     0.189 HD
HETATM    7  N   UNL     1     -44.276  61.936 -53.093  1.00  0.00    -0.168 NA
HETATM    8  C   UNL     1     -43.968  60.676 -53.479  1.00  0.00     0.156 A 
HETATM    9  C   UNL     1     -42.074  60.776 -50.437  1.00  0.00     0.034 A 
HETATM   10  C   UNL     1     -41.476  59.514 -50.330  1.00  0.00     0.032 A 
ENDROOT
BRANCH   1  11
HETATM   11  N   UNL     1     -41.027  57.284 -51.085  1.00  0.00    -0.327 N 
HETATM   12  C   UNL     1     -41.622  56.141 -50.579  1.00  0.00     0.226 C 
HETATM   13  O   UNL     1     -42.825  55.954 -50.422  1.00  0.00    -0.273 OA
HETATM   14  H   UNL     1     -40.040  57.227 -51.300  1.00  0.00     0.169 HD
BRANCH  12  15
HETATM   15  C   UNL     1     -40.610  55.070 -50.195  1.00  0.00     0.141 C 
BRANCH  15  16
HETATM   16  C   UNL     1     -40.452  54.033 -51.281  1.00  0.00    -0.049 A 
HETATM   17  C   UNL     1     -40.722  54.368 -52.613  1.00  0.00     0.008 A 
HETATM   18  C   UNL     1     -40.619  53.410 -53.622  1.00  0.00     0.013 A 
HETATM   19  C   UNL     1     -40.237  52.095 -53.323  1.00  0.00    -0.026 A 
HETATM   20  C   UNL     1     -40.140  51.118 -54.327  1.00  0.00     0.012 A 
HETATM   21  C   UNL     1     -39.947  51.746 -51.985  1.00  0.00    -0.025 A 
HETATM   22  C   UNL     1     -39.760  49.813 -54.016  1.00  0.00     0.001 A 
HETATM   23  C   UNL     1     -39.470  49.468 -52.700  1.00  0.00     0.001 A 
HETATM   24  C   UNL     1     -39.562  50.428 -51.690  1.00  0.00     0.012 A 
HETATM   25  C   UNL     1     -40.054  52.723 -50.977  1.00  0.00     0.020 A 
ENDBRANCH  15  16
ENDBRANCH  12  15
ENDBRANCH   1  11
BRANCH   8  26
HETATM   26  C   UNL     1     -44.544  60.090 -54.697  1.00  0.00     0.270 C 
HETATM   27  N   UNL     1     -45.481  59.122 -54.460  1.00  0.00    -0.365 N 
HETATM   28  H   UNL     1     -45.688  58.872 -53.500  1.00  0.00     0.159 HD
HETATM   29  H   UNL     1     -45.906  58.640 -55.236  1.00  0.00     0.159 HD
HETATM   30  O   UNL     1     -44.230  60.401 -55.841  1.00  0.00    -0.266 OA
ENDBRANCH   8  26
TORSDOF 4
ENDMDL
MODEL 7
REMARK VINA RESULT:      -8.6      4.837      6.457
REMARK  4 active torsions:
REMARK  status: ('A' for Active; 'I' for Inactive)
REMARK    1  A    between atoms: C_9  and  C_10 
REMARK    2  A    between atoms: C_10  and  C_11 
REMARK       I    between atoms: C_11  and  N_12 
REMARK    3  A    between atoms: N_12  and  C_13 
REMARK    4  A    between atoms: C_20  and  C_21 
REMARK       I    between atoms: C_21  and  N_22 
ROOT
HETATM    1  C   UNL     1     -43.990  58.086 -51.636  1.00  0.00     0.035 A 
HETATM    2  C   UNL     1     -44.633  59.162 -51.009  1.00  0.00     0.046 A 
HETATM    3  C   UNL     1     -45.399  60.061 -51.782  1.00  0.00     0.030 A 
HETATM    4  C   UNL     1     -45.520  59.837 -53.148  1.00  0.00     0.063 A 
HETATM    5  N   UNL     1     -46.312  60.849 -53.613  1.00  0.00    -0.277 N 
HETATM    6  H   UNL     1     -46.616  61.001 -54.567  1.00  0.00     0.189 HD
HETATM    7  N   UNL     1     -46.696  61.730 -52.675  1.00  0.00    -0.168 NA
HETATM    8  C   UNL     1     -46.136  61.260 -51.537  1.00  0.00     0.156 A 
HETATM    9  C   UNL     1     -44.905  58.768 -53.803  1.00  0.00     0.034 A 
HETATM   10  C   UNL     1     -44.126  57.907 -53.019  1.00  0.00     0.032 A 
ENDROOT
BRANCH   1  11
HETATM   11  N   UNL     1     -43.149  57.183 -50.954  1.00  0.00    -0.327 N 
HETATM   12  C   UNL     1     -41.764  57.159 -50.964  1.00  0.00     0.226 C 
HETATM   13  O   UNL     1     -41.024  58.031 -51.412  1.00  0.00    -0.273 OA
HETATM   14  H   UNL     1     -43.613  56.466 -50.411  1.00  0.00     0.169 HD
BRANCH  12  15
HETATM   15  C   UNL     1     -41.191  55.887 -50.354  1.00  0.00     0.141 C 
BRANCH  15  16
HETATM   16  C   UNL     1     -40.954  54.823 -51.399  1.00  0.00    -0.049 A 
HETATM   17  C   UNL     1     -41.324  55.053 -52.729  1.00  0.00     0.008 A 
HETATM   18  C   UNL     1     -41.147  54.064 -53.697  1.00  0.00     0.013 A 
HETATM   19  C   UNL     1     -40.590  52.823 -53.358  1.00  0.00    -0.026 A 
HETATM   20  C   UNL     1     -40.417  51.815 -54.319  1.00  0.00     0.012 A 
HETATM   21  C   UNL     1     -40.197  52.582 -52.022  1.00  0.00    -0.025 A 
HETATM   22  C   UNL     1     -39.863  50.584 -53.969  1.00  0.00     0.001 A 
HETATM   23  C   UNL     1     -39.472  50.346 -52.656  1.00  0.00     0.001 A 
HETATM   24  C   UNL     1     -39.637  51.338 -51.687  1.00  0.00     0.012 A 
HETATM   25  C   UNL     1     -40.381  53.589 -51.056  1.00  0.00     0.020 A 
ENDBRANCH  15  16
ENDBRANCH  12  15
ENDBRANCH   1  11
BRANCH   8  26
HETATM   26  C   UNL     1     -46.296  61.968 -50.260  1.00  0.00     0.270 C 
HETATM   27  N   UNL     1     -46.336  63.330 -50.378  1.00  0.00    -0.365 N 
HETATM   28  H   UNL     1     -46.233  63.739 -51.300  1.00  0.00     0.159 HD
HETATM   29  H   UNL     1     -46.410  63.899 -49.551  1.00  0.00     0.159 HD
HETATM   30  O   UNL     1     -46.377  61.425 -49.163  1.00  0.00    -0.266 OA
ENDBRANCH   8  26
TORSDOF 4
ENDMDL
MODEL 8
REMARK VINA RESULT:      -8.5      2.895      4.227
REMARK  4 active torsions:
REMARK  status: ('A' for Active; 'I' for Inactive)
REMARK    1  A    between atoms: C_9  and  C_10 
REMARK    2  A    between atoms: C_10  and  C_11 
REMARK       I    between atoms: C_11  and  N_12 
REMARK    3  A    between atoms: N_12  and  C_13 
REMARK    4  A    between atoms: C_20  and  C_21 
REMARK       I    between atoms: C_21  and  N_22 
ROOT
HETATM    1  C   UNL     1     -42.929  56.571 -57.851  1.00  0.00     0.035 A 
HETATM    2  C   UNL     1     -42.754  57.947 -57.651  1.00  0.00     0.046 A 
HETATM    3  C   UNL     1     -42.412  58.771 -58.746  1.00  0.00     0.030 A 
HETATM    4  C   UNL     1     -42.287  58.197 -60.005  1.00  0.00     0.063 A 
HETATM    5  N   UNL     1     -41.965  59.227 -60.842  1.00  0.00    -0.277 N 
HETATM    6  H   UNL     1     -41.802  59.178 -61.841  1.00  0.00     0.189 HD
HETATM    7  N   UNL     1     -41.841  60.419 -60.237  1.00  0.00    -0.168 NA
HETATM    8  C   UNL     1     -42.110  60.154 -58.938  1.00  0.00     0.156 A 
HETATM    9  C   UNL     1     -42.469  56.833 -60.242  1.00  0.00     0.034 A 
HETATM   10  C   UNL     1     -42.778  56.032 -59.136  1.00  0.00     0.032 A 
ENDROOT
BRANCH   1  11
HETATM   11  N   UNL     1     -43.201  55.665 -56.805  1.00  0.00    -0.327 N 
HETATM   12  C   UNL     1     -42.346  55.288 -55.783  1.00  0.00     0.226 C 
HETATM   13  O   UNL     1     -41.274  55.815 -55.497  1.00  0.00    -0.273 OA
HETATM   14  H   UNL     1     -44.116  55.235 -56.815  1.00  0.00     0.169 HD
BRANCH  12  15
HETATM   15  C   UNL     1     -42.857  54.088 -54.998  1.00  0.00     0.141 C 
BRANCH  15  16
HETATM   16  C   UNL     1     -42.068  53.871 -53.729  1.00  0.00    -0.049 A 
HETATM   17  C   UNL     1     -41.030  52.934 -53.702  1.00  0.00     0.008 A 
HETATM   18  C   UNL     1     -40.318  52.695 -52.526  1.00  0.00     0.013 A 
HETATM   19  C   UNL     1     -40.625  53.393 -51.349  1.00  0.00    -0.026 A 
HETATM   20  C   UNL     1     -39.926  53.155 -50.156  1.00  0.00     0.012 A 
HETATM   21  C   UNL     1     -41.662  54.354 -51.366  1.00  0.00    -0.025 A 
HETATM   22  C   UNL     1     -40.242  53.855 -48.993  1.00  0.00     0.001 A 
HETATM   23  C   UNL     1     -41.260  54.804 -49.007  1.00  0.00     0.001 A 
HETATM   24  C   UNL     1     -41.965  55.053 -50.186  1.00  0.00     0.012 A 
HETATM   25  C   UNL     1     -42.370  54.585 -52.560  1.00  0.00     0.020 A 
ENDBRANCH  15  16
ENDBRANCH  12  15
ENDBRANCH   1  11
BRANCH   8  26
HETATM   26  C   UNL     1     -42.052  61.209 -57.917  1.00  0.00     0.270 C 
HETATM   27  N   UNL     1     -40.848  61.853 -57.848  1.00  0.00    -0.365 N 
HETATM   28  H   UNL     1     -40.102  61.554 -58.466  1.00  0.00     0.159 HD
HETATM   29  H   UNL     1     -40.705  62.569 -57.154  1.00  0.00     0.159 HD
HETATM   30  O   UNL     1     -42.974  61.507 -57.165  1.00  0.00    -0.266 OA
ENDBRANCH   8  26
TORSDOF 4
ENDMDL
MODEL 9
REMARK VINA RESULT:      -8.5      4.305      6.108
REMARK  4 active torsions:
REMARK  status: ('A' for Active; 'I' for Inactive)
REMARK    1  A    between atoms: C_9  and  C_10 
REMARK    2  A    between atoms: C_10  and  C_11 
REMARK       I    between atoms: C_11  and  N_12 
REMARK    3  A    between atoms: N_12  and  C_13 
REMARK    4  A    between atoms: C_20  and  C_21 
REMARK       I    between atoms: C_21  and  N_22 
ROOT
HETATM    1  C   UNL     1     -41.576  58.566 -52.630  1.00  0.00     0.035 A 
HETATM    2  C   UNL     1     -42.690  59.362 -52.927  1.00  0.00     0.046 A 
HETATM    3  C   UNL     1     -43.173  60.271 -51.960  1.00  0.00     0.030 A 
HETATM    4  C   UNL     1     -42.509  60.374 -50.744  1.00  0.00     0.063 A 
HETATM    5  N   UNL     1     -43.192  61.322 -50.036  1.00  0.00    -0.277 N 
HETATM    6  H   UNL     1     -42.985  61.659 -49.104  1.00  0.00     0.189 HD
HETATM    7  N   UNL     1     -44.260  61.829 -50.672  1.00  0.00    -0.168 NA
HETATM    8  C   UNL     1     -44.266  61.185 -51.862  1.00  0.00     0.156 A 
HETATM    9  C   UNL     1     -41.388  59.606 -50.421  1.00  0.00     0.034 A 
HETATM   10  C   UNL     1     -40.946  58.690 -51.384  1.00  0.00     0.032 A 
ENDROOT
BRANCH   1  11
HETATM   11  N   UNL     1     -41.071  57.583 -53.507  1.00  0.00    -0.327 N 
HETATM   12  C   UNL     1     -41.725  56.449 -53.957  1.00  0.00     0.226 C 
HETATM   13  O   UNL     1     -42.920  56.197 -53.826  1.00  0.00    -0.273 OA
HETATM   14  H   UNL     1     -40.121  57.719 -53.827  1.00  0.00     0.169 HD
BRANCH  12  15
HETATM   15  C   UNL     1     -40.795  55.469 -54.658  1.00  0.00     0.141 C 
BRANCH  15  16
HETATM   16  C   UNL     1     -40.540  54.240 -53.818  1.00  0.00    -0.049 A 
HETATM   17  C   UNL     1     -40.472  54.347 -52.425  1.00  0.00     0.008 A 
HETATM   18  C   UNL     1     -40.198  53.227 -51.639  1.00  0.00     0.013 A 
HETATM   19  C   UNL     1     -39.992  51.972 -52.229  1.00  0.00    -0.026 A 
HETATM   20  C   UNL     1     -39.704  50.840 -51.451  1.00  0.00     0.012 A 
HETATM   21  C   UNL     1     -40.073  51.847 -53.634  1.00  0.00    -0.025 A 
HETATM   22  C   UNL     1     -39.499  49.597 -52.050  1.00  0.00     0.001 A 
HETATM   23  C   UNL     1     -39.582  49.471 -53.433  1.00  0.00     0.001 A 
HETATM   24  C   UNL     1     -39.868  50.587 -54.221  1.00  0.00     0.012 A 
HETATM   25  C   UNL     1     -40.350  52.985 -54.414  1.00  0.00     0.020 A 
ENDBRANCH  15  16
ENDBRANCH  12  15
ENDBRANCH   1  11
BRANCH   8  26
HETATM   26  C   UNL     1     -45.314  61.439 -52.860  1.00  0.00     0.270 C 
HETATM   27  N   UNL     1     -46.202  60.409 -53.011  1.00  0.00    -0.365 N 
HETATM   28  H   UNL     1     -46.066  59.569 -52.461  1.00  0.00     0.159 HD
HETATM   29  H   UNL     1     -46.935  60.480 -53.698  1.00  0.00     0.159 HD
HETATM   30  O   UNL     1     -45.412  62.462 -53.529  1.00  0.00    -0.266 OA
ENDBRANCH   8  26
TORSDOF 4
ENDMDL
MODEL 10
REMARK VINA RESULT:      -8.5      3.151      4.353
REMARK  4 active torsions:
REMARK  status: ('A' for Active; 'I' for Inactive)
REMARK    1  A    between atoms: C_9  and  C_10 
REMARK    2  A    between atoms: C_10  and  C_11 
REMARK       I    between atoms: C_11  and  N_12 
REMARK    3  A    between atoms: N_12  and  C_13 
REMARK    4  A    between atoms: C_20  and  C_21 
REMARK       I    between atoms: C_21  and  N_22 
ROOT
HETATM    1  C   UNL     1     -43.782  58.117 -51.948  1.00  0.00     0.035 A 
HETATM    2  C   UNL     1     -43.616  57.910 -53.324  1.00  0.00     0.046 A 
HETATM    3  C   UNL     1     -44.387  58.660 -54.238  1.00  0.00     0.030 A 
HETATM    4  C   UNL     1     -45.275  59.610 -53.748  1.00  0.00     0.063 A 
HETATM    5  N   UNL     1     -45.857  60.167 -54.851  1.00  0.00    -0.277 N 
HETATM    6  H   UNL     1     -46.554  60.901 -54.872  1.00  0.00     0.189 HD
HETATM    7  N   UNL     1     -45.449  59.645 -56.019  1.00  0.00    -0.168 NA
HETATM    8  C   UNL     1     -44.542  58.708 -55.658  1.00  0.00     0.156 A 
HETATM    9  C   UNL     1     -45.455  59.852 -52.384  1.00  0.00     0.034 A 
HETATM   10  C   UNL     1     -44.701  59.075 -51.496  1.00  0.00     0.032 A 
ENDROOT
BRANCH   1  11
HETATM   11  N   UNL     1     -43.107  57.364 -50.965  1.00  0.00    -0.327 N 
HETATM   12  C   UNL     1     -41.738  57.236 -50.804  1.00  0.00     0.226 C 
HETATM   13  O   UNL     1     -40.873  57.902 -51.366  1.00  0.00    -0.273 OA
HETATM   14  H   UNL     1     -43.692  56.851 -50.318  1.00  0.00     0.169 HD
BRANCH  12  15
HETATM   15  C   UNL     1     -41.359  56.130 -49.829  1.00  0.00     0.141 C 
BRANCH  15  16
HETATM   16  C   UNL     1     -40.905  54.882 -50.547  1.00  0.00    -0.049 A 
HETATM   17  C   UNL     1     -40.140  53.925 -49.872  1.00  0.00     0.008 A 
HETATM   18  C   UNL     1     -39.680  52.786 -50.534  1.00  0.00     0.013 A 
HETATM   19  C   UNL     1     -39.981  52.574 -51.887  1.00  0.00    -0.026 A 
HETATM   20  C   UNL     1     -39.515  51.439 -52.569  1.00  0.00     0.012 A 
HETATM   21  C   UNL     1     -40.766  53.526 -52.578  1.00  0.00    -0.025 A 
HETATM   22  C   UNL     1     -39.820  51.242 -53.915  1.00  0.00     0.001 A 
HETATM   23  C   UNL     1     -40.595  52.174 -54.596  1.00  0.00     0.001 A 
HETATM   24  C   UNL     1     -41.066  53.309 -53.933  1.00  0.00     0.012 A 
HETATM   25  C   UNL     1     -41.223  54.669 -51.897  1.00  0.00     0.020 A 
ENDBRANCH  15  16
ENDBRANCH  12  15
ENDBRANCH   1  11
BRANCH   8  26
HETATM   26  C   UNL     1     -43.867  57.873 -56.661  1.00  0.00     0.270 C 
HETATM   27  N   UNL     1     -44.005  56.529 -56.452  1.00  0.00    -0.365 N 
HETATM   28  H   UNL     1     -44.524  56.215 -55.640  1.00  0.00     0.159 HD
HETATM   29  H   UNL     1     -43.548  55.879 -57.071  1.00  0.00     0.159 HD
HETATM   30  O   UNL     1     -43.217  58.304 -57.607  1.00  0.00    -0.266 OA
ENDBRANCH   8  26
TORSDOF 4
ENDMDL
