MODEL 1
REMARK VINA RESULT:      -6.9      0.000      0.000
REMARK  11 active torsions:
REMARK  status: ('A' for Active; 'I' for Inactive)
REMARK    1  A    between atoms: C_2  and  O_3 
REMARK    2  A    between atoms: O_3  and  C_4 
REMARK    3  A    between atoms: C_5  and  C_6 
REMARK       I    between atoms: C_6  and  N_7 
REMARK    4  A    between atoms: N_7  and  C_8 
REMARK    5  A    between atoms: C_8  and  N_9 
REMARK    6  A    between atoms: N_9  and  C_10 
REMARK    7  A    between atoms: C_11  and  C_12 
REMARK       I    between atoms: C_12  and  N_13 
REMARK    8  A    between atoms: N_13  and  C_14 
REMARK    9  A    between atoms: C_14  and  C_15 
REMARK   10  A    between atoms: C_15  and  C_16 
REMARK   11  A    between atoms: C_16  and  O_17 
ROOT
HETATM    1  N   UNL     1     -40.250  53.997 -51.338  1.00  0.00    -0.332 N 
HETATM    2  H   UNL     1     -39.824  54.748 -51.889  1.00  0.00     0.168 HD
ENDROOT
BRANCH   1   3
HETATM    3  C   UNL     1     -40.731  54.374 -50.112  1.00  0.00     0.179 C 
HETATM    4  S   UNL     1     -40.237  53.775 -48.630  1.00  0.00    -0.040 SA
BRANCH   3   5
HETATM    5  N   UNL     1     -41.734  55.315 -50.117  1.00  0.00    -0.299 N 
HETATM    6  C   UNL     1     -42.757  55.443 -51.054  1.00  0.00     0.260 C 
HETATM    7  O   UNL     1     -43.226  54.487 -51.661  1.00  0.00    -0.267 OA
HETATM    8  H   UNL     1     -41.530  56.109 -49.528  1.00  0.00     0.171 HD
BRANCH   6   9
HETATM    9  C   UNL     1     -43.271  56.839 -51.241  1.00  0.00     0.065 A 
HETATM   10  C   UNL     1     -42.409  57.921 -51.466  1.00  0.00     0.084 A 
HETATM   11  C   UNL     1     -42.926  59.207 -51.668  1.00  0.00     0.038 A 
HETATM   12  C   UNL     1     -44.298  59.436 -51.592  1.00  0.00     0.003 A 
HETATM   13  C   UNL     1     -45.161  58.380 -51.316  1.00  0.00     0.001 A 
HETATM   14  C   UNL     1     -44.652  57.090 -51.137  1.00  0.00     0.020 A 
BRANCH  10  15
HETATM   15  O   UNL     1     -41.054  57.763 -51.570  1.00  0.00    -0.350 OA
BRANCH  15  16
HETATM   16  C   UNL     1     -40.412  59.016 -51.854  1.00  0.00     0.171 C 
HETATM   17  C   UNL     1     -39.379  59.296 -50.776  1.00  0.00     0.034 C 
ENDBRANCH  15  16
ENDBRANCH  10  15
ENDBRANCH   6   9
ENDBRANCH   3   5
ENDBRANCH   1   3
BRANCH   1  18
HETATM   18  C   UNL     1     -40.175  52.703 -51.904  1.00  0.00     0.050 A 
HETATM   19  C   UNL     1     -40.244  52.523 -53.297  1.00  0.00     0.058 A 
HETATM   20  C   UNL     1     -39.976  51.270 -53.868  1.00  0.00     0.019 A 
HETATM   21  C   UNL     1     -39.662  50.183 -53.055  1.00  0.00     0.001 A 
HETATM   22  C   UNL     1     -39.627  50.343 -51.672  1.00  0.00     0.002 A 
HETATM   23  C   UNL     1     -39.875  51.593 -51.100  1.00  0.00     0.030 A 
BRANCH  19  24
HETATM   24  C   UNL     1     -40.761  53.566 -54.223  1.00  0.00     0.253 C 
HETATM   25  N   UNL     1     -42.136  53.698 -54.241  1.00  0.00    -0.357 N 
HETATM   26  H   UNL     1     -42.679  53.082 -53.648  1.00  0.00     0.162 HD
HETATM   27  O   UNL     1     -40.002  54.161 -54.976  1.00  0.00    -0.268 OA
BRANCH  25  28
HETATM   28  C   UNL     1     -42.818  54.396 -55.311  1.00  0.00     0.125 C 
BRANCH  28  29
HETATM   29  C   UNL     1     -43.436  55.716 -54.876  1.00  0.00     0.046 C 
BRANCH  29  30
HETATM   30  C   UNL     1     -42.523  56.900 -55.154  1.00  0.00     0.165 C 
BRANCH  30  31
HETATM   31  O   UNL     1     -41.330  56.781 -54.388  1.00  0.00    -0.401 OA
HETATM   32  H   UNL     1     -40.984  55.882 -54.534  1.00  0.00     0.209 HD
ENDBRANCH  30  31
ENDBRANCH  29  30
ENDBRANCH  28  29
ENDBRANCH  25  28
ENDBRANCH  19  24
ENDBRANCH   1  18
TORSDOF 11
ENDMDL
MODEL 2
REMARK VINA RESULT:      -6.9      3.015      6.781
REMARK  11 active torsions:
REMARK  status: ('A' for Active; 'I' for Inactive)
REMARK    1  A    between atoms: C_2  and  O_3 
REMARK    2  A    between atoms: O_3  and  C_4 
REMARK    3  A    between atoms: C_5  and  C_6 
REMARK       I    between atoms: C_6  and  N_7 
REMARK    4  A    between atoms: N_7  and  C_8 
REMARK    5  A    between atoms: C_8  and  N_9 
REMARK    6  A    between atoms: N_9  and  C_10 
REMARK    7  A    between atoms: C_11  and  C_12 
REMARK       I    between atoms: C_12  and  N_13 
REMARK    8  A    between atoms: N_13  and  C_14 
REMARK    9  A    between atoms: C_14  and  C_15 
REMARK   10  A    between atoms: C_15  and  C_16 
REMARK   11  A    between atoms: C_16  and  O_17 
ROOT
HETATM    1  N   UNL     1     -41.280  56.516 -54.511  1.00  0.00    -0.332 N 
HETATM    2  H   UNL     1     -40.371  56.268 -54.911  1.00  0.00     0.168 HD
ENDROOT
BRANCH   1   3
HETATM    3  C   UNL     1     -41.790  55.614 -53.614  1.00  0.00     0.179 C 
HETATM    4  S   UNL     1     -43.290  55.692 -52.877  1.00  0.00    -0.040 SA
BRANCH   3   5
HETATM    5  N   UNL     1     -40.967  54.565 -53.277  1.00  0.00    -0.299 N 
HETATM    6  C   UNL     1     -40.392  53.639 -54.145  1.00  0.00     0.260 C 
HETATM    7  O   UNL     1     -40.089  53.912 -55.301  1.00  0.00    -0.267 OA
HETATM    8  H   UNL     1     -41.016  54.327 -52.296  1.00  0.00     0.171 HD
BRANCH   6   9
HETATM    9  C   UNL     1     -40.135  52.288 -53.548  1.00  0.00     0.065 A 
HETATM   10  C   UNL     1     -39.791  52.128 -52.199  1.00  0.00     0.084 A 
HETATM   11  C   UNL     1     -39.590  50.848 -51.667  1.00  0.00     0.038 A 
HETATM   12  C   UNL     1     -39.673  49.723 -52.484  1.00  0.00     0.003 A 
HETATM   13  C   UNL     1     -39.961  49.871 -53.837  1.00  0.00     0.001 A 
HETATM   14  C   UNL     1     -40.187  51.145 -54.369  1.00  0.00     0.020 A 
BRANCH  10  15
HETATM   15  O   UNL     1     -39.709  53.188 -51.337  1.00  0.00    -0.350 OA
BRANCH  15  16
HETATM   16  C   UNL     1     -40.350  52.885 -50.088  1.00  0.00     0.171 C 
HETATM   17  C   UNL     1     -40.518  54.171 -49.297  1.00  0.00     0.034 C 
ENDBRANCH  15  16
ENDBRANCH  10  15
ENDBRANCH   6   9
ENDBRANCH   3   5
ENDBRANCH   1   3
BRANCH   1  18
HETATM   18  C   UNL     1     -41.880  57.687 -55.030  1.00  0.00     0.050 A 
HETATM   19  C   UNL     1     -42.670  57.634 -56.192  1.00  0.00     0.058 A 
HETATM   20  C   UNL     1     -43.419  58.750 -56.596  1.00  0.00     0.019 A 
HETATM   21  C   UNL     1     -43.366  59.932 -55.861  1.00  0.00     0.001 A 
HETATM   22  C   UNL     1     -42.558  60.005 -54.729  1.00  0.00     0.002 A 
HETATM   23  C   UNL     1     -41.825  58.891 -54.313  1.00  0.00     0.030 A 
BRANCH  19  24
HETATM   24  C   UNL     1     -42.635  56.492 -57.144  1.00  0.00     0.253 C 
HETATM   25  N   UNL     1     -42.363  56.834 -58.455  1.00  0.00    -0.357 N 
HETATM   26  H   UNL     1     -42.224  57.815 -58.669  1.00  0.00     0.162 HD
HETATM   27  O   UNL     1     -42.940  55.365 -56.776  1.00  0.00    -0.268 OA
BRANCH  25  28
HETATM   28  C   UNL     1     -42.631  55.925 -59.548  1.00  0.00     0.125 C 
BRANCH  28  29
HETATM   29  C   UNL     1     -44.045  56.038 -60.098  1.00  0.00     0.046 C 
BRANCH  29  30
HETATM   30  C   UNL     1     -44.751  54.692 -60.157  1.00  0.00     0.165 C 
BRANCH  30  31
HETATM   31  O   UNL     1     -44.495  53.960 -58.965  1.00  0.00    -0.401 OA
HETATM   32  H   UNL     1     -44.814  54.500 -58.221  1.00  0.00     0.209 HD
ENDBRANCH  30  31
ENDBRANCH  29  30
ENDBRANCH  28  29
ENDBRANCH  25  28
ENDBRANCH  19  24
ENDBRANCH   1  18
TORSDOF 11
ENDMDL
MODEL 3
REMARK VINA RESULT:      -6.7      2.080      6.264
REMARK  11 active torsions:
REMARK  status: ('A' for Active; 'I' for Inactive)
REMARK    1  A    between atoms: C_2  and  O_3 
REMARK    2  A    between atoms: O_3  and  C_4 
REMARK    3  A    between atoms: C_5  and  C_6 
REMARK       I    between atoms: C_6  and  N_7 
REMARK    4  A    between atoms: N_7  and  C_8 
REMARK    5  A    between atoms: C_8  and  N_9 
REMARK    6  A    between atoms: N_9  and  C_10 
REMARK    7  A    between atoms: C_11  and  C_12 
REMARK       I    between atoms: C_12  and  N_13 
REMARK    8  A    between atoms: N_13  and  C_14 
REMARK    9  A    between atoms: C_14  and  C_15 
REMARK   10  A    between atoms: C_15  and  C_16 
REMARK   11  A    between atoms: C_16  and  O_17 
ROOT
HETATM    1  N   UNL     1     -41.474  55.898 -51.912  1.00  0.00    -0.332 N 
HETATM    2  H   UNL     1     -40.858  55.590 -52.669  1.00  0.00     0.168 HD
ENDROOT
BRANCH   1   3
HETATM    3  C   UNL     1     -42.242  54.914 -51.346  1.00  0.00     0.179 C 
HETATM    4  S   UNL     1     -43.645  55.139 -50.464  1.00  0.00    -0.040 SA
BRANCH   3   5
HETATM    5  N   UNL     1     -41.787  53.625 -51.505  1.00  0.00    -0.299 N 
HETATM    6  C   UNL     1     -40.463  53.194 -51.468  1.00  0.00     0.260 C 
HETATM    7  O   UNL     1     -39.604  53.745 -50.788  1.00  0.00    -0.267 OA
HETATM    8  H   UNL     1     -42.471  53.018 -51.934  1.00  0.00     0.171 HD
BRANCH   6   9
HETATM    9  C   UNL     1     -40.172  51.978 -52.294  1.00  0.00     0.065 A 
HETATM   10  C   UNL     1     -40.503  51.911 -53.654  1.00  0.00     0.084 A 
HETATM   11  C   UNL     1     -40.188  50.771 -54.404  1.00  0.00     0.038 A 
HETATM   12  C   UNL     1     -39.591  49.668 -53.796  1.00  0.00     0.003 A 
HETATM   13  C   UNL     1     -39.306  49.701 -52.434  1.00  0.00     0.001 A 
HETATM   14  C   UNL     1     -39.597  50.845 -51.686  1.00  0.00     0.020 A 
BRANCH  10  15
HETATM   15  O   UNL     1     -41.074  52.963 -54.318  1.00  0.00    -0.350 OA
BRANCH  15  16
HETATM   16  C   UNL     1     -40.091  53.685 -55.076  1.00  0.00     0.171 C 
HETATM   17  C   UNL     1     -40.325  55.175 -54.892  1.00  0.00     0.034 C 
ENDBRANCH  15  16
ENDBRANCH  10  15
ENDBRANCH   6   9
ENDBRANCH   3   5
ENDBRANCH   1   3
BRANCH   1  18
HETATM   18  C   UNL     1     -41.489  57.290 -51.662  1.00  0.00     0.050 A 
HETATM   19  C   UNL     1     -42.320  58.145 -52.408  1.00  0.00     0.058 A 
HETATM   20  C   UNL     1     -42.480  59.487 -52.034  1.00  0.00     0.019 A 
HETATM   21  C   UNL     1     -41.796  59.994 -50.932  1.00  0.00     0.001 A 
HETATM   22  C   UNL     1     -40.943  59.164 -50.209  1.00  0.00     0.002 A 
HETATM   23  C   UNL     1     -40.794  57.822 -50.566  1.00  0.00     0.030 A 
BRANCH  19  24
HETATM   24  C   UNL     1     -42.931  57.751 -53.706  1.00  0.00     0.253 C 
HETATM   25  N   UNL     1     -42.394  58.374 -54.815  1.00  0.00    -0.357 N 
HETATM   26  H   UNL     1     -41.651  59.048 -54.667  1.00  0.00     0.162 HD
HETATM   27  O   UNL     1     -43.906  57.013 -53.736  1.00  0.00    -0.268 OA
BRANCH  25  28
HETATM   28  C   UNL     1     -43.080  58.381 -56.090  1.00  0.00     0.125 C 
BRANCH  28  29
HETATM   29  C   UNL     1     -42.402  57.523 -57.148  1.00  0.00     0.046 C 
BRANCH  29  30
HETATM   30  C   UNL     1     -43.187  56.257 -57.454  1.00  0.00     0.165 C 
BRANCH  30  31
HETATM   31  O   UNL     1     -43.548  55.608 -56.242  1.00  0.00    -0.401 OA
HETATM   32  H   UNL     1     -43.350  54.661 -56.352  1.00  0.00     0.209 HD
ENDBRANCH  30  31
ENDBRANCH  29  30
ENDBRANCH  28  29
ENDBRANCH  25  28
ENDBRANCH  19  24
ENDBRANCH   1  18
TORSDOF 11
ENDMDL
MODEL 4
REMARK VINA RESULT:      -6.7      3.607      6.779
REMARK  11 active torsions:
REMARK  status: ('A' for Active; 'I' for Inactive)
REMARK    1  A    between atoms: C_2  and  O_3 
REMARK    2  A    between atoms: O_3  and  C_4 
REMARK    3  A    between atoms: C_5  and  C_6 
REMARK       I    between atoms: C_6  and  N_7 
REMARK    4  A    between atoms: N_7  and  C_8 
REMARK    5  A    between atoms: C_8  and  N_9 
REMARK    6  A    between atoms: N_9  and  C_10 
REMARK    7  A    between atoms: C_11  and  C_12 
REMARK       I    between atoms: C_12  and  N_13 
REMARK    8  A    between atoms: N_13  and  C_14 
REMARK    9  A    between atoms: C_14  and  C_15 
REMARK   10  A    between atoms: C_15  and  C_16 
REMARK   11  A    between atoms: C_16  and  O_17 
ROOT
HETATM    1  N   UNL     1     -43.216  57.421 -55.317  1.00  0.00    -0.332 N 
HETATM    2  H   UNL     1     -44.203  57.167 -55.417  1.00  0.00     0.168 HD
ENDROOT
BRANCH   1   3
HETATM    3  C   UNL     1     -42.633  57.047 -54.135  1.00  0.00     0.179 C 
HETATM    4  S   UNL     1     -42.713  57.880 -52.686  1.00  0.00    -0.040 SA
BRANCH   3   5
HETATM    5  N   UNL     1     -41.892  55.888 -54.164  1.00  0.00    -0.299 N 
HETATM    6  C   UNL     1     -42.368  54.586 -54.021  1.00  0.00     0.260 C 
HETATM    7  O   UNL     1     -43.490  54.246 -54.377  1.00  0.00    -0.267 OA
HETATM    8  H   UNL     1     -40.906  56.050 -54.023  1.00  0.00     0.171 HD
BRANCH   6   9
HETATM    9  C   UNL     1     -41.389  53.618 -53.429  1.00  0.00     0.065 A 
HETATM   10  C   UNL     1     -40.854  53.797 -52.146  1.00  0.00     0.084 A 
HETATM   11  C   UNL     1     -39.966  52.855 -51.612  1.00  0.00     0.038 A 
HETATM   12  C   UNL     1     -39.558  51.759 -52.370  1.00  0.00     0.003 A 
HETATM   13  C   UNL     1     -40.039  51.599 -53.666  1.00  0.00     0.001 A 
HETATM   14  C   UNL     1     -40.945  52.523 -54.195  1.00  0.00     0.020 A 
BRANCH  10  15
HETATM   15  O   UNL     1     -41.224  54.841 -51.342  1.00  0.00    -0.350 OA
BRANCH  15  16
HETATM   16  C   UNL     1     -42.022  54.381 -50.240  1.00  0.00     0.171 C 
HETATM   17  C   UNL     1     -43.487  54.636 -50.553  1.00  0.00     0.034 C 
ENDBRANCH  15  16
ENDBRANCH  10  15
ENDBRANCH   6   9
ENDBRANCH   3   5
ENDBRANCH   1   3
BRANCH   1  18
HETATM   18  C   UNL     1     -42.671  58.190 -56.372  1.00  0.00     0.050 A 
HETATM   19  C   UNL     1     -42.713  57.722 -57.698  1.00  0.00     0.058 A 
HETATM   20  C   UNL     1     -42.352  58.563 -58.761  1.00  0.00     0.019 A 
HETATM   21  C   UNL     1     -41.924  59.864 -58.511  1.00  0.00     0.001 A 
HETATM   22  C   UNL     1     -41.846  60.325 -57.199  1.00  0.00     0.002 A 
HETATM   23  C   UNL     1     -42.221  59.498 -56.138  1.00  0.00     0.030 A 
BRANCH  19  24
HETATM   24  C   UNL     1     -42.963  56.298 -58.046  1.00  0.00     0.253 C 
HETATM   25  N   UNL     1     -43.627  56.099 -59.241  1.00  0.00    -0.357 N 
HETATM   26  H   UNL     1     -43.900  56.917 -59.774  1.00  0.00     0.162 HD
HETATM   27  O   UNL     1     -42.687  55.406 -57.255  1.00  0.00    -0.268 OA
BRANCH  25  28
HETATM   28  C   UNL     1     -44.252  54.833 -59.561  1.00  0.00     0.125 C 
BRANCH  28  29
HETATM   29  C   UNL     1     -45.052  54.862 -60.854  1.00  0.00     0.046 C 
BRANCH  29  30
HETATM   30  C   UNL     1     -46.120  55.945 -60.848  1.00  0.00     0.165 C 
BRANCH  30  31
HETATM   31  O   UNL     1     -46.731  56.014 -59.566  1.00  0.00    -0.401 OA
HETATM   32  H   UNL     1     -46.894  56.954 -59.375  1.00  0.00     0.209 HD
ENDBRANCH  30  31
ENDBRANCH  29  30
ENDBRANCH  28  29
ENDBRANCH  25  28
ENDBRANCH  19  24
ENDBRANCH   1  18
TORSDOF 11
ENDMDL
MODEL 5
REMARK VINA RESULT:      -6.7      2.363      6.589
REMARK  11 active torsions:
REMARK  status: ('A' for Active; 'I' for Inactive)
REMARK    1  A    between atoms: C_2  and  O_3 
REMARK    2  A    between atoms: O_3  and  C_4 
REMARK    3  A    between atoms: C_5  and  C_6 
REMARK       I    between atoms: C_6  and  N_7 
REMARK    4  A    between atoms: N_7  and  C_8 
REMARK    5  A    between atoms: C_8  and  N_9 
REMARK    6  A    between atoms: N_9  and  C_10 
REMARK    7  A    between atoms: C_11  and  C_12 
REMARK       I    between atoms: C_12  and  N_13 
REMARK    8  A    between atoms: N_13  and  C_14 
REMARK    9  A    between atoms: C_14  and  C_15 
REMARK   10  A    between atoms: C_15  and  C_16 
REMARK   11  A    between atoms: C_16  and  O_17 
ROOT
HETATM    1  N   UNL     1     -41.716  56.229 -54.504  1.00  0.00    -0.332 N 
HETATM    2  H   UNL     1     -40.759  56.592 -54.544  1.00  0.00     0.168 HD
ENDROOT
BRANCH   1   3
HETATM    3  C   UNL     1     -42.032  55.539 -53.364  1.00  0.00     0.179 C 
HETATM    4  S   UNL     1     -43.308  55.864 -52.333  1.00  0.00    -0.040 SA
BRANCH   3   5
HETATM    5  N   UNL     1     -41.195  54.498 -53.034  1.00  0.00    -0.299 N 
HETATM    6  C   UNL     1     -40.402  53.753 -53.905  1.00  0.00     0.260 C 
HETATM    7  O   UNL     1     -39.926  54.220 -54.934  1.00  0.00    -0.267 OA
HETATM    8  H   UNL     1     -41.394  54.107 -52.125  1.00  0.00     0.171 HD
BRANCH   6   9
HETATM    9  C   UNL     1     -40.140  52.343 -53.471  1.00  0.00     0.065 A 
HETATM   10  C   UNL     1     -39.719  52.034 -52.171  1.00  0.00     0.084 A 
HETATM   11  C   UNL     1     -39.514  50.702 -51.790  1.00  0.00     0.038 A 
HETATM   12  C   UNL     1     -39.672  49.672 -52.715  1.00  0.00     0.003 A 
HETATM   13  C   UNL     1     -40.038  49.968 -54.024  1.00  0.00     0.001 A 
HETATM   14  C   UNL     1     -40.267  51.295 -54.403  1.00  0.00     0.020 A 
BRANCH  10  15
HETATM   15  O   UNL     1     -39.561  52.995 -51.209  1.00  0.00    -0.350 OA
BRANCH  15  16
HETATM   16  C   UNL     1     -40.389  52.721 -50.068  1.00  0.00     0.171 C 
HETATM   17  C   UNL     1     -40.746  54.033 -49.392  1.00  0.00     0.034 C 
ENDBRANCH  15  16
ENDBRANCH  10  15
ENDBRANCH   6   9
ENDBRANCH   3   5
ENDBRANCH   1   3
BRANCH   1  18
HETATM   18  C   UNL     1     -42.495  56.425 -55.669  1.00  0.00     0.050 A 
HETATM   19  C   UNL     1     -43.088  57.673 -55.934  1.00  0.00     0.058 A 
HETATM   20  C   UNL     1     -43.693  57.924 -57.174  1.00  0.00     0.019 A 
HETATM   21  C   UNL     1     -43.735  56.929 -58.148  1.00  0.00     0.001 A 
HETATM   22  C   UNL     1     -43.182  55.679 -57.881  1.00  0.00     0.002 A 
HETATM   23  C   UNL     1     -42.562  55.429 -56.654  1.00  0.00     0.030 A 
BRANCH  19  24
HETATM   24  C   UNL     1     -43.268  58.721 -54.895  1.00  0.00     0.253 C 
HETATM   25  N   UNL     1     -42.130  59.446 -54.596  1.00  0.00    -0.357 N 
HETATM   26  H   UNL     1     -41.274  59.208 -55.085  1.00  0.00     0.162 HD
HETATM   27  O   UNL     1     -44.328  58.826 -54.294  1.00  0.00    -0.268 OA
BRANCH  25  28
HETATM   28  C   UNL     1     -42.032  60.244 -53.393  1.00  0.00     0.125 C 
BRANCH  28  29
HETATM   29  C   UNL     1     -41.835  59.417 -52.131  1.00  0.00     0.046 C 
BRANCH  29  30
HETATM   30  C   UNL     1     -40.379  59.037 -51.912  1.00  0.00     0.165 C 
BRANCH  30  31
HETATM   31  O   UNL     1     -39.684  59.051 -53.153  1.00  0.00    -0.401 OA
HETATM   32  H   UNL     1     -38.732  59.041 -52.950  1.00  0.00     0.209 HD
ENDBRANCH  30  31
ENDBRANCH  29  30
ENDBRANCH  28  29
ENDBRANCH  25  28
ENDBRANCH  19  24
ENDBRANCH   1  18
TORSDOF 11
ENDMDL
MODEL 6
REMARK VINA RESULT:      -6.7      2.612      6.961
REMARK  11 active torsions:
REMARK  status: ('A' for Active; 'I' for Inactive)
REMARK    1  A    between atoms: C_2  and  O_3 
REMARK    2  A    between atoms: O_3  and  C_4 
REMARK    3  A    between atoms: C_5  and  C_6 
REMARK       I    between atoms: C_6  and  N_7 
REMARK    4  A    between atoms: N_7  and  C_8 
REMARK    5  A    between atoms: C_8  and  N_9 
REMARK    6  A    between atoms: N_9  and  C_10 
REMARK    7  A    between atoms: C_11  and  C_12 
REMARK       I    between atoms: C_12  and  N_13 
REMARK    8  A    between atoms: N_13  and  C_14 
REMARK    9  A    between atoms: C_14  and  C_15 
REMARK   10  A    between atoms: C_15  and  C_16 
REMARK   11  A    between atoms: C_16  and  O_17 
ROOT
HETATM    1  N   UNL     1     -44.527  55.999 -54.461  1.00  0.00    -0.332 N 
HETATM    2  H   UNL     1     -45.179  55.419 -53.926  1.00  0.00     0.168 HD
ENDROOT
BRANCH   1   3
HETATM    3  C   UNL     1     -43.406  55.353 -54.912  1.00  0.00     0.179 C 
HETATM    4  S   UNL     1     -42.816  55.373 -56.478  1.00  0.00    -0.040 SA
BRANCH   3   5
HETATM    5  N   UNL     1     -42.727  54.597 -53.984  1.00  0.00    -0.299 N 
HETATM    6  C   UNL     1     -41.399  54.750 -53.590  1.00  0.00     0.260 C 
HETATM    7  O   UNL     1     -40.829  55.835 -53.584  1.00  0.00    -0.267 OA
HETATM    8  H   UNL     1     -43.181  53.717 -53.788  1.00  0.00     0.171 HD
BRANCH   6   9
HETATM    9  C   UNL     1     -40.727  53.490 -53.135  1.00  0.00     0.065 A 
HETATM   10  C   UNL     1     -40.510  53.215 -51.779  1.00  0.00     0.084 A 
HETATM   11  C   UNL     1     -39.906  52.013 -51.388  1.00  0.00     0.038 A 
HETATM   12  C   UNL     1     -39.463  51.102 -52.345  1.00  0.00     0.003 A 
HETATM   13  C   UNL     1     -39.624  51.387 -53.697  1.00  0.00     0.001 A 
HETATM   14  C   UNL     1     -40.247  52.575 -54.092  1.00  0.00     0.020 A 
BRANCH  10  15
HETATM   15  O   UNL     1     -40.934  54.058 -50.787  1.00  0.00    -0.350 OA
BRANCH  15  16
HETATM   16  C   UNL     1     -39.907  54.248 -49.802  1.00  0.00     0.171 C 
HETATM   17  C   UNL     1     -40.550  54.308 -48.427  1.00  0.00     0.034 C 
ENDBRANCH  15  16
ENDBRANCH  10  15
ENDBRANCH   6   9
ENDBRANCH   3   5
ENDBRANCH   1   3
BRANCH   1  18
HETATM   18  C   UNL     1     -44.856  57.372 -54.549  1.00  0.00     0.050 A 
HETATM   19  C   UNL     1     -44.442  58.275 -53.553  1.00  0.00     0.058 A 
HETATM   20  C   UNL     1     -44.599  59.656 -53.735  1.00  0.00     0.019 A 
HETATM   21  C   UNL     1     -45.191  60.147 -54.897  1.00  0.00     0.001 A 
HETATM   22  C   UNL     1     -45.636  59.259 -55.873  1.00  0.00     0.002 A 
HETATM   23  C   UNL     1     -45.466  57.883 -55.704  1.00  0.00     0.030 A 
BRANCH  19  24
HETATM   24  C   UNL     1     -43.986  57.840 -52.206  1.00  0.00     0.253 C 
HETATM   25  N   UNL     1     -42.632  57.984 -51.975  1.00  0.00    -0.357 N 
HETATM   26  H   UNL     1     -42.060  58.353 -52.726  1.00  0.00     0.162 HD
HETATM   27  O   UNL     1     -44.763  57.299 -51.431  1.00  0.00    -0.268 OA
BRANCH  25  28
HETATM   28  C   UNL     1     -41.971  57.304 -50.882  1.00  0.00     0.125 C 
BRANCH  28  29
HETATM   29  C   UNL     1     -40.624  57.908 -50.517  1.00  0.00     0.046 C 
BRANCH  29  30
HETATM   30  C   UNL     1     -40.689  59.422 -50.378  1.00  0.00     0.165 C 
BRANCH  30  31
HETATM   31  O   UNL     1     -41.889  59.794 -49.713  1.00  0.00    -0.401 OA
HETATM   32  H   UNL     1     -41.926  59.289 -48.881  1.00  0.00     0.209 HD
ENDBRANCH  30  31
ENDBRANCH  29  30
ENDBRANCH  28  29
ENDBRANCH  25  28
ENDBRANCH  19  24
ENDBRANCH   1  18
TORSDOF 11
ENDMDL
MODEL 7
REMARK VINA RESULT:      -6.6      4.192      7.285
REMARK  11 active torsions:
REMARK  status: ('A' for Active; 'I' for Inactive)
REMARK    1  A    between atoms: C_2  and  O_3 
REMARK    2  A    between atoms: O_3  and  C_4 
REMARK    3  A    between atoms: C_5  and  C_6 
REMARK       I    between atoms: C_6  and  N_7 
REMARK    4  A    between atoms: N_7  and  C_8 
REMARK    5  A    between atoms: C_8  and  N_9 
REMARK    6  A    between atoms: N_9  and  C_10 
REMARK    7  A    between atoms: C_11  and  C_12 
REMARK       I    between atoms: C_12  and  N_13 
REMARK    8  A    between atoms: N_13  and  C_14 
REMARK    9  A    between atoms: C_14  and  C_15 
REMARK   10  A    between atoms: C_15  and  C_16 
REMARK   11  A    between atoms: C_16  and  O_17 
ROOT
HETATM    1  N   UNL     1     -42.123  56.887 -57.243  1.00  0.00    -0.332 N 
HETATM    2  H   UNL     1     -41.250  57.336 -57.534  1.00  0.00     0.168 HD
ENDROOT
BRANCH   1   3
HETATM    3  C   UNL     1     -42.196  56.560 -55.914  1.00  0.00     0.179 C 
HETATM    4  S   UNL     1     -42.991  57.427 -54.725  1.00  0.00    -0.040 SA
BRANCH   3   5
HETATM    5  N   UNL     1     -41.524  55.422 -55.533  1.00  0.00    -0.299 N 
HETATM    6  C   UNL     1     -42.085  54.229 -55.083  1.00  0.00     0.260 C 
HETATM    7  O   UNL     1     -43.183  53.831 -55.454  1.00  0.00    -0.267 OA
HETATM    8  H   UNL     1     -40.548  55.592 -55.332  1.00  0.00     0.171 HD
BRANCH   6   9
HETATM    9  C   UNL     1     -41.227  53.445 -54.137  1.00  0.00     0.065 A 
HETATM   10  C   UNL     1     -40.967  53.888 -52.833  1.00  0.00     0.084 A 
HETATM   11  C   UNL     1     -40.187  53.114 -51.965  1.00  0.00     0.038 A 
HETATM   12  C   UNL     1     -39.613  51.923 -52.404  1.00  0.00     0.003 A 
HETATM   13  C   UNL     1     -39.818  51.498 -53.713  1.00  0.00     0.001 A 
HETATM   14  C   UNL     1     -40.616  52.254 -54.576  1.00  0.00     0.020 A 
BRANCH  10  15
HETATM   15  O   UNL     1     -41.513  55.039 -52.333  1.00  0.00    -0.350 OA
BRANCH  15  16
HETATM   16  C   UNL     1     -42.124  54.804 -51.055  1.00  0.00     0.171 C 
HETATM   17  C   UNL     1     -43.501  54.199 -51.272  1.00  0.00     0.034 C 
ENDBRANCH  15  16
ENDBRANCH  10  15
ENDBRANCH   6   9
ENDBRANCH   3   5
ENDBRANCH   1   3
BRANCH   1  18
HETATM   18  C   UNL     1     -43.043  56.604 -58.279  1.00  0.00     0.050 A 
HETATM   19  C   UNL     1     -43.517  57.629 -59.119  1.00  0.00     0.058 A 
HETATM   20  C   UNL     1     -44.272  57.322 -60.260  1.00  0.00     0.019 A 
HETATM   21  C   UNL     1     -44.582  55.997 -60.560  1.00  0.00     0.001 A 
HETATM   22  C   UNL     1     -44.147  54.979 -59.716  1.00  0.00     0.002 A 
HETATM   23  C   UNL     1     -43.380  55.278 -58.587  1.00  0.00     0.030 A 
BRANCH  19  24
HETATM   24  C   UNL     1     -43.408  59.072 -58.775  1.00  0.00     0.253 C 
HETATM   25  N   UNL     1     -43.297  59.921 -59.859  1.00  0.00    -0.357 N 
HETATM   26  H   UNL     1     -43.284  59.509 -60.785  1.00  0.00     0.162 HD
HETATM   27  O   UNL     1     -43.315  59.428 -57.609  1.00  0.00    -0.268 OA
BRANCH  25  28
HETATM   28  C   UNL     1     -42.838  61.286 -59.710  1.00  0.00     0.125 C 
BRANCH  28  29
HETATM   29  C   UNL     1     -41.322  61.420 -59.717  1.00  0.00     0.046 C 
BRANCH  29  30
HETATM   30  C   UNL     1     -40.792  62.041 -58.434  1.00  0.00     0.165 C 
BRANCH  30  31
HETATM   31  O   UNL     1     -40.910  61.113 -57.364  1.00  0.00    -0.401 OA
HETATM   32  H   UNL     1     -40.065  60.632 -57.306  1.00  0.00     0.209 HD
ENDBRANCH  30  31
ENDBRANCH  29  30
ENDBRANCH  28  29
ENDBRANCH  25  28
ENDBRANCH  19  24
ENDBRANCH   1  18
TORSDOF 11
ENDMDL
MODEL 8
REMARK VINA RESULT:      -6.6      2.713      6.474
REMARK  11 active torsions:
REMARK  status: ('A' for Active; 'I' for Inactive)
REMARK    1  A    between atoms: C_2  and  O_3 
REMARK    2  A    between atoms: O_3  and  C_4 
REMARK    3  A    between atoms: C_5  and  C_6 
REMARK       I    between atoms: C_6  and  N_7 
REMARK    4  A    between atoms: N_7  and  C_8 
REMARK    5  A    between atoms: C_8  and  N_9 
REMARK    6  A    between atoms: N_9  and  C_10 
REMARK    7  A    between atoms: C_11  and  C_12 
REMARK       I    between atoms: C_12  and  N_13 
REMARK    8  A    between atoms: N_13  and  C_14 
REMARK    9  A    between atoms: C_14  and  C_15 
REMARK   10  A    between atoms: C_15  and  C_16 
REMARK   11  A    between atoms: C_16  and  O_17 
ROOT
HETATM    1  N   UNL     1     -41.204  58.586 -53.975  1.00  0.00    -0.332 N 
HETATM    2  H   UNL     1     -41.324  59.337 -54.661  1.00  0.00     0.168 HD
ENDROOT
BRANCH   1   3
HETATM    3  C   UNL     1     -41.630  57.349 -54.382  1.00  0.00     0.179 C 
HETATM    4  S   UNL     1     -42.460  57.004 -55.793  1.00  0.00    -0.040 SA
BRANCH   3   5
HETATM    5  N   UNL     1     -41.367  56.306 -53.525  1.00  0.00    -0.299 N 
HETATM    6  C   UNL     1     -42.189  55.832 -52.505  1.00  0.00     0.260 C 
HETATM    7  O   UNL     1     -43.413  55.890 -52.557  1.00  0.00    -0.267 OA
HETATM    8  H   UNL     1     -40.388  56.058 -53.498  1.00  0.00     0.171 HD
BRANCH   6   9
HETATM    9  C   UNL     1     -41.467  55.210 -51.349  1.00  0.00     0.065 A 
HETATM   10  C   UNL     1     -40.614  54.110 -51.514  1.00  0.00     0.084 A 
HETATM   11  C   UNL     1     -39.930  53.574 -50.416  1.00  0.00     0.038 A 
HETATM   12  C   UNL     1     -40.131  54.091 -49.137  1.00  0.00     0.003 A 
HETATM   13  C   UNL     1     -41.016  55.148 -48.951  1.00  0.00     0.001 A 
HETATM   14  C   UNL     1     -41.684  55.703 -50.048  1.00  0.00     0.020 A 
BRANCH  10  15
HETATM   15  O   UNL     1     -40.358  53.565 -52.743  1.00  0.00    -0.350 OA
BRANCH  15  16
HETATM   16  C   UNL     1     -40.017  52.175 -52.625  1.00  0.00     0.171 C 
HETATM   17  C   UNL     1     -39.998  51.554 -54.012  1.00  0.00     0.034 C 
ENDBRANCH  15  16
ENDBRANCH  10  15
ENDBRANCH   6   9
ENDBRANCH   3   5
ENDBRANCH   1   3
BRANCH   1  18
HETATM   18  C   UNL     1     -40.713  58.985 -52.710  1.00  0.00     0.050 A 
HETATM   19  C   UNL     1     -41.597  59.246 -51.647  1.00  0.00     0.058 A 
HETATM   20  C   UNL     1     -41.109  59.451 -50.349  1.00  0.00     0.019 A 
HETATM   21  C   UNL     1     -39.738  59.422 -50.103  1.00  0.00     0.001 A 
HETATM   22  C   UNL     1     -38.853  59.199 -51.155  1.00  0.00     0.002 A 
HETATM   23  C   UNL     1     -39.336  58.977 -52.447  1.00  0.00     0.030 A 
BRANCH  19  24
HETATM   24  C   UNL     1     -43.051  59.493 -51.846  1.00  0.00     0.253 C 
HETATM   25  N   UNL     1     -43.884  58.735 -51.046  1.00  0.00    -0.357 N 
HETATM   26  H   UNL     1     -43.456  58.073 -50.409  1.00  0.00     0.162 HD
HETATM   27  O   UNL     1     -43.440  60.236 -52.736  1.00  0.00    -0.268 OA
BRANCH  25  28
HETATM   28  C   UNL     1     -45.293  58.587 -51.342  1.00  0.00     0.125 C 
BRANCH  28  29
HETATM   29  C   UNL     1     -46.117  59.819 -51.000  1.00  0.00     0.046 C 
BRANCH  29  30
HETATM   30  C   UNL     1     -45.757  60.394 -49.638  1.00  0.00     0.165 C 
BRANCH  30  31
HETATM   31  O   UNL     1     -45.870  59.385 -48.643  1.00  0.00    -0.401 OA
HETATM   32  H   UNL     1     -46.442  58.685 -49.006  1.00  0.00     0.209 HD
ENDBRANCH  30  31
ENDBRANCH  29  30
ENDBRANCH  28  29
ENDBRANCH  25  28
ENDBRANCH  19  24
ENDBRANCH   1  18
TORSDOF 11
ENDMDL
MODEL 9
REMARK VINA RESULT:      -6.5      2.535      6.533
REMARK  11 active torsions:
REMARK  status: ('A' for Active; 'I' for Inactive)
REMARK    1  A    between atoms: C_2  and  O_3 
REMARK    2  A    between atoms: O_3  and  C_4 
REMARK    3  A    between atoms: C_5  and  C_6 
REMARK       I    between atoms: C_6  and  N_7 
REMARK    4  A    between atoms: N_7  and  C_8 
REMARK    5  A    between atoms: C_8  and  N_9 
REMARK    6  A    between atoms: N_9  and  C_10 
REMARK    7  A    between atoms: C_11  and  C_12 
REMARK       I    between atoms: C_12  and  N_13 
REMARK    8  A    between atoms: N_13  and  C_14 
REMARK    9  A    between atoms: C_14  and  C_15 
REMARK   10  A    between atoms: C_15  and  C_16 
REMARK   11  A    between atoms: C_16  and  O_17 
ROOT
HETATM    1  N   UNL     1     -41.386  56.733 -53.609  1.00  0.00    -0.332 N 
HETATM    2  H   UNL     1     -40.976  56.929 -54.527  1.00  0.00     0.168 HD
ENDROOT
BRANCH   1   3
HETATM    3  C   UNL     1     -41.970  55.500 -53.481  1.00  0.00     0.179 C 
HETATM    4  S   UNL     1     -43.593  55.149 -53.690  1.00  0.00    -0.040 SA
BRANCH   3   5
HETATM    5  N   UNL     1     -41.135  54.469 -53.121  1.00  0.00    -0.299 N 
HETATM    6  C   UNL     1     -40.361  53.682 -53.971  1.00  0.00     0.260 C 
HETATM    7  O   UNL     1     -39.898  54.101 -55.026  1.00  0.00    -0.267 OA
HETATM    8  H   UNL     1     -41.322  54.119 -52.192  1.00  0.00     0.171 HD
BRANCH   6   9
HETATM    9  C   UNL     1     -40.102  52.289 -53.481  1.00  0.00     0.065 A 
HETATM   10  C   UNL     1     -39.705  52.030 -52.162  1.00  0.00     0.084 A 
HETATM   11  C   UNL     1     -39.502  50.713 -51.730  1.00  0.00     0.038 A 
HETATM   12  C   UNL     1     -39.638  49.649 -52.619  1.00  0.00     0.003 A 
HETATM   13  C   UNL     1     -39.978  49.897 -53.946  1.00  0.00     0.001 A 
HETATM   14  C   UNL     1     -40.205  51.207 -54.376  1.00  0.00     0.020 A 
BRANCH  10  15
HETATM   15  O   UNL     1     -39.570  53.026 -51.233  1.00  0.00    -0.350 OA
BRANCH  15  16
HETATM   16  C   UNL     1     -40.423  52.790 -50.102  1.00  0.00     0.171 C 
HETATM   17  C   UNL     1     -40.374  54.003 -49.188  1.00  0.00     0.034 C 
ENDBRANCH  15  16
ENDBRANCH  10  15
ENDBRANCH   6   9
ENDBRANCH   3   5
ENDBRANCH   1   3
BRANCH   1  18
HETATM   18  C   UNL     1     -41.358  57.803 -52.684  1.00  0.00     0.050 A 
HETATM   19  C   UNL     1     -41.966  59.034 -52.991  1.00  0.00     0.058 A 
HETATM   20  C   UNL     1     -42.108  60.023 -52.007  1.00  0.00     0.019 A 
HETATM   21  C   UNL     1     -41.624  59.805 -50.720  1.00  0.00     0.001 A 
HETATM   22  C   UNL     1     -40.989  58.603 -50.416  1.00  0.00     0.002 A 
HETATM   23  C   UNL     1     -40.861  57.608 -51.387  1.00  0.00     0.030 A 
BRANCH  19  24
HETATM   24  C   UNL     1     -42.332  59.432 -54.377  1.00  0.00     0.253 C 
HETATM   25  N   UNL     1     -43.671  59.299 -54.687  1.00  0.00    -0.357 N 
HETATM   26  H   UNL     1     -44.290  58.936 -53.970  1.00  0.00     0.162 HD
HETATM   27  O   UNL     1     -41.466  59.742 -55.184  1.00  0.00    -0.268 OA
BRANCH  25  28
HETATM   28  C   UNL     1     -44.138  59.302 -56.057  1.00  0.00     0.125 C 
BRANCH  28  29
HETATM   29  C   UNL     1     -44.544  57.926 -56.562  1.00  0.00     0.046 C 
BRANCH  29  30
HETATM   30  C   UNL     1     -43.342  57.062 -56.912  1.00  0.00     0.165 C 
BRANCH  30  31
HETATM   31  O   UNL     1     -43.778  55.853 -57.521  1.00  0.00    -0.401 OA
HETATM   32  H   UNL     1     -43.227  55.714 -58.311  1.00  0.00     0.209 HD
ENDBRANCH  30  31
ENDBRANCH  29  30
ENDBRANCH  28  29
ENDBRANCH  25  28
ENDBRANCH  19  24
ENDBRANCH   1  18
TORSDOF 11
ENDMDL
MODEL 10
REMARK VINA RESULT:      -6.5      2.554      6.358
REMARK  11 active torsions:
REMARK  status: ('A' for Active; 'I' for Inactive)
REMARK    1  A    between atoms: C_2  and  O_3 
REMARK    2  A    between atoms: O_3  and  C_4 
REMARK    3  A    between atoms: C_5  and  C_6 
REMARK       I    between atoms: C_6  and  N_7 
REMARK    4  A    between atoms: N_7  and  C_8 
REMARK    5  A    between atoms: C_8  and  N_9 
REMARK    6  A    between atoms: N_9  and  C_10 
REMARK    7  A    between atoms: C_11  and  C_12 
REMARK       I    between atoms: C_12  and  N_13 
REMARK    8  A    between atoms: N_13  and  C_14 
REMARK    9  A    between atoms: C_14  and  C_15 
REMARK   10  A    between atoms: C_15  and  C_16 
REMARK   11  A    between atoms: C_16  and  O_17 
ROOT
HETATM    1  N   UNL     1     -41.631  57.846 -53.459  1.00  0.00    -0.332 N 
HETATM    2  H   UNL     1     -40.892  58.044 -54.140  1.00  0.00     0.168 HD
ENDROOT
BRANCH   1   3
HETATM    3  C   UNL     1     -41.339  56.864 -52.549  1.00  0.00     0.179 C 
HETATM    4  S   UNL     1     -41.466  56.988 -50.886  1.00  0.00    -0.040 SA
BRANCH   3   5
HETATM    5  N   UNL     1     -40.872  55.678 -53.067  1.00  0.00    -0.299 N 
HETATM    6  C   UNL     1     -41.631  54.569 -53.436  1.00  0.00     0.260 C 
HETATM    7  O   UNL     1     -42.779  54.660 -53.854  1.00  0.00    -0.267 OA
HETATM    8  H   UNL     1     -39.883  55.544 -52.911  1.00  0.00     0.171 HD
BRANCH   6   9
HETATM    9  C   UNL     1     -40.924  53.253 -53.317  1.00  0.00     0.065 A 
HETATM   10  C   UNL     1     -40.150  52.926 -52.196  1.00  0.00     0.084 A 
HETATM   11  C   UNL     1     -39.529  51.674 -52.104  1.00  0.00     0.038 A 
HETATM   12  C   UNL     1     -39.627  50.760 -53.151  1.00  0.00     0.003 A 
HETATM   13  C   UNL     1     -40.347  51.093 -54.294  1.00  0.00     0.001 A 
HETATM   14  C   UNL     1     -40.989  52.332 -54.380  1.00  0.00     0.020 A 
BRANCH  10  15
HETATM   15  O   UNL     1     -40.027  53.770 -51.125  1.00  0.00    -0.350 OA
BRANCH  15  16
HETATM   16  C   UNL     1     -40.486  53.140 -49.919  1.00  0.00     0.171 C 
HETATM   17  C   UNL     1     -40.230  54.073 -48.748  1.00  0.00     0.034 C 
ENDBRANCH  15  16
ENDBRANCH  10  15
ENDBRANCH   6   9
ENDBRANCH   3   5
ENDBRANCH   1   3
BRANCH   1  18
HETATM   18  C   UNL     1     -42.842  58.552 -53.646  1.00  0.00     0.050 A 
HETATM   19  C   UNL     1     -43.618  58.352 -54.802  1.00  0.00     0.058 A 
HETATM   20  C   UNL     1     -44.906  58.900 -54.899  1.00  0.00     0.019 A 
HETATM   21  C   UNL     1     -45.419  59.670 -53.859  1.00  0.00     0.001 A 
HETATM   22  C   UNL     1     -44.644  59.904 -52.725  1.00  0.00     0.002 A 
HETATM   23  C   UNL     1     -43.368  59.346 -52.616  1.00  0.00     0.030 A 
BRANCH  19  24
HETATM   24  C   UNL     1     -43.084  57.716 -56.036  1.00  0.00     0.253 C 
HETATM   25  N   UNL     1     -43.580  56.455 -56.303  1.00  0.00    -0.357 N 
HETATM   26  H   UNL     1     -44.245  56.058 -55.648  1.00  0.00     0.162 HD
HETATM   27  O   UNL     1     -42.191  58.254 -56.677  1.00  0.00    -0.268 OA
BRANCH  25  28
HETATM   28  C   UNL     1     -42.928  55.565 -57.240  1.00  0.00     0.125 C 
BRANCH  28  29
HETATM   29  C   UNL     1     -43.590  55.534 -58.609  1.00  0.00     0.046 C 
BRANCH  29  30
HETATM   30  C   UNL     1     -42.725  56.177 -59.682  1.00  0.00     0.165 C 
BRANCH  30  31
HETATM   31  O   UNL     1     -41.727  56.989 -59.076  1.00  0.00    -0.401 OA
HETATM   32  H   UNL     1     -41.533  56.603 -58.204  1.00  0.00     0.209 HD
ENDBRANCH  30  31
ENDBRANCH  29  30
ENDBRANCH  28  29
ENDBRANCH  25  28
ENDBRANCH  19  24
ENDBRANCH   1  18
TORSDOF 11
ENDMDL
