MODEL 1
REMARK VINA RESULT:      -8.8      0.000      0.000
REMARK  11 active torsions:
REMARK  status: ('A' for Active; 'I' for Inactive)
REMARK    1  A    between atoms: O_2  and  C_3 
REMARK    2  A    between atoms: C_6  and  C_7 
REMARK    3  A    between atoms: C_7  and  C_8 
REMARK    4  A    between atoms: C_8  and  N_9 
REMARK    5  A    between atoms: C_13  and  C_14 
REMARK    6  A    between atoms: C_14  and  C_15 
REMARK    7  A    between atoms: C_25  and  N_26 
REMARK    8  A    between atoms: N_26  and  C_27 
REMARK    9  A    between atoms: C_27  and  C_28 
REMARK   10  A    between atoms: C_28  and  O_29 
REMARK   11  A    between atoms: C_28  and  C_30 
ROOT
HETATM    1  C   UNL     1     -42.775  57.671 -57.232  1.00  0.00     0.074 A 
HETATM    2  C   UNL     1     -43.585  57.968 -58.447  1.00  0.00     0.266 A 
HETATM    3  O   UNL     1     -43.761  59.138 -58.797  1.00  0.00    -0.267 OA
HETATM    4  N   UNL     1     -44.092  56.869 -59.122  1.00  0.00    -0.273 N 
HETATM    5  C   UNL     1     -43.780  55.595 -58.682  1.00  0.00     0.138 A 
HETATM    6  N   UNL     1     -43.034  55.338 -57.655  1.00  0.00    -0.218 NA
HETATM    7  C   UNL     1     -44.899  57.062 -60.239  1.00  0.00     0.102 A 
HETATM    8  C   UNL     1     -45.406  56.033 -60.928  1.00  0.00     0.018 A 
HETATM    9  C   UNL     1     -45.117  54.684 -60.520  1.00  0.00     0.005 A 
HETATM   10  C   UNL     1     -44.341  54.452 -59.455  1.00  0.00     0.051 A 
HETATM   11  C   UNL     1     -42.532  56.377 -56.921  1.00  0.00     0.121 A 
ENDROOT
BRANCH   1  12
HETATM   12  C   UNL     1     -42.369  58.770 -56.369  1.00  0.00     0.045 C 
BRANCH  12  13
HETATM   13  C   UNL     1     -43.054  59.194 -55.301  1.00  0.00     0.077 C 
HETATM   14  S   UNL     1     -44.465  60.175 -55.283  1.00  0.00    -0.055 SA
HETATM   15  C   UNL     1     -44.667  60.011 -53.546  1.00  0.00     0.148 C 
HETATM   16  N   UNL     1     -43.681  59.191 -53.037  1.00  0.00    -0.298 N 
HETATM   17  S   UNL     1     -45.905  60.766 -52.720  1.00  0.00    -0.052 SA
HETATM   18  C   UNL     1     -42.700  58.777 -53.920  1.00  0.00     0.266 C 
HETATM   19  O   UNL     1     -41.688  58.151 -53.633  1.00  0.00    -0.266 OA
BRANCH  16  20
HETATM   20  C   UNL     1     -43.651  58.685 -51.669  1.00  0.00     0.138 C 
BRANCH  20  21
HETATM   21  C   UNL     1     -44.352  57.337 -51.490  1.00  0.00     0.059 C 
BRANCH  21  22
HETATM   22  C   UNL     1     -43.371  56.321 -50.954  1.00  0.00    -0.057 A 
HETATM   23  C   UNL     1     -43.706  54.962 -50.889  1.00  0.00     0.010 A 
HETATM   24  C   UNL     1     -42.824  54.036 -50.319  1.00  0.00     0.037 A 
HETATM   25  C   UNL     1     -41.600  54.459 -49.800  1.00  0.00     0.068 A 
HETATM   26  C   UNL     1     -41.267  55.813 -49.857  1.00  0.00     0.037 A 
HETATM   27  C   UNL     1     -42.140  56.739 -50.433  1.00  0.00     0.010 A 
BRANCH  25  28
HETATM   28  O   UNL     1     -40.660  53.664 -49.206  1.00  0.00    -0.356 OA
HETATM   29  C   UNL     1     -40.273  54.009 -47.882  1.00  0.00     0.210 C 
ENDBRANCH  25  28
ENDBRANCH  21  22
ENDBRANCH  20  21
ENDBRANCH  16  20
ENDBRANCH  12  13
ENDBRANCH   1  12
BRANCH  11  30
HETATM   30  N   UNL     1     -41.794  56.026 -55.794  1.00  0.00    -0.274 NA
HETATM   31  H   UNL     1     -42.329  56.352 -54.985  1.00  0.00     0.129 HD
BRANCH  30  32
HETATM   32  C   UNL     1     -41.454  54.614 -55.537  1.00  0.00     0.130 C 
BRANCH  32  33
HETATM   33  C   UNL     1     -41.419  54.297 -54.027  1.00  0.00     0.164 C 
BRANCH  33  34
HETATM   34  O   UNL     1     -40.790  55.368 -53.310  1.00  0.00    -0.390 OA
HETATM   35  H   UNL     1     -39.835  55.180 -53.304  1.00  0.00     0.210 HD
ENDBRANCH  33  34
BRANCH  33  36
HETATM   36  C   UNL     1     -40.777  52.962 -53.696  1.00  0.00    -0.029 A 
HETATM   37  C   UNL     1     -40.108  52.791 -52.475  1.00  0.00     0.010 A 
HETATM   38  C   UNL     1     -39.503  51.574 -52.161  1.00  0.00     0.001 A 
HETATM   39  C   UNL     1     -39.555  50.514 -53.063  1.00  0.00     0.000 A 
HETATM   40  C   UNL     1     -40.232  50.662 -54.272  1.00  0.00     0.001 A 
HETATM   41  C   UNL     1     -40.846  51.876 -54.583  1.00  0.00     0.010 A 
ENDBRANCH  33  36
ENDBRANCH  32  33
ENDBRANCH  30  32
ENDBRANCH  11  30
TORSDOF 11
ENDMDL
MODEL 2
REMARK VINA RESULT:      -8.2      2.930      6.241
REMARK  11 active torsions:
REMARK  status: ('A' for Active; 'I' for Inactive)
REMARK    1  A    between atoms: O_2  and  C_3 
REMARK    2  A    between atoms: C_6  and  C_7 
REMARK    3  A    between atoms: C_7  and  C_8 
REMARK    4  A    between atoms: C_8  and  N_9 
REMARK    5  A    between atoms: C_13  and  C_14 
REMARK    6  A    between atoms: C_14  and  C_15 
REMARK    7  A    between atoms: C_25  and  N_26 
REMARK    8  A    between atoms: N_26  and  C_27 
REMARK    9  A    between atoms: C_27  and  C_28 
REMARK   10  A    between atoms: C_28  and  O_29 
REMARK   11  A    between atoms: C_28  and  C_30 
ROOT
HETATM    1  C   UNL     1     -43.281  57.697 -57.119  1.00  0.00     0.074 A 
HETATM    2  C   UNL     1     -43.334  56.269 -57.541  1.00  0.00     0.266 A 
HETATM    3  O   UNL     1     -42.806  55.401 -56.841  1.00  0.00    -0.267 OA
HETATM    4  N   UNL     1     -44.005  56.011 -58.727  1.00  0.00    -0.273 N 
HETATM    5  C   UNL     1     -44.620  57.051 -59.401  1.00  0.00     0.138 A 
HETATM    6  N   UNL     1     -44.615  58.284 -59.006  1.00  0.00    -0.218 NA
HETATM    7  C   UNL     1     -44.059  54.711 -59.216  1.00  0.00     0.102 A 
HETATM    8  C   UNL     1     -44.701  54.411 -60.351  1.00  0.00     0.018 A 
HETATM    9  C   UNL     1     -45.362  55.448 -61.098  1.00  0.00     0.005 A 
HETATM   10  C   UNL     1     -45.338  56.713 -60.662  1.00  0.00     0.051 A 
HETATM   11  C   UNL     1     -43.939  58.614 -57.864  1.00  0.00     0.121 A 
ENDROOT
BRANCH   1  12
HETATM   12  C   UNL     1     -42.438  58.068 -55.991  1.00  0.00     0.045 C 
BRANCH  12  13
HETATM   13  C   UNL     1     -42.796  57.966 -54.706  1.00  0.00     0.077 C 
HETATM   14  S   UNL     1     -44.245  58.529 -53.974  1.00  0.00    -0.055 SA
HETATM   15  C   UNL     1     -43.857  57.794 -52.427  1.00  0.00     0.148 C 
HETATM   16  N   UNL     1     -42.660  57.115 -52.520  1.00  0.00    -0.298 N 
HETATM   17  S   UNL     1     -44.855  57.941 -51.098  1.00  0.00    -0.052 SA
HETATM   18  C   UNL     1     -41.966  57.240 -53.711  1.00  0.00     0.266 C 
HETATM   19  O   UNL     1     -40.841  56.815 -53.939  1.00  0.00    -0.266 OA
BRANCH  16  20
HETATM   20  C   UNL     1     -42.125  56.234 -51.487  1.00  0.00     0.138 C 
BRANCH  20  21
HETATM   21  C   UNL     1     -42.718  54.824 -51.506  1.00  0.00     0.059 C 
BRANCH  21  22
HETATM   22  C   UNL     1     -41.749  53.874 -52.169  1.00  0.00    -0.057 A 
HETATM   23  C   UNL     1     -41.873  53.553 -53.527  1.00  0.00     0.010 A 
HETATM   24  C   UNL     1     -41.021  52.612 -54.118  1.00  0.00     0.037 A 
HETATM   25  C   UNL     1     -40.040  51.977 -53.356  1.00  0.00     0.068 A 
HETATM   26  C   UNL     1     -39.919  52.290 -52.002  1.00  0.00     0.037 A 
HETATM   27  C   UNL     1     -40.761  53.234 -51.411  1.00  0.00     0.010 A 
BRANCH  25  28
HETATM   28  O   UNL     1     -39.158  51.032 -53.805  1.00  0.00    -0.356 OA
HETATM   29  C   UNL     1     -39.712  49.897 -54.458  1.00  0.00     0.210 C 
ENDBRANCH  25  28
ENDBRANCH  21  22
ENDBRANCH  20  21
ENDBRANCH  16  20
ENDBRANCH  12  13
ENDBRANCH   1  12
BRANCH  11  30
HETATM   30  N   UNL     1     -43.921  59.967 -57.536  1.00  0.00    -0.274 NA
HETATM   31  H   UNL     1     -43.449  60.039 -56.630  1.00  0.00     0.129 HD
BRANCH  30  32
HETATM   32  C   UNL     1     -43.269  60.941 -58.432  1.00  0.00     0.130 C 
BRANCH  32  33
HETATM   33  C   UNL     1     -41.730  60.865 -58.341  1.00  0.00     0.164 C 
BRANCH  33  34
HETATM   34  O   UNL     1     -41.294  61.197 -57.016  1.00  0.00    -0.390 OA
HETATM   35  H   UNL     1     -41.097  60.357 -56.565  1.00  0.00     0.210 HD
ENDBRANCH  33  34
BRANCH  33  36
HETATM   36  C   UNL     1     -41.013  61.704 -59.383  1.00  0.00    -0.029 A 
HETATM   37  C   UNL     1     -41.400  61.630 -60.729  1.00  0.00     0.010 A 
HETATM   38  C   UNL     1     -40.743  62.386 -61.700  1.00  0.00     0.001 A 
HETATM   39  C   UNL     1     -39.690  63.223 -61.340  1.00  0.00     0.000 A 
HETATM   40  C   UNL     1     -39.307  63.323 -60.004  1.00  0.00     0.001 A 
HETATM   41  C   UNL     1     -39.970  62.574 -59.030  1.00  0.00     0.010 A 
ENDBRANCH  33  36
ENDBRANCH  32  33
ENDBRANCH  30  32
ENDBRANCH  11  30
TORSDOF 11
ENDMDL
MODEL 3
REMARK VINA RESULT:      -8.1      3.007      7.044
REMARK  11 active torsions:
REMARK  status: ('A' for Active; 'I' for Inactive)
REMARK    1  A    between atoms: O_2  and  C_3 
REMARK    2  A    between atoms: C_6  and  C_7 
REMARK    3  A    between atoms: C_7  and  C_8 
REMARK    4  A    between atoms: C_8  and  N_9 
REMARK    5  A    between atoms: C_13  and  C_14 
REMARK    6  A    between atoms: C_14  and  C_15 
REMARK    7  A    between atoms: C_25  and  N_26 
REMARK    8  A    between atoms: N_26  and  C_27 
REMARK    9  A    between atoms: C_27  and  C_28 
REMARK   10  A    between atoms: C_28  and  O_29 
REMARK   11  A    between atoms: C_28  and  C_30 
ROOT
HETATM    1  C   UNL     1     -40.682  54.584 -53.251  1.00  0.00     0.074 A 
HETATM    2  C   UNL     1     -40.340  53.667 -52.127  1.00  0.00     0.266 A 
HETATM    3  O   UNL     1     -40.278  54.104 -50.975  1.00  0.00    -0.267 OA
HETATM    4  N   UNL     1     -40.119  52.343 -52.470  1.00  0.00    -0.273 N 
HETATM    5  C   UNL     1     -40.280  51.944 -53.785  1.00  0.00     0.138 A 
HETATM    6  N   UNL     1     -40.625  52.732 -54.752  1.00  0.00    -0.218 NA
HETATM    7  C   UNL     1     -39.748  51.432 -51.487  1.00  0.00     0.102 A 
HETATM    8  C   UNL     1     -39.530  50.141 -51.768  1.00  0.00     0.018 A 
HETATM    9  C   UNL     1     -39.683  49.665 -53.116  1.00  0.00     0.005 A 
HETATM   10  C   UNL     1     -40.042  50.506 -54.093  1.00  0.00     0.051 A 
HETATM   11  C   UNL     1     -40.823  54.060 -54.489  1.00  0.00     0.121 A 
ENDROOT
BRANCH   1  12
HETATM   12  C   UNL     1     -40.743  56.017 -52.998  1.00  0.00     0.045 C 
BRANCH  12  13
HETATM   13  C   UNL     1     -41.865  56.699 -52.744  1.00  0.00     0.077 C 
HETATM   14  S   UNL     1     -43.168  56.231 -51.725  1.00  0.00    -0.055 SA
HETATM   15  C   UNL     1     -43.986  57.774 -51.910  1.00  0.00     0.148 C 
HETATM   16  N   UNL     1     -43.232  58.610 -52.707  1.00  0.00    -0.298 N 
HETATM   17  S   UNL     1     -45.453  58.095 -51.181  1.00  0.00    -0.052 SA
HETATM   18  C   UNL     1     -42.100  58.062 -53.284  1.00  0.00     0.266 C 
HETATM   19  O   UNL     1     -41.376  58.605 -54.109  1.00  0.00    -0.266 OA
BRANCH  16  20
HETATM   20  C   UNL     1     -43.512  60.026 -52.919  1.00  0.00     0.138 C 
BRANCH  20  21
HETATM   21  C   UNL     1     -42.909  60.944 -51.854  1.00  0.00     0.059 C 
BRANCH  21  22
HETATM   22  C   UNL     1     -43.975  61.338 -50.859  1.00  0.00    -0.057 A 
HETATM   23  C   UNL     1     -43.790  61.129 -49.487  1.00  0.00     0.010 A 
HETATM   24  C   UNL     1     -44.813  61.424 -48.576  1.00  0.00     0.037 A 
HETATM   25  C   UNL     1     -46.033  61.924 -49.029  1.00  0.00     0.068 A 
HETATM   26  C   UNL     1     -46.222  62.127 -50.397  1.00  0.00     0.037 A 
HETATM   27  C   UNL     1     -45.202  61.843 -51.307  1.00  0.00     0.010 A 
BRANCH  25  28
HETATM   28  O   UNL     1     -47.114  62.237 -48.251  1.00  0.00    -0.356 OA
HETATM   29  C   UNL     1     -46.875  62.403 -46.860  1.00  0.00     0.210 C 
ENDBRANCH  25  28
ENDBRANCH  21  22
ENDBRANCH  20  21
ENDBRANCH  16  20
ENDBRANCH  12  13
ENDBRANCH   1  12
BRANCH  11  30
HETATM   30  N   UNL     1     -41.128  54.860 -55.587  1.00  0.00    -0.274 NA
HETATM   31  H   UNL     1     -40.560  54.513 -56.365  1.00  0.00     0.129 HD
BRANCH  30  32
HETATM   32  C   UNL     1     -42.515  54.947 -56.083  1.00  0.00     0.130 C 
BRANCH  32  33
HETATM   33  C   UNL     1     -42.953  56.409 -56.311  1.00  0.00     0.164 C 
BRANCH  33  34
HETATM   34  O   UNL     1     -44.324  56.583 -55.925  1.00  0.00    -0.390 OA
HETATM   35  H   UNL     1     -44.715  57.214 -56.554  1.00  0.00     0.210 HD
ENDBRANCH  33  34
BRANCH  33  36
HETATM   36  C   UNL     1     -42.712  56.907 -57.724  1.00  0.00    -0.029 A 
HETATM   37  C   UNL     1     -42.238  58.210 -57.936  1.00  0.00     0.010 A 
HETATM   38  C   UNL     1     -42.022  58.686 -59.230  1.00  0.00     0.001 A 
HETATM   39  C   UNL     1     -42.282  57.869 -60.327  1.00  0.00     0.000 A 
HETATM   40  C   UNL     1     -42.734  56.565 -60.133  1.00  0.00     0.001 A 
HETATM   41  C   UNL     1     -42.941  56.085 -58.839  1.00  0.00     0.010 A 
ENDBRANCH  33  36
ENDBRANCH  32  33
ENDBRANCH  30  32
ENDBRANCH  11  30
TORSDOF 11
ENDMDL
MODEL 4
REMARK VINA RESULT:      -7.7      3.366      4.569
REMARK  11 active torsions:
REMARK  status: ('A' for Active; 'I' for Inactive)
REMARK    1  A    between atoms: O_2  and  C_3 
REMARK    2  A    between atoms: C_6  and  C_7 
REMARK    3  A    between atoms: C_7  and  C_8 
REMARK    4  A    between atoms: C_8  and  N_9 
REMARK    5  A    between atoms: C_13  and  C_14 
REMARK    6  A    between atoms: C_14  and  C_15 
REMARK    7  A    between atoms: C_25  and  N_26 
REMARK    8  A    between atoms: N_26  and  C_27 
REMARK    9  A    between atoms: C_27  and  C_28 
REMARK   10  A    between atoms: C_28  and  O_29 
REMARK   11  A    between atoms: C_28  and  C_30 
ROOT
HETATM    1  C   UNL     1     -42.470  57.190 -55.660  1.00  0.00     0.074 A 
HETATM    2  C   UNL     1     -42.486  58.018 -56.899  1.00  0.00     0.266 A 
HETATM    3  O   UNL     1     -42.125  59.197 -56.855  1.00  0.00    -0.267 OA
HETATM    4  N   UNL     1     -42.910  57.376 -58.052  1.00  0.00    -0.273 N 
HETATM    5  C   UNL     1     -43.228  56.031 -58.005  1.00  0.00     0.138 A 
HETATM    6  N   UNL     1     -43.167  55.301 -56.937  1.00  0.00    -0.218 NA
HETATM    7  C   UNL     1     -42.999  58.091 -59.242  1.00  0.00     0.102 A 
HETATM    8  C   UNL     1     -43.396  57.513 -60.383  1.00  0.00     0.018 A 
HETATM    9  C   UNL     1     -43.740  56.117 -60.398  1.00  0.00     0.005 A 
HETATM   10  C   UNL     1     -43.665  55.390 -59.277  1.00  0.00     0.051 A 
HETATM   11  C   UNL     1     -42.792  55.880 -55.756  1.00  0.00     0.121 A 
ENDROOT
BRANCH   1  12
HETATM   12  C   UNL     1     -42.219  57.840 -54.382  1.00  0.00     0.045 C 
BRANCH  12  13
HETATM   13  C   UNL     1     -43.067  58.675 -53.770  1.00  0.00     0.077 C 
HETATM   14  S   UNL     1     -44.771  58.510 -53.617  1.00  0.00    -0.055 SA
HETATM   15  C   UNL     1     -44.904  59.914 -52.570  1.00  0.00     0.148 C 
HETATM   16  N   UNL     1     -43.651  60.444 -52.339  1.00  0.00    -0.298 N 
HETATM   17  S   UNL     1     -46.371  60.447 -51.981  1.00  0.00    -0.052 SA
HETATM   18  C   UNL     1     -42.600  59.879 -53.039  1.00  0.00     0.266 C 
HETATM   19  O   UNL     1     -41.445  60.286 -53.058  1.00  0.00    -0.266 OA
BRANCH  16  20
HETATM   20  C   UNL     1     -43.364  61.495 -51.369  1.00  0.00     0.138 C 
BRANCH  20  21
HETATM   21  C   UNL     1     -43.305  61.004 -49.921  1.00  0.00     0.059 C 
BRANCH  21  22
HETATM   22  C   UNL     1     -44.218  61.845 -49.061  1.00  0.00    -0.057 A 
HETATM   23  C   UNL     1     -45.045  61.253 -48.099  1.00  0.00     0.010 A 
HETATM   24  C   UNL     1     -45.947  62.028 -47.359  1.00  0.00     0.037 A 
HETATM   25  C   UNL     1     -46.036  63.403 -47.578  1.00  0.00     0.068 A 
HETATM   26  C   UNL     1     -45.217  63.995 -48.541  1.00  0.00     0.037 A 
HETATM   27  C   UNL     1     -44.311  63.226 -49.275  1.00  0.00     0.010 A 
BRANCH  25  28
HETATM   28  O   UNL     1     -46.881  64.268 -46.938  1.00  0.00    -0.356 OA
HETATM   29  C   UNL     1     -47.496  63.798 -45.746  1.00  0.00     0.210 C 
ENDBRANCH  25  28
ENDBRANCH  21  22
ENDBRANCH  20  21
ENDBRANCH  16  20
ENDBRANCH  12  13
ENDBRANCH   1  12
BRANCH  11  30
HETATM   30  N   UNL     1     -42.811  55.052 -54.638  1.00  0.00    -0.274 NA
HETATM   31  H   UNL     1     -43.794  54.948 -54.371  1.00  0.00     0.129 HD
BRANCH  30  32
HETATM   32  C   UNL     1     -42.245  53.691 -54.710  1.00  0.00     0.130 C 
BRANCH  32  33
HETATM   33  C   UNL     1     -40.764  53.661 -54.278  1.00  0.00     0.164 C 
BRANCH  33  34
HETATM   34  O   UNL     1     -39.920  54.047 -55.372  1.00  0.00    -0.390 OA
HETATM   35  H   UNL     1     -40.476  54.042 -56.171  1.00  0.00     0.210 HD
ENDBRANCH  33  34
BRANCH  33  36
HETATM   36  C   UNL     1     -40.325  52.334 -53.686  1.00  0.00    -0.029 A 
HETATM   37  C   UNL     1     -39.952  52.260 -52.335  1.00  0.00     0.010 A 
HETATM   38  C   UNL     1     -39.535  51.050 -51.779  1.00  0.00     0.001 A 
HETATM   39  C   UNL     1     -39.482  49.901 -52.565  1.00  0.00     0.000 A 
HETATM   40  C   UNL     1     -39.869  49.955 -53.903  1.00  0.00     0.001 A 
HETATM   41  C   UNL     1     -40.294  51.163 -54.458  1.00  0.00     0.010 A 
ENDBRANCH  33  36
ENDBRANCH  32  33
ENDBRANCH  30  32
ENDBRANCH  11  30
TORSDOF 11
ENDMDL
MODEL 5
REMARK VINA RESULT:      -7.7      2.618      7.613
REMARK  11 active torsions:
REMARK  status: ('A' for Active; 'I' for Inactive)
REMARK    1  A    between atoms: O_2  and  C_3 
REMARK    2  A    between atoms: C_6  and  C_7 
REMARK    3  A    between atoms: C_7  and  C_8 
REMARK    4  A    between atoms: C_8  and  N_9 
REMARK    5  A    between atoms: C_13  and  C_14 
REMARK    6  A    between atoms: C_14  and  C_15 
REMARK    7  A    between atoms: C_25  and  N_26 
REMARK    8  A    between atoms: N_26  and  C_27 
REMARK    9  A    between atoms: C_27  and  C_28 
REMARK   10  A    between atoms: C_28  and  O_29 
REMARK   11  A    between atoms: C_28  and  C_30 
ROOT
HETATM    1  C   UNL     1     -42.625  54.480 -52.079  1.00  0.00     0.074 A 
HETATM    2  C   UNL     1     -41.612  53.617 -51.408  1.00  0.00     0.266 A 
HETATM    3  O   UNL     1     -41.457  53.688 -50.186  1.00  0.00    -0.267 OA
HETATM    4  N   UNL     1     -40.900  52.761 -52.234  1.00  0.00    -0.273 N 
HETATM    5  C   UNL     1     -41.200  52.713 -53.584  1.00  0.00     0.138 A 
HETATM    6  N   UNL     1     -42.114  53.428 -54.157  1.00  0.00    -0.218 NA
HETATM    7  C   UNL     1     -39.903  51.957 -51.694  1.00  0.00     0.102 A 
HETATM    8  C   UNL     1     -39.194  51.110 -52.449  1.00  0.00     0.018 A 
HETATM    9  C   UNL     1     -39.458  51.013 -53.860  1.00  0.00     0.005 A 
HETATM   10  C   UNL     1     -40.412  51.766 -54.421  1.00  0.00     0.051 A 
HETATM   11  C   UNL     1     -42.829  54.321 -53.406  1.00  0.00     0.121 A 
ENDROOT
BRANCH   1  12
HETATM   12  C   UNL     1     -43.275  55.531 -51.310  1.00  0.00     0.045 C 
BRANCH  12  13
HETATM   13  C   UNL     1     -42.778  56.760 -51.126  1.00  0.00     0.077 C 
HETATM   14  S   UNL     1     -41.261  57.184 -50.440  1.00  0.00    -0.055 SA
HETATM   15  C   UNL     1     -41.473  58.890 -50.798  1.00  0.00     0.148 C 
HETATM   16  N   UNL     1     -42.669  59.083 -51.457  1.00  0.00    -0.298 N 
HETATM   17  S   UNL     1     -40.335  60.035 -50.373  1.00  0.00    -0.052 SA
HETATM   18  C   UNL     1     -43.489  57.977 -51.592  1.00  0.00     0.266 C 
HETATM   19  O   UNL     1     -44.630  57.975 -52.036  1.00  0.00    -0.266 OA
BRANCH  16  20
HETATM   20  C   UNL     1     -43.081  60.341 -52.071  1.00  0.00     0.138 C 
BRANCH  20  21
HETATM   21  C   UNL     1     -42.448  60.601 -53.439  1.00  0.00     0.059 C 
BRANCH  21  22
HETATM   22  C   UNL     1     -43.531  60.843 -54.464  1.00  0.00    -0.057 A 
HETATM   23  C   UNL     1     -44.536  59.893 -54.685  1.00  0.00     0.010 A 
HETATM   24  C   UNL     1     -45.492  60.088 -55.690  1.00  0.00     0.037 A 
HETATM   25  C   UNL     1     -45.449  61.230 -56.489  1.00  0.00     0.068 A 
HETATM   26  C   UNL     1     -44.445  62.175 -56.275  1.00  0.00     0.037 A 
HETATM   27  C   UNL     1     -43.494  61.989 -55.268  1.00  0.00     0.010 A 
BRANCH  25  28
HETATM   28  O   UNL     1     -46.308  61.532 -57.510  1.00  0.00    -0.356 OA
HETATM   29  C   UNL     1     -47.635  61.889 -57.146  1.00  0.00     0.210 C 
ENDBRANCH  25  28
ENDBRANCH  21  22
ENDBRANCH  20  21
ENDBRANCH  16  20
ENDBRANCH  12  13
ENDBRANCH   1  12
BRANCH  11  30
HETATM   30  N   UNL     1     -43.749  55.102 -54.100  1.00  0.00    -0.274 NA
HETATM   31  H   UNL     1     -44.446  55.405 -53.415  1.00  0.00     0.129 HD
BRANCH  30  32
HETATM   32  C   UNL     1     -43.306  56.312 -54.818  1.00  0.00     0.130 C 
BRANCH  32  33
HETATM   33  C   UNL     1     -43.131  56.051 -56.329  1.00  0.00     0.164 C 
BRANCH  33  34
HETATM   34  O   UNL     1     -41.933  55.298 -56.567  1.00  0.00    -0.390 OA
HETATM   35  H   UNL     1     -41.977  54.984 -57.487  1.00  0.00     0.210 HD
ENDBRANCH  33  34
BRANCH  33  36
HETATM   36  C   UNL     1     -43.166  57.311 -57.176  1.00  0.00    -0.029 A 
HETATM   37  C   UNL     1     -44.197  57.499 -58.108  1.00  0.00     0.010 A 
HETATM   38  C   UNL     1     -44.236  58.645 -58.903  1.00  0.00     0.001 A 
HETATM   39  C   UNL     1     -43.245  59.616 -58.778  1.00  0.00     0.000 A 
HETATM   40  C   UNL     1     -42.225  59.453 -57.842  1.00  0.00     0.001 A 
HETATM   41  C   UNL     1     -42.190  58.311 -57.041  1.00  0.00     0.010 A 
ENDBRANCH  33  36
ENDBRANCH  32  33
ENDBRANCH  30  32
ENDBRANCH  11  30
TORSDOF 11
ENDMDL
MODEL 6
REMARK VINA RESULT:      -7.6      2.674      6.841
REMARK  11 active torsions:
REMARK  status: ('A' for Active; 'I' for Inactive)
REMARK    1  A    between atoms: O_2  and  C_3 
REMARK    2  A    between atoms: C_6  and  C_7 
REMARK    3  A    between atoms: C_7  and  C_8 
REMARK    4  A    between atoms: C_8  and  N_9 
REMARK    5  A    between atoms: C_13  and  C_14 
REMARK    6  A    between atoms: C_14  and  C_15 
REMARK    7  A    between atoms: C_25  and  N_26 
REMARK    8  A    between atoms: N_26  and  C_27 
REMARK    9  A    between atoms: C_27  and  C_28 
REMARK   10  A    between atoms: C_28  and  O_29 
REMARK   11  A    between atoms: C_28  and  C_30 
ROOT
HETATM    1  C   UNL     1     -43.918  61.300 -52.376  1.00  0.00     0.074 A 
HETATM    2  C   UNL     1     -45.203  61.977 -52.043  1.00  0.00     0.266 A 
HETATM    3  O   UNL     1     -45.931  62.393 -52.947  1.00  0.00    -0.267 OA
HETATM    4  N   UNL     1     -45.500  62.085 -50.693  1.00  0.00    -0.273 N 
HETATM    5  C   UNL     1     -44.645  61.524 -49.761  1.00  0.00     0.138 A 
HETATM    6  N   UNL     1     -43.554  60.893 -50.055  1.00  0.00    -0.218 NA
HETATM    7  C   UNL     1     -46.657  62.746 -50.295  1.00  0.00     0.102 A 
HETATM    8  C   UNL     1     -46.991  62.870 -49.005  1.00  0.00     0.018 A 
HETATM    9  C   UNL     1     -46.143  62.307 -47.988  1.00  0.00     0.005 A 
HETATM   10  C   UNL     1     -45.022  61.659 -48.326  1.00  0.00     0.051 A 
HETATM   11  C   UNL     1     -43.182  60.782 -51.366  1.00  0.00     0.121 A 
ENDROOT
BRANCH   1  12
HETATM   12  C   UNL     1     -43.450  61.316 -53.754  1.00  0.00     0.045 C 
BRANCH  12  13
HETATM   13  C   UNL     1     -43.769  60.403 -54.679  1.00  0.00     0.077 C 
HETATM   14  S   UNL     1     -45.116  60.421 -55.747  1.00  0.00    -0.055 SA
HETATM   15  C   UNL     1     -44.564  58.995 -56.612  1.00  0.00     0.148 C 
HETATM   16  N   UNL     1     -43.360  58.570 -56.090  1.00  0.00    -0.298 N 
HETATM   17  S   UNL     1     -45.431  58.330 -57.873  1.00  0.00    -0.052 SA
HETATM   18  C   UNL     1     -42.903  59.232 -54.964  1.00  0.00     0.266 C 
HETATM   19  O   UNL     1     -41.925  58.925 -54.293  1.00  0.00    -0.266 OA
BRANCH  16  20
HETATM   20  C   UNL     1     -42.522  57.532 -56.681  1.00  0.00     0.138 C 
BRANCH  20  21
HETATM   21  C   UNL     1     -43.101  56.121 -56.559  1.00  0.00     0.059 C 
BRANCH  21  22
HETATM   22  C   UNL     1     -42.339  55.349 -55.508  1.00  0.00    -0.057 A 
HETATM   23  C   UNL     1     -41.130  55.834 -54.995  1.00  0.00     0.010 A 
HETATM   24  C   UNL     1     -40.389  55.077 -54.079  1.00  0.00     0.037 A 
HETATM   25  C   UNL     1     -40.845  53.823 -53.673  1.00  0.00     0.068 A 
HETATM   26  C   UNL     1     -42.046  53.333 -54.189  1.00  0.00     0.037 A 
HETATM   27  C   UNL     1     -42.792  54.090 -55.096  1.00  0.00     0.010 A 
BRANCH  25  28
HETATM   28  O   UNL     1     -40.212  52.979 -52.802  1.00  0.00    -0.356 OA
HETATM   29  C   UNL     1     -39.792  51.723 -53.316  1.00  0.00     0.210 C 
ENDBRANCH  25  28
ENDBRANCH  21  22
ENDBRANCH  20  21
ENDBRANCH  16  20
ENDBRANCH  12  13
ENDBRANCH   1  12
BRANCH  11  30
HETATM   30  N   UNL     1     -41.966  60.148 -51.604  1.00  0.00    -0.274 NA
HETATM   31  H   UNL     1     -41.318  60.875 -51.920  1.00  0.00     0.129 HD
BRANCH  30  32
HETATM   32  C   UNL     1     -41.284  59.416 -50.520  1.00  0.00     0.130 C 
BRANCH  32  33
HETATM   33  C   UNL     1     -40.589  58.139 -51.038  1.00  0.00     0.164 C 
BRANCH  33  34
HETATM   34  O   UNL     1     -40.117  58.341 -52.378  1.00  0.00    -0.390 OA
HETATM   35  H   UNL     1     -39.735  59.236 -52.410  1.00  0.00     0.210 HD
ENDBRANCH  33  34
BRANCH  33  36
HETATM   36  C   UNL     1     -41.447  56.891 -50.940  1.00  0.00    -0.029 A 
HETATM   37  C   UNL     1     -41.031  55.818 -50.138  1.00  0.00     0.010 A 
HETATM   38  C   UNL     1     -41.803  54.659 -50.046  1.00  0.00     0.001 A 
HETATM   39  C   UNL     1     -42.997  54.556 -50.756  1.00  0.00     0.000 A 
HETATM   40  C   UNL     1     -43.433  55.622 -51.542  1.00  0.00     0.001 A 
HETATM   41  C   UNL     1     -42.666  56.785 -51.627  1.00  0.00     0.010 A 
ENDBRANCH  33  36
ENDBRANCH  32  33
ENDBRANCH  30  32
ENDBRANCH  11  30
TORSDOF 11
ENDMDL
MODEL 7
REMARK VINA RESULT:      -7.5      3.085      6.894
REMARK  11 active torsions:
REMARK  status: ('A' for Active; 'I' for Inactive)
REMARK    1  A    between atoms: O_2  and  C_3 
REMARK    2  A    between atoms: C_6  and  C_7 
REMARK    3  A    between atoms: C_7  and  C_8 
REMARK    4  A    between atoms: C_8  and  N_9 
REMARK    5  A    between atoms: C_13  and  C_14 
REMARK    6  A    between atoms: C_14  and  C_15 
REMARK    7  A    between atoms: C_25  and  N_26 
REMARK    8  A    between atoms: N_26  and  C_27 
REMARK    9  A    between atoms: C_27  and  C_28 
REMARK   10  A    between atoms: C_28  and  O_29 
REMARK   11  A    between atoms: C_28  and  C_30 
ROOT
HETATM    1  C   UNL     1     -43.308  58.697 -58.001  1.00  0.00     0.074 A 
HETATM    2  C   UNL     1     -42.628  60.021 -57.930  1.00  0.00     0.266 A 
HETATM    3  O   UNL     1     -42.461  60.568 -56.837  1.00  0.00    -0.267 OA
HETATM    4  N   UNL     1     -42.211  60.554 -59.140  1.00  0.00    -0.273 N 
HETATM    5  C   UNL     1     -42.389  59.826 -60.302  1.00  0.00     0.138 A 
HETATM    6  N   UNL     1     -42.935  58.654 -60.356  1.00  0.00    -0.218 NA
HETATM    7  C   UNL     1     -41.611  61.809 -59.166  1.00  0.00     0.102 A 
HETATM    8  C   UNL     1     -41.185  62.363 -60.308  1.00  0.00     0.018 A 
HETATM    9  C   UNL     1     -41.340  61.655 -61.550  1.00  0.00     0.005 A 
HETATM   10  C   UNL     1     -41.909  60.443 -61.571  1.00  0.00     0.051 A 
HETATM   11  C   UNL     1     -43.403  58.085 -59.203  1.00  0.00     0.121 A 
ENDROOT
BRANCH   1  12
HETATM   12  C   UNL     1     -43.938  58.163 -56.802  1.00  0.00     0.045 C 
BRANCH  12  13
HETATM   13  C   UNL     1     -43.292  57.517 -55.824  1.00  0.00     0.077 C 
HETATM   14  S   UNL     1     -42.987  58.072 -54.226  1.00  0.00    -0.055 SA
HETATM   15  C   UNL     1     -42.301  56.533 -53.726  1.00  0.00     0.148 C 
HETATM   16  N   UNL     1     -42.357  55.636 -54.773  1.00  0.00    -0.298 N 
HETATM   17  S   UNL     1     -41.705  56.284 -52.188  1.00  0.00    -0.052 SA
HETATM   18  C   UNL     1     -42.800  56.126 -55.989  1.00  0.00     0.266 C 
HETATM   19  O   UNL     1     -42.805  55.520 -57.052  1.00  0.00    -0.266 OA
BRANCH  16  20
HETATM   20  C   UNL     1     -42.051  54.214 -54.660  1.00  0.00     0.138 C 
BRANCH  20  21
HETATM   21  C   UNL     1     -40.573  53.878 -54.865  1.00  0.00     0.059 C 
BRANCH  21  22
HETATM   22  C   UNL     1     -40.217  52.641 -54.074  1.00  0.00    -0.057 A 
HETATM   23  C   UNL     1     -40.116  51.393 -54.701  1.00  0.00     0.010 A 
HETATM   24  C   UNL     1     -39.864  50.237 -53.951  1.00  0.00     0.037 A 
HETATM   25  C   UNL     1     -39.718  50.316 -52.566  1.00  0.00     0.068 A 
HETATM   26  C   UNL     1     -39.826  51.558 -51.939  1.00  0.00     0.037 A 
HETATM   27  C   UNL     1     -40.068  52.714 -52.684  1.00  0.00     0.010 A 
BRANCH  25  28
HETATM   28  O   UNL     1     -39.486  49.267 -51.720  1.00  0.00    -0.356 OA
HETATM   29  C   UNL     1     -39.507  49.550 -50.327  1.00  0.00     0.210 C 
ENDBRANCH  25  28
ENDBRANCH  21  22
ENDBRANCH  20  21
ENDBRANCH  16  20
ENDBRANCH  12  13
ENDBRANCH   1  12
BRANCH  11  30
HETATM   30  N   UNL     1     -44.036  56.853 -59.345  1.00  0.00    -0.274 NA
HETATM   31  H   UNL     1     -44.371  56.591 -58.414  1.00  0.00     0.129 HD
BRANCH  30  32
HETATM   32  C   UNL     1     -45.181  56.707 -60.264  1.00  0.00     0.130 C 
BRANCH  32  33
HETATM   33  C   UNL     1     -46.530  56.815 -59.522  1.00  0.00     0.164 C 
BRANCH  33  34
HETATM   34  O   UNL     1     -47.502  55.955 -60.133  1.00  0.00    -0.390 OA
HETATM   35  H   UNL     1     -47.568  56.223 -61.066  1.00  0.00     0.210 HD
ENDBRANCH  33  34
BRANCH  33  36
HETATM   36  C   UNL     1     -47.051  58.235 -59.402  1.00  0.00    -0.029 A 
HETATM   37  C   UNL     1     -47.235  58.808 -58.135  1.00  0.00     0.010 A 
HETATM   38  C   UNL     1     -47.724  60.109 -58.007  1.00  0.00     0.001 A 
HETATM   39  C   UNL     1     -48.039  60.852 -59.143  1.00  0.00     0.000 A 
HETATM   40  C   UNL     1     -47.842  60.303 -60.409  1.00  0.00     0.001 A 
HETATM   41  C   UNL     1     -47.345  59.006 -60.538  1.00  0.00     0.010 A 
ENDBRANCH  33  36
ENDBRANCH  32  33
ENDBRANCH  30  32
ENDBRANCH  11  30
TORSDOF 11
ENDMDL
MODEL 8
REMARK VINA RESULT:      -7.4      3.237      6.027
REMARK  11 active torsions:
REMARK  status: ('A' for Active; 'I' for Inactive)
REMARK    1  A    between atoms: O_2  and  C_3 
REMARK    2  A    between atoms: C_6  and  C_7 
REMARK    3  A    between atoms: C_7  and  C_8 
REMARK    4  A    between atoms: C_8  and  N_9 
REMARK    5  A    between atoms: C_13  and  C_14 
REMARK    6  A    between atoms: C_14  and  C_15 
REMARK    7  A    between atoms: C_25  and  N_26 
REMARK    8  A    between atoms: N_26  and  C_27 
REMARK    9  A    between atoms: C_27  and  C_28 
REMARK   10  A    between atoms: C_28  and  O_29 
REMARK   11  A    between atoms: C_28  and  C_30 
ROOT
HETATM    1  C   UNL     1     -42.912  60.567 -58.094  1.00  0.00     0.074 A 
HETATM    2  C   UNL     1     -42.964  61.161 -59.459  1.00  0.00     0.266 A 
HETATM    3  O   UNL     1     -43.975  61.021 -60.152  1.00  0.00    -0.267 OA
HETATM    4  N   UNL     1     -41.836  61.860 -59.860  1.00  0.00    -0.273 N 
HETATM    5  C   UNL     1     -40.781  62.014 -58.979  1.00  0.00     0.138 A 
HETATM    6  N   UNL     1     -40.758  61.539 -57.775  1.00  0.00    -0.218 NA
HETATM    7  C   UNL     1     -41.785  62.404 -61.139  1.00  0.00     0.102 A 
HETATM    8  C   UNL     1     -40.721  63.093 -61.570  1.00  0.00     0.018 A 
HETATM    9  C   UNL     1     -39.593  63.289 -60.700  1.00  0.00     0.005 A 
HETATM   10  C   UNL     1     -39.601  62.786 -59.460  1.00  0.00     0.051 A 
HETATM   11  C   UNL     1     -41.823  60.807 -57.328  1.00  0.00     0.121 A 
ENDROOT
BRANCH   1  12
HETATM   12  C   UNL     1     -43.975  59.665 -57.676  1.00  0.00     0.045 C 
BRANCH  12  13
HETATM   13  C   UNL     1     -43.992  58.347 -57.906  1.00  0.00     0.077 C 
HETATM   14  S   UNL     1     -44.571  57.535 -59.305  1.00  0.00    -0.055 SA
HETATM   15  C   UNL     1     -44.014  55.969 -58.738  1.00  0.00     0.148 C 
HETATM   16  N   UNL     1     -43.375  56.113 -57.524  1.00  0.00    -0.298 N 
HETATM   17  S   UNL     1     -44.257  54.569 -59.613  1.00  0.00    -0.052 SA
HETATM   18  C   UNL     1     -43.404  57.373 -56.952  1.00  0.00     0.266 C 
HETATM   19  O   UNL     1     -43.001  57.667 -55.834  1.00  0.00    -0.266 OA
BRANCH  16  20
HETATM   20  C   UNL     1     -42.626  55.056 -56.853  1.00  0.00     0.138 C 
BRANCH  20  21
HETATM   21  C   UNL     1     -43.444  54.271 -55.825  1.00  0.00     0.059 C 
BRANCH  21  22
HETATM   22  C   UNL     1     -42.614  54.038 -54.585  1.00  0.00    -0.057 A 
HETATM   23  C   UNL     1     -42.775  54.846 -53.452  1.00  0.00     0.010 A 
HETATM   24  C   UNL     1     -41.949  54.677 -52.333  1.00  0.00     0.037 A 
HETATM   25  C   UNL     1     -40.950  53.704 -52.338  1.00  0.00     0.068 A 
HETATM   26  C   UNL     1     -40.783  52.903 -53.468  1.00  0.00     0.037 A 
HETATM   27  C   UNL     1     -41.611  53.062 -54.583  1.00  0.00     0.010 A 
BRANCH  25  28
HETATM   28  O   UNL     1     -40.070  53.448 -51.322  1.00  0.00    -0.356 OA
HETATM   29  C   UNL     1     -39.836  52.082 -51.006  1.00  0.00     0.210 C 
ENDBRANCH  25  28
ENDBRANCH  21  22
ENDBRANCH  20  21
ENDBRANCH  16  20
ENDBRANCH  12  13
ENDBRANCH   1  12
BRANCH  11  30
HETATM   30  N   UNL     1     -41.702  60.273 -56.048  1.00  0.00    -0.274 NA
HETATM   31  H   UNL     1     -40.707  60.313 -55.811  1.00  0.00     0.129 HD
BRANCH  30  32
HETATM   32  C   UNL     1     -42.431  60.878 -54.917  1.00  0.00     0.130 C 
BRANCH  32  33
HETATM   33  C   UNL     1     -41.970  60.300 -53.562  1.00  0.00     0.164 C 
BRANCH  33  34
HETATM   34  O   UNL     1     -40.793  59.499 -53.739  1.00  0.00    -0.390 OA
HETATM   35  H   UNL     1     -40.393  59.390 -52.859  1.00  0.00     0.210 HD
ENDBRANCH  33  34
BRANCH  33  36
HETATM   36  C   UNL     1     -43.052  59.531 -52.825  1.00  0.00    -0.029 A 
HETATM   37  C   UNL     1     -44.398  59.896 -52.979  1.00  0.00     0.010 A 
HETATM   38  C   UNL     1     -45.403  59.207 -52.298  1.00  0.00     0.001 A 
HETATM   39  C   UNL     1     -45.076  58.148 -51.454  1.00  0.00     0.000 A 
HETATM   40  C   UNL     1     -43.745  57.761 -51.306  1.00  0.00     0.001 A 
HETATM   41  C   UNL     1     -42.740  58.444 -51.993  1.00  0.00     0.010 A 
ENDBRANCH  33  36
ENDBRANCH  32  33
ENDBRANCH  30  32
ENDBRANCH  11  30
TORSDOF 11
ENDMDL
MODEL 9
REMARK VINA RESULT:      -7.4      3.035      8.538
REMARK  11 active torsions:
REMARK  status: ('A' for Active; 'I' for Inactive)
REMARK    1  A    between atoms: O_2  and  C_3 
REMARK    2  A    between atoms: C_6  and  C_7 
REMARK    3  A    between atoms: C_7  and  C_8 
REMARK    4  A    between atoms: C_8  and  N_9 
REMARK    5  A    between atoms: C_13  and  C_14 
REMARK    6  A    between atoms: C_14  and  C_15 
REMARK    7  A    between atoms: C_25  and  N_26 
REMARK    8  A    between atoms: N_26  and  C_27 
REMARK    9  A    between atoms: C_27  and  C_28 
REMARK   10  A    between atoms: C_28  and  O_29 
REMARK   11  A    between atoms: C_28  and  C_30 
ROOT
HETATM    1  C   UNL     1     -43.543  57.276 -53.714  1.00  0.00     0.074 A 
HETATM    2  C   UNL     1     -43.625  58.620 -53.076  1.00  0.00     0.266 A 
HETATM    3  O   UNL     1     -44.478  59.428 -53.452  1.00  0.00    -0.267 OA
HETATM    4  N   UNL     1     -42.711  58.868 -52.063  1.00  0.00    -0.273 N 
HETATM    5  C   UNL     1     -41.840  57.867 -51.673  1.00  0.00     0.138 A 
HETATM    6  N   UNL     1     -41.803  56.683 -52.196  1.00  0.00    -0.218 NA
HETATM    7  C   UNL     1     -42.690  60.115 -51.448  1.00  0.00     0.102 A 
HETATM    8  C   UNL     1     -41.831  60.400 -50.462  1.00  0.00     0.018 A 
HETATM    9  C   UNL     1     -40.900  59.400 -50.010  1.00  0.00     0.005 A 
HETATM   10  C   UNL     1     -40.889  58.185 -50.571  1.00  0.00     0.051 A 
HETATM   11  C   UNL     1     -42.653  56.384 -53.225  1.00  0.00     0.121 A 
ENDROOT
BRANCH   1  12
HETATM   12  C   UNL     1     -44.340  57.012 -54.904  1.00  0.00     0.045 C 
BRANCH  12  13
HETATM   13  C   UNL     1     -43.998  57.373 -56.146  1.00  0.00     0.077 C 
HETATM   14  S   UNL     1     -42.489  57.130 -56.931  1.00  0.00    -0.055 SA
HETATM   15  C   UNL     1     -43.084  57.744 -58.465  1.00  0.00     0.148 C 
HETATM   16  N   UNL     1     -44.417  58.081 -58.347  1.00  0.00    -0.298 N 
HETATM   17  S   UNL     1     -42.110  57.856 -59.815  1.00  0.00    -0.052 SA
HETATM   18  C   UNL     1     -44.969  57.997 -57.081  1.00  0.00     0.266 C 
HETATM   19  O   UNL     1     -46.091  58.365 -56.757  1.00  0.00    -0.266 OA
BRANCH  16  20
HETATM   20  C   UNL     1     -45.280  58.445 -59.466  1.00  0.00     0.138 C 
BRANCH  20  21
HETATM   21  C   UNL     1     -46.136  57.290 -59.990  1.00  0.00     0.059 C 
BRANCH  21  22
HETATM   22  C   UNL     1     -47.282  57.838 -60.808  1.00  0.00    -0.057 A 
HETATM   23  C   UNL     1     -48.017  57.006 -61.662  1.00  0.00     0.010 A 
HETATM   24  C   UNL     1     -49.027  57.533 -62.476  1.00  0.00     0.037 A 
HETATM   25  C   UNL     1     -49.308  58.900 -62.451  1.00  0.00     0.068 A 
HETATM   26  C   UNL     1     -48.572  59.732 -61.606  1.00  0.00     0.037 A 
HETATM   27  C   UNL     1     -47.570  59.208 -60.786  1.00  0.00     0.010 A 
BRANCH  25  28
HETATM   28  O   UNL     1     -50.253  59.542 -63.203  1.00  0.00    -0.356 OA
HETATM   29  C   UNL     1     -51.589  59.069 -63.094  1.00  0.00     0.210 C 
ENDBRANCH  25  28
ENDBRANCH  21  22
ENDBRANCH  20  21
ENDBRANCH  16  20
ENDBRANCH  12  13
ENDBRANCH   1  12
BRANCH  11  30
HETATM   30  N   UNL     1     -42.513  55.115 -53.782  1.00  0.00    -0.274 NA
HETATM   31  H   UNL     1     -41.918  55.226 -54.607  1.00  0.00     0.129 HD
BRANCH  30  32
HETATM   32  C   UNL     1     -41.936  54.014 -52.988  1.00  0.00     0.130 C 
BRANCH  32  33
HETATM   33  C   UNL     1     -40.526  53.628 -53.481  1.00  0.00     0.164 C 
BRANCH  33  34
HETATM   34  O   UNL     1     -40.366  53.992 -54.859  1.00  0.00    -0.390 OA
HETATM   35  H   UNL     1     -39.927  53.243 -55.299  1.00  0.00     0.210 HD
ENDBRANCH  33  34
BRANCH  33  36
HETATM   36  C   UNL     1     -40.176  52.168 -53.254  1.00  0.00    -0.029 A 
HETATM   37  C   UNL     1     -39.785  51.732 -51.979  1.00  0.00     0.010 A 
HETATM   38  C   UNL     1     -39.449  50.396 -51.757  1.00  0.00     0.001 A 
HETATM   39  C   UNL     1     -39.496  49.480 -52.805  1.00  0.00     0.000 A 
HETATM   40  C   UNL     1     -39.902  49.894 -54.073  1.00  0.00     0.001 A 
HETATM   41  C   UNL     1     -40.247  51.228 -54.294  1.00  0.00     0.010 A 
ENDBRANCH  33  36
ENDBRANCH  32  33
ENDBRANCH  30  32
ENDBRANCH  11  30
TORSDOF 11
ENDMDL
MODEL 10
REMARK VINA RESULT:      -7.4      2.111      7.678
REMARK  11 active torsions:
REMARK  status: ('A' for Active; 'I' for Inactive)
REMARK    1  A    between atoms: O_2  and  C_3 
REMARK    2  A    between atoms: C_6  and  C_7 
REMARK    3  A    between atoms: C_7  and  C_8 
REMARK    4  A    between atoms: C_8  and  N_9 
REMARK    5  A    between atoms: C_13  and  C_14 
REMARK    6  A    between atoms: C_14  and  C_15 
REMARK    7  A    between atoms: C_25  and  N_26 
REMARK    8  A    between atoms: N_26  and  C_27 
REMARK    9  A    between atoms: C_27  and  C_28 
REMARK   10  A    between atoms: C_28  and  O_29 
REMARK   11  A    between atoms: C_28  and  C_30 
ROOT
HETATM    1  C   UNL     1     -43.213  55.083 -53.280  1.00  0.00     0.074 A 
HETATM    2  C   UNL     1     -42.537  54.449 -52.113  1.00  0.00     0.266 A 
HETATM    3  O   UNL     1     -42.909  54.717 -50.968  1.00  0.00    -0.267 OA
HETATM    4  N   UNL     1     -41.512  53.565 -52.412  1.00  0.00    -0.273 N 
HETATM    5  C   UNL     1     -41.219  53.284 -53.734  1.00  0.00     0.138 A 
HETATM    6  N   UNL     1     -41.840  53.798 -54.747  1.00  0.00    -0.218 NA
HETATM    7  C   UNL     1     -40.798  52.968 -51.378  1.00  0.00     0.102 A 
HETATM    8  C   UNL     1     -39.804  52.103 -51.616  1.00  0.00     0.018 A 
HETATM    9  C   UNL     1     -39.453  51.769 -52.970  1.00  0.00     0.005 A 
HETATM   10  C   UNL     1     -40.115  52.317 -53.995  1.00  0.00     0.051 A 
HETATM   11  C   UNL     1     -42.838  54.706 -54.524  1.00  0.00     0.121 A 
ENDROOT
BRANCH   1  12
HETATM   12  C   UNL     1     -44.167  56.156 -53.045  1.00  0.00     0.045 C 
BRANCH  12  13
HETATM   13  C   UNL     1     -43.837  57.429 -52.795  1.00  0.00     0.077 C 
HETATM   14  S   UNL     1     -43.756  58.210 -51.267  1.00  0.00    -0.055 SA
HETATM   15  C   UNL     1     -43.100  59.687 -51.955  1.00  0.00     0.148 C 
HETATM   16  N   UNL     1     -42.929  59.533 -53.315  1.00  0.00    -0.298 N 
HETATM   17  S   UNL     1     -42.756  61.026 -51.020  1.00  0.00    -0.052 SA
HETATM   18  C   UNL     1     -43.398  58.355 -53.870  1.00  0.00     0.266 C 
HETATM   19  O   UNL     1     -43.445  58.089 -55.064  1.00  0.00    -0.266 OA
BRANCH  16  20
HETATM   20  C   UNL     1     -42.233  60.484 -54.175  1.00  0.00     0.138 C 
BRANCH  20  21
HETATM   21  C   UNL     1     -43.161  61.467 -54.891  1.00  0.00     0.059 C 
BRANCH  21  22
HETATM   22  C   UNL     1     -43.167  61.172 -56.373  1.00  0.00    -0.057 A 
HETATM   23  C   UNL     1     -44.344  61.287 -57.123  1.00  0.00     0.010 A 
HETATM   24  C   UNL     1     -44.362  60.937 -58.479  1.00  0.00     0.037 A 
HETATM   25  C   UNL     1     -43.206  60.462 -59.098  1.00  0.00     0.068 A 
HETATM   26  C   UNL     1     -42.033  60.340 -58.350  1.00  0.00     0.037 A 
HETATM   27  C   UNL     1     -42.010  60.696 -57.000  1.00  0.00     0.010 A 
BRANCH  25  28
HETATM   28  O   UNL     1     -43.093  60.073 -60.404  1.00  0.00    -0.356 OA
HETATM   29  C   UNL     1     -42.019  59.197 -60.722  1.00  0.00     0.210 C 
ENDBRANCH  25  28
ENDBRANCH  21  22
ENDBRANCH  20  21
ENDBRANCH  16  20
ENDBRANCH  12  13
ENDBRANCH   1  12
BRANCH  11  30
HETATM   30  N   UNL     1     -43.417  55.266 -55.659  1.00  0.00    -0.274 NA
HETATM   31  H   UNL     1     -43.113  56.243 -55.687  1.00  0.00     0.129 HD
BRANCH  30  32
HETATM   32  C   UNL     1     -43.142  54.698 -56.993  1.00  0.00     0.130 C 
BRANCH  32  33
HETATM   33  C   UNL     1     -42.887  55.799 -58.044  1.00  0.00     0.164 C 
BRANCH  33  34
HETATM   34  O   UNL     1     -42.344  56.969 -57.416  1.00  0.00    -0.390 OA
HETATM   35  H   UNL     1     -41.419  57.043 -57.711  1.00  0.00     0.210 HD
ENDBRANCH  33  34
BRANCH  33  36
HETATM   36  C   UNL     1     -44.107  56.140 -58.881  1.00  0.00    -0.029 A 
HETATM   37  C   UNL     1     -44.506  55.284 -59.917  1.00  0.00     0.010 A 
HETATM   38  C   UNL     1     -45.618  55.590 -60.703  1.00  0.00     0.001 A 
HETATM   39  C   UNL     1     -46.342  56.755 -60.465  1.00  0.00     0.000 A 
HETATM   40  C   UNL     1     -45.969  57.607 -59.427  1.00  0.00     0.001 A 
HETATM   41  C   UNL     1     -44.863  57.297 -58.634  1.00  0.00     0.010 A 
ENDBRANCH  33  36
ENDBRANCH  32  33
ENDBRANCH  30  32
ENDBRANCH  11  30
TORSDOF 11
ENDMDL
