MODEL 1
REMARK VINA RESULT:      -8.4      0.000      0.000
REMARK  3 active torsions:
REMARK  status: ('A' for Active; 'I' for Inactive)
REMARK    1  A    between atoms: C_6  and  C_7 
REMARK       I    between atoms: C_7  and  N_8 
REMARK    2  A    between atoms: N_8  and  C_9 
REMARK    3  A    between atoms: C_13  and  C_14 
ROOT
HETATM    1  C   UNL     1     -33.803  40.570 -52.420  1.00  0.00     0.036 A 
HETATM    2  C   UNL     1     -34.581  40.052 -51.385  1.00  0.00     0.054 A 
HETATM    3  C   UNL     1     -33.996  39.660 -50.166  1.00  0.00     0.050 A 
HETATM    4 CL   UNL     1     -35.073  38.954 -49.005  1.00  0.00    -0.083 Cl
HETATM    5  C   UNL     1     -32.614  39.793 -49.961  1.00  0.00     0.035 A 
HETATM    6  C   UNL     1     -31.844  40.336 -51.007  1.00  0.00     0.019 A 
HETATM    7  C   UNL     1     -32.430  40.718 -52.217  1.00  0.00     0.030 A 
ENDROOT
BRANCH   1   8
HETATM    8  N   UNL     1     -34.303  40.919 -53.692  1.00  0.00    -0.323 N 
HETATM    9  C   UNL     1     -35.238  41.884 -54.002  1.00  0.00     0.261 C 
HETATM   10  O   UNL     1     -35.718  42.693 -53.211  1.00  0.00    -0.267 OA
HETATM   11  H   UNL     1     -33.963  40.351 -54.471  1.00  0.00     0.169 HD
BRANCH   9  12
HETATM   12  C   UNL     1     -35.680  41.885 -55.435  1.00  0.00     0.100 A 
HETATM   13  C   UNL     1     -34.796  41.517 -56.580  1.00  0.00     0.261 A 
HETATM   14  N   UNL     1     -35.371  41.511 -57.831  1.00  0.00    -0.327 N 
HETATM   15  O   UNL     1     -33.611  41.228 -56.421  1.00  0.00    -0.267 OA
HETATM   16  C   UNL     1     -36.686  41.827 -58.082  1.00  0.00     0.008 A 
HETATM   17  H   UNL     1     -34.758  41.252 -58.595  1.00  0.00     0.169 HD
HETATM   18  C   UNL     1     -37.148  41.752 -59.505  1.00  0.00     0.068 C 
HETATM   19  C   UNL     1     -37.480  42.175 -57.059  1.00  0.00     0.026 A 
HETATM   20  C   UNL     1     -36.960  42.201 -55.709  1.00  0.00     0.025 A 
ENDBRANCH   9  12
ENDBRANCH   1   8
BRANCH   5  21
HETATM   21  C   UNL     1     -31.927  39.376 -48.740  1.00  0.00     0.183 A 
HETATM   22  N   UNL     1     -31.872  38.095 -48.330  1.00  0.00    -0.152 NA
HETATM   23  N   UNL     1     -31.178  38.192 -47.188  1.00  0.00    -0.263 N 
HETATM   24  H   UNL     1     -31.001  37.357 -46.641  1.00  0.00     0.190 HD
HETATM   25  C   UNL     1     -30.808  39.478 -46.936  1.00  0.00     0.118 A 
HETATM   26  C   UNL     1     -30.048  39.890 -45.739  1.00  0.00     0.093 C 
HETATM   27  N   UNL     1     -31.245  40.238 -47.913  1.00  0.00    -0.212 NA
ENDBRANCH   5  21
TORSDOF 3
ENDMDL
MODEL 2
REMARK VINA RESULT:      -7.9     16.996     19.121
REMARK  3 active torsions:
REMARK  status: ('A' for Active; 'I' for Inactive)
REMARK    1  A    between atoms: C_6  and  C_7 
REMARK       I    between atoms: C_7  and  N_8 
REMARK    2  A    between atoms: N_8  and  C_9 
REMARK    3  A    between atoms: C_13  and  C_14 
ROOT
HETATM    1  C   UNL     1     -42.254  56.419 -51.515  1.00  0.00     0.036 A 
HETATM    2  C   UNL     1     -41.615  56.299 -52.748  1.00  0.00     0.054 A 
HETATM    3  C   UNL     1     -41.025  55.084 -53.144  1.00  0.00     0.050 A 
HETATM    4 CL   UNL     1     -40.193  55.109 -54.665  1.00  0.00    -0.083 Cl
HETATM    5  C   UNL     1     -41.075  53.959 -52.307  1.00  0.00     0.035 A 
HETATM    6  C   UNL     1     -41.740  54.088 -51.073  1.00  0.00     0.019 A 
HETATM    7  C   UNL     1     -42.321  55.299 -50.683  1.00  0.00     0.030 A 
ENDROOT
BRANCH   1   8
HETATM    8  N   UNL     1     -42.808  57.617 -51.018  1.00  0.00    -0.323 N 
HETATM    9  C   UNL     1     -43.861  58.344 -51.533  1.00  0.00     0.261 C 
HETATM   10  O   UNL     1     -44.578  57.997 -52.469  1.00  0.00    -0.267 OA
HETATM   11  H   UNL     1     -42.336  58.018 -50.206  1.00  0.00     0.169 HD
BRANCH   9  12
HETATM   12  C   UNL     1     -44.089  59.667 -50.866  1.00  0.00     0.100 A 
HETATM   13  C   UNL     1     -45.313  60.004 -50.080  1.00  0.00     0.261 A 
HETATM   14  N   UNL     1     -45.344  61.243 -49.481  1.00  0.00    -0.327 N 
HETATM   15  O   UNL     1     -46.250  59.216 -49.966  1.00  0.00    -0.267 OA
HETATM   16  C   UNL     1     -44.335  62.174 -49.570  1.00  0.00     0.008 A 
HETATM   17  H   UNL     1     -46.178  61.451 -48.945  1.00  0.00     0.169 HD
HETATM   18  C   UNL     1     -44.530  63.466 -48.839  1.00  0.00     0.068 C 
HETATM   19  C   UNL     1     -43.242  61.883 -50.289  1.00  0.00     0.026 A 
HETATM   20  C   UNL     1     -43.122  60.600 -50.947  1.00  0.00     0.025 A 
ENDBRANCH   9  12
ENDBRANCH   1   8
BRANCH   5  21
HETATM   21  C   UNL     1     -40.455  52.675 -52.628  1.00  0.00     0.183 A 
HETATM   22  N   UNL     1     -39.636  52.023 -51.782  1.00  0.00    -0.152 NA
HETATM   23  N   UNL     1     -39.303  50.936 -52.490  1.00  0.00    -0.263 N 
HETATM   24  H   UNL     1     -38.660  50.260 -52.092  1.00  0.00     0.190 HD
HETATM   25  C   UNL     1     -39.919  50.922 -53.704  1.00  0.00     0.118 A 
HETATM   26  C   UNL     1     -39.727  49.855 -54.707  1.00  0.00     0.093 C 
HETATM   27  N   UNL     1     -40.671  51.994 -53.804  1.00  0.00    -0.212 NA
ENDBRANCH   5  21
TORSDOF 3
ENDMDL
MODEL 3
REMARK VINA RESULT:      -7.6     17.022     19.250
REMARK  3 active torsions:
REMARK  status: ('A' for Active; 'I' for Inactive)
REMARK    1  A    between atoms: C_6  and  C_7 
REMARK       I    between atoms: C_7  and  N_8 
REMARK    2  A    between atoms: N_8  and  C_9 
REMARK    3  A    between atoms: C_13  and  C_14 
ROOT
HETATM    1  C   UNL     1     -41.930  56.836 -51.830  1.00  0.00     0.036 A 
HETATM    2  C   UNL     1     -41.011  57.694 -51.226  1.00  0.00     0.054 A 
HETATM    3  C   UNL     1     -41.373  59.006 -50.866  1.00  0.00     0.050 A 
HETATM    4 CL   UNL     1     -40.105  59.985 -50.203  1.00  0.00    -0.083 Cl
HETATM    5  C   UNL     1     -42.675  59.478 -51.098  1.00  0.00     0.035 A 
HETATM    6  C   UNL     1     -43.597  58.595 -51.690  1.00  0.00     0.019 A 
HETATM    7  C   UNL     1     -43.230  57.294 -52.050  1.00  0.00     0.030 A 
ENDROOT
BRANCH   1   8
HETATM    8  N   UNL     1     -41.625  55.535 -52.282  1.00  0.00    -0.323 N 
HETATM    9  C   UNL     1     -41.372  54.411 -51.525  1.00  0.00     0.261 C 
HETATM   10  O   UNL     1     -41.482  54.332 -50.304  1.00  0.00    -0.267 OA
HETATM   11  H   UNL     1     -41.534  55.430 -53.294  1.00  0.00     0.169 HD
BRANCH   9  12
HETATM   12  C   UNL     1     -40.908  53.222 -52.313  1.00  0.00     0.100 A 
HETATM   13  C   UNL     1     -41.316  52.946 -53.723  1.00  0.00     0.261 A 
HETATM   14  N   UNL     1     -40.756  51.842 -54.325  1.00  0.00    -0.327 N 
HETATM   15  O   UNL     1     -42.111  53.667 -54.323  1.00  0.00    -0.267 OA
HETATM   16  C   UNL     1     -39.865  50.992 -53.713  1.00  0.00     0.008 A 
HETATM   17  H   UNL     1     -41.038  51.675 -55.284  1.00  0.00     0.169 HD
HETATM   18  C   UNL     1     -39.342  49.848 -54.526  1.00  0.00     0.068 C 
HETATM   19  C   UNL     1     -39.508  51.226 -52.442  1.00  0.00     0.026 A 
HETATM   20  C   UNL     1     -40.044  52.368 -51.733  1.00  0.00     0.025 A 
ENDBRANCH   9  12
ENDBRANCH   1   8
BRANCH   5  21
HETATM   21  C   UNL     1     -43.118  60.835 -50.788  1.00  0.00     0.183 A 
HETATM   22  N   UNL     1     -43.087  61.840 -51.682  1.00  0.00    -0.152 NA
HETATM   23  N   UNL     1     -43.554  62.872 -50.967  1.00  0.00    -0.263 N 
HETATM   24  H   UNL     1     -43.620  63.787 -51.398  1.00  0.00     0.190 HD
HETATM   25  C   UNL     1     -43.878  62.495 -49.700  1.00  0.00     0.118 A 
HETATM   26  C   UNL     1     -44.403  63.425 -48.679  1.00  0.00     0.093 C 
HETATM   27  N   UNL     1     -43.637  61.211 -49.570  1.00  0.00    -0.212 NA
ENDBRANCH   5  21
TORSDOF 3
ENDMDL
MODEL 4
REMARK VINA RESULT:      -7.6     17.024     19.522
REMARK  3 active torsions:
REMARK  status: ('A' for Active; 'I' for Inactive)
REMARK    1  A    between atoms: C_6  and  C_7 
REMARK       I    between atoms: C_7  and  N_8 
REMARK    2  A    between atoms: N_8  and  C_9 
REMARK    3  A    between atoms: C_13  and  C_14 
ROOT
HETATM    1  C   UNL     1     -42.463  56.570 -51.633  1.00  0.00     0.036 A 
HETATM    2  C   UNL     1     -41.865  57.750 -51.194  1.00  0.00     0.054 A 
HETATM    3  C   UNL     1     -42.622  58.924 -51.017  1.00  0.00     0.050 A 
HETATM    4 CL   UNL     1     -41.728  60.335 -50.549  1.00  0.00    -0.083 Cl
HETATM    5  C   UNL     1     -44.002  58.929 -51.269  1.00  0.00     0.035 A 
HETATM    6  C   UNL     1     -44.597  57.726 -51.692  1.00  0.00     0.019 A 
HETATM    7  C   UNL     1     -43.839  56.564 -51.871  1.00  0.00     0.030 A 
ENDROOT
BRANCH   1   8
HETATM    8  N   UNL     1     -41.764  55.375 -51.900  1.00  0.00    -0.323 N 
HETATM    9  C   UNL     1     -41.075  55.032 -53.045  1.00  0.00     0.261 C 
HETATM   10  O   UNL     1     -40.859  55.776 -53.999  1.00  0.00    -0.267 OA
HETATM   11  H   UNL     1     -41.819  54.659 -51.173  1.00  0.00     0.169 HD
BRANCH   9  12
HETATM   12  C   UNL     1     -40.589  53.614 -53.077  1.00  0.00     0.100 A 
HETATM   13  C   UNL     1     -39.971  52.918 -51.909  1.00  0.00     0.261 A 
HETATM   14  N   UNL     1     -39.630  51.596 -52.085  1.00  0.00    -0.327 N 
HETATM   15  O   UNL     1     -39.777  53.491 -50.839  1.00  0.00    -0.267 OA
HETATM   16  C   UNL     1     -39.815  50.894 -53.253  1.00  0.00     0.008 A 
HETATM   17  H   UNL     1     -39.220  51.138 -51.279  1.00  0.00     0.169 HD
HETATM   18  C   UNL     1     -39.401  49.455 -53.261  1.00  0.00     0.068 C 
HETATM   19  C   UNL     1     -40.354  51.519 -54.310  1.00  0.00     0.026 A 
HETATM   20  C   UNL     1     -40.748  52.908 -54.213  1.00  0.00     0.025 A 
ENDBRANCH   9  12
ENDBRANCH   1   8
BRANCH   5  21
HETATM   21  C   UNL     1     -44.849  60.114 -51.145  1.00  0.00     0.183 A 
HETATM   22  N   UNL     1     -45.758  60.268 -50.165  1.00  0.00    -0.152 NA
HETATM   23  N   UNL     1     -46.294  61.460 -50.457  1.00  0.00    -0.263 N 
HETATM   24  H   UNL     1     -47.041  61.826 -49.879  1.00  0.00     0.190 HD
HETATM   25  C   UNL     1     -45.710  62.013 -51.556  1.00  0.00     0.118 A 
HETATM   26  C   UNL     1     -46.107  63.318 -52.125  1.00  0.00     0.093 C 
HETATM   27  N   UNL     1     -44.779  61.196 -51.992  1.00  0.00    -0.212 NA
ENDBRANCH   5  21
TORSDOF 3
ENDMDL
MODEL 5
REMARK VINA RESULT:      -7.5     17.030     19.098
REMARK  3 active torsions:
REMARK  status: ('A' for Active; 'I' for Inactive)
REMARK    1  A    between atoms: C_6  and  C_7 
REMARK       I    between atoms: C_7  and  N_8 
REMARK    2  A    between atoms: N_8  and  C_9 
REMARK    3  A    between atoms: C_13  and  C_14 
ROOT
HETATM    1  C   UNL     1     -42.377  56.609 -51.900  1.00  0.00     0.036 A 
HETATM    2  C   UNL     1     -41.712  56.386 -53.105  1.00  0.00     0.054 A 
HETATM    3  C   UNL     1     -41.074  55.159 -53.365  1.00  0.00     0.050 A 
HETATM    4 CL   UNL     1     -40.216  55.058 -54.868  1.00  0.00    -0.083 Cl
HETATM    5  C   UNL     1     -41.102  54.124 -52.417  1.00  0.00     0.035 A 
HETATM    6  C   UNL     1     -41.793  54.355 -51.213  1.00  0.00     0.019 A 
HETATM    7  C   UNL     1     -42.421  55.578 -50.959  1.00  0.00     0.030 A 
ENDROOT
BRANCH   1   8
HETATM    8  N   UNL     1     -42.980  57.831 -51.537  1.00  0.00    -0.323 N 
HETATM    9  C   UNL     1     -44.285  58.053 -51.151  1.00  0.00     0.261 C 
HETATM   10  O   UNL     1     -45.128  57.182 -50.948  1.00  0.00    -0.267 OA
HETATM   11  H   UNL     1     -42.386  58.658 -51.619  1.00  0.00     0.169 HD
BRANCH   9  12
HETATM   12  C   UNL     1     -44.652  59.499 -51.001  1.00  0.00     0.100 A 
HETATM   13  C   UNL     1     -43.696  60.561 -50.569  1.00  0.00     0.261 A 
HETATM   14  N   UNL     1     -44.175  61.851 -50.537  1.00  0.00    -0.327 N 
HETATM   15  O   UNL     1     -42.534  60.303 -50.259  1.00  0.00    -0.267 OA
HETATM   16  C   UNL     1     -45.461  62.210 -50.866  1.00  0.00     0.008 A 
HETATM   17  H   UNL     1     -43.510  62.560 -50.250  1.00  0.00     0.169 HD
HETATM   18  C   UNL     1     -45.806  63.666 -50.790  1.00  0.00     0.068 C 
HETATM   19  C   UNL     1     -46.329  61.258 -51.237  1.00  0.00     0.026 A 
HETATM   20  C   UNL     1     -45.909  59.875 -51.306  1.00  0.00     0.025 A 
ENDBRANCH   9  12
ENDBRANCH   1   8
BRANCH   5  21
HETATM   21  C   UNL     1     -40.433  52.837 -52.596  1.00  0.00     0.183 A 
HETATM   22  N   UNL     1     -39.660  52.273 -51.649  1.00  0.00    -0.152 NA
HETATM   23  N   UNL     1     -39.255  51.145 -52.247  1.00  0.00    -0.263 N 
HETATM   24  H   UNL     1     -38.627  50.519 -51.756  1.00  0.00     0.190 HD
HETATM   25  C   UNL     1     -39.786  51.023 -53.495  1.00  0.00     0.118 A 
HETATM   26  C   UNL     1     -39.503  49.887 -54.397  1.00  0.00     0.093 C 
HETATM   27  N   UNL     1     -40.553  52.063 -53.727  1.00  0.00    -0.212 NA
ENDBRANCH   5  21
TORSDOF 3
ENDMDL
MODEL 6
REMARK VINA RESULT:      -7.5     17.189     19.414
REMARK  3 active torsions:
REMARK  status: ('A' for Active; 'I' for Inactive)
REMARK    1  A    between atoms: C_6  and  C_7 
REMARK       I    between atoms: C_7  and  N_8 
REMARK    2  A    between atoms: N_8  and  C_9 
REMARK    3  A    between atoms: C_13  and  C_14 
ROOT
HETATM    1  C   UNL     1     -41.913  56.986 -51.756  1.00  0.00     0.036 A 
HETATM    2  C   UNL     1     -43.283  57.229 -51.675  1.00  0.00     0.054 A 
HETATM    3  C   UNL     1     -43.775  58.509 -51.355  1.00  0.00     0.050 A 
HETATM    4 CL   UNL     1     -45.497  58.641 -51.206  1.00  0.00    -0.083 Cl
HETATM    5  C   UNL     1     -42.893  59.575 -51.120  1.00  0.00     0.035 A 
HETATM    6  C   UNL     1     -41.513  59.320 -51.224  1.00  0.00     0.019 A 
HETATM    7  C   UNL     1     -41.030  58.046 -51.538  1.00  0.00     0.030 A 
ENDROOT
BRANCH   1   8
HETATM    8  N   UNL     1     -41.343  55.720 -52.002  1.00  0.00    -0.323 N 
HETATM    9  C   UNL     1     -40.886  55.212 -53.201  1.00  0.00     0.261 C 
HETATM   10  O   UNL     1     -40.798  55.839 -54.254  1.00  0.00    -0.267 OA
HETATM   11  H   UNL     1     -41.311  55.087 -51.201  1.00  0.00     0.169 HD
BRANCH   9  12
HETATM   12  C   UNL     1     -40.498  53.765 -53.156  1.00  0.00     0.100 A 
HETATM   13  C   UNL     1     -39.990  53.076 -51.932  1.00  0.00     0.261 A 
HETATM   14  N   UNL     1     -39.732  51.728 -52.042  1.00  0.00    -0.327 N 
HETATM   15  O   UNL     1     -39.813  53.676 -50.874  1.00  0.00    -0.267 OA
HETATM   16  C   UNL     1     -39.903  50.996 -53.193  1.00  0.00     0.008 A 
HETATM   17  H   UNL     1     -39.396  51.276 -51.199  1.00  0.00     0.169 HD
HETATM   18  C   UNL     1     -39.588  49.533 -53.127  1.00  0.00     0.068 C 
HETATM   19  C   UNL     1     -40.342  51.613 -54.299  1.00  0.00     0.026 A 
HETATM   20  C   UNL     1     -40.645  53.028 -54.273  1.00  0.00     0.025 A 
ENDBRANCH   9  12
ENDBRANCH   1   8
BRANCH   5  21
HETATM   21  C   UNL     1     -43.322  60.921 -50.746  1.00  0.00     0.183 A 
HETATM   22  N   UNL     1     -43.336  61.954 -51.609  1.00  0.00    -0.152 NA
HETATM   23  N   UNL     1     -43.770  62.961 -50.841  1.00  0.00    -0.263 N 
HETATM   24  H   UNL     1     -43.857  63.889 -51.239  1.00  0.00     0.190 HD
HETATM   25  C   UNL     1     -44.033  62.544 -49.571  1.00  0.00     0.118 A 
HETATM   26  C   UNL     1     -44.509  63.440 -48.498  1.00  0.00     0.093 C 
HETATM   27  N   UNL     1     -43.784  61.257 -49.494  1.00  0.00    -0.212 NA
ENDBRANCH   5  21
TORSDOF 3
ENDMDL
MODEL 7
REMARK VINA RESULT:      -7.5     15.441     19.447
REMARK  3 active torsions:
REMARK  status: ('A' for Active; 'I' for Inactive)
REMARK    1  A    between atoms: C_6  and  C_7 
REMARK       I    between atoms: C_7  and  N_8 
REMARK    2  A    between atoms: N_8  and  C_9 
REMARK    3  A    between atoms: C_13  and  C_14 
ROOT
HETATM    1  C   UNL     1     -42.700  55.457 -55.238  1.00  0.00     0.036 A 
HETATM    2  C   UNL     1     -43.402  56.584 -54.811  1.00  0.00     0.054 A 
HETATM    3  C   UNL     1     -43.995  57.462 -55.738  1.00  0.00     0.050 A 
HETATM    4 CL   UNL     1     -44.761  58.865 -55.065  1.00  0.00    -0.083 Cl
HETATM    5  C   UNL     1     -43.901  57.217 -57.117  1.00  0.00     0.035 A 
HETATM    6  C   UNL     1     -43.206  56.066 -57.532  1.00  0.00     0.019 A 
HETATM    7  C   UNL     1     -42.615  55.199 -56.608  1.00  0.00     0.030 A 
ENDROOT
BRANCH   1   8
HETATM    8  N   UNL     1     -42.021  54.569 -54.378  1.00  0.00    -0.323 N 
HETATM    9  C   UNL     1     -40.681  54.242 -54.380  1.00  0.00     0.261 C 
HETATM   10  O   UNL     1     -39.819  54.768 -55.080  1.00  0.00    -0.267 OA
HETATM   11  H   UNL     1     -42.607  54.074 -53.703  1.00  0.00     0.169 HD
BRANCH   9  12
HETATM   12  C   UNL     1     -40.311  53.131 -53.445  1.00  0.00     0.100 A 
HETATM   13  C   UNL     1     -40.359  53.243 -51.956  1.00  0.00     0.261 A 
HETATM   14  N   UNL     1     -40.043  52.112 -51.238  1.00  0.00    -0.327 N 
HETATM   15  O   UNL     1     -40.669  54.291 -51.393  1.00  0.00    -0.267 OA
HETATM   16  C   UNL     1     -39.684  50.910 -51.801  1.00  0.00     0.008 A 
HETATM   17  H   UNL     1     -40.089  52.205 -50.230  1.00  0.00     0.169 HD
HETATM   18  C   UNL     1     -39.388  49.778 -50.866  1.00  0.00     0.068 C 
HETATM   19  C   UNL     1     -39.622  50.808 -53.137  1.00  0.00     0.026 A 
HETATM   20  C   UNL     1     -39.945  51.946 -53.970  1.00  0.00     0.025 A 
ENDBRANCH   9  12
ENDBRANCH   1   8
BRANCH   5  21
HETATM   21  C   UNL     1     -44.455  58.099 -58.141  1.00  0.00     0.183 A 
HETATM   22  N   UNL     1     -43.810  59.186 -58.602  1.00  0.00    -0.152 NA
HETATM   23  N   UNL     1     -44.683  59.682 -59.488  1.00  0.00    -0.263 N 
HETATM   24  H   UNL     1     -44.459  60.537 -59.985  1.00  0.00     0.190 HD
HETATM   25  C   UNL     1     -45.800  58.907 -59.576  1.00  0.00     0.118 A 
HETATM   26  C   UNL     1     -46.943  59.215 -60.460  1.00  0.00     0.093 C 
HETATM   27  N   UNL     1     -45.668  57.889 -58.757  1.00  0.00    -0.212 NA
ENDBRANCH   5  21
TORSDOF 3
ENDMDL
MODEL 8
REMARK VINA RESULT:      -7.4     15.174     17.163
REMARK  3 active torsions:
REMARK  status: ('A' for Active; 'I' for Inactive)
REMARK    1  A    between atoms: C_6  and  C_7 
REMARK       I    between atoms: C_7  and  N_8 
REMARK    2  A    between atoms: N_8  and  C_9 
REMARK    3  A    between atoms: C_13  and  C_14 
ROOT
HETATM    1  C   UNL     1     -41.117  55.811 -54.905  1.00  0.00     0.036 A 
HETATM    2  C   UNL     1     -41.235  56.133 -53.554  1.00  0.00     0.054 A 
HETATM    3  C   UNL     1     -41.004  55.168 -52.555  1.00  0.00     0.050 A 
HETATM    4 CL   UNL     1     -41.272  55.690 -50.924  1.00  0.00    -0.083 Cl
HETATM    5  C   UNL     1     -40.638  53.857 -52.900  1.00  0.00     0.035 A 
HETATM    6  C   UNL     1     -40.503  53.552 -54.267  1.00  0.00     0.019 A 
HETATM    7  C   UNL     1     -40.739  54.513 -55.254  1.00  0.00     0.030 A 
ENDROOT
BRANCH   1   8
HETATM    8  N   UNL     1     -41.399  56.701 -55.963  1.00  0.00    -0.323 N 
HETATM    9  C   UNL     1     -42.491  56.700 -56.805  1.00  0.00     0.261 C 
HETATM   10  O   UNL     1     -43.476  55.973 -56.697  1.00  0.00    -0.267 OA
HETATM   11  H   UNL     1     -40.679  57.399 -56.156  1.00  0.00     0.169 HD
BRANCH   9  12
HETATM   12  C   UNL     1     -42.402  57.676 -57.940  1.00  0.00     0.100 A 
HETATM   13  C   UNL     1     -41.986  59.102 -57.782  1.00  0.00     0.261 A 
HETATM   14  N   UNL     1     -41.899  59.853 -58.932  1.00  0.00    -0.327 N 
HETATM   15  O   UNL     1     -41.729  59.586 -56.681  1.00  0.00    -0.267 OA
HETATM   16  C   UNL     1     -42.176  59.378 -60.192  1.00  0.00     0.008 A 
HETATM   17  H   UNL     1     -41.609  60.816 -58.806  1.00  0.00     0.169 HD
HETATM   18  C   UNL     1     -42.012  60.334 -61.335  1.00  0.00     0.068 C 
HETATM   19  C   UNL     1     -42.566  58.104 -60.338  1.00  0.00     0.026 A 
HETATM   20  C   UNL     1     -42.678  57.240 -59.183  1.00  0.00     0.025 A 
ENDBRANCH   9  12
ENDBRANCH   1   8
BRANCH   5  21
HETATM   21  C   UNL     1     -40.418  52.790 -51.926  1.00  0.00     0.183 A 
HETATM   22  N   UNL     1     -40.813  52.873 -50.642  1.00  0.00    -0.152 NA
HETATM   23  N   UNL     1     -40.393  51.706 -50.138  1.00  0.00    -0.263 N 
HETATM   24  H   UNL     1     -40.544  51.504 -49.156  1.00  0.00     0.190 HD
HETATM   25  C   UNL     1     -39.792  50.939 -51.089  1.00  0.00     0.118 A 
HETATM   26  C   UNL     1     -39.214  49.606 -50.821  1.00  0.00     0.093 C 
HETATM   27  N   UNL     1     -39.818  51.589 -52.230  1.00  0.00    -0.212 NA
ENDBRANCH   5  21
TORSDOF 3
ENDMDL
MODEL 9
REMARK VINA RESULT:      -7.4     16.001     18.094
REMARK  3 active torsions:
REMARK  status: ('A' for Active; 'I' for Inactive)
REMARK    1  A    between atoms: C_6  and  C_7 
REMARK       I    between atoms: C_7  and  N_8 
REMARK    2  A    between atoms: N_8  and  C_9 
REMARK    3  A    between atoms: C_13  and  C_14 
ROOT
HETATM    1  C   UNL     1     -43.003  55.645 -55.584  1.00  0.00     0.036 A 
HETATM    2  C   UNL     1     -42.483  56.546 -54.655  1.00  0.00     0.054 A 
HETATM    3  C   UNL     1     -41.812  56.093 -53.503  1.00  0.00     0.050 A 
HETATM    4 CL   UNL     1     -41.295  57.323 -52.397  1.00  0.00    -0.083 Cl
HETATM    5  C   UNL     1     -41.641  54.719 -53.269  1.00  0.00     0.035 A 
HETATM    6  C   UNL     1     -42.154  53.822 -54.225  1.00  0.00     0.019 A 
HETATM    7  C   UNL     1     -42.824  54.278 -55.365  1.00  0.00     0.030 A 
ENDROOT
BRANCH   1   8
HETATM    8  N   UNL     1     -43.746  56.018 -56.723  1.00  0.00    -0.323 N 
HETATM    9  C   UNL     1     -43.387  56.899 -57.721  1.00  0.00     0.261 C 
HETATM   10  O   UNL     1     -42.286  57.431 -57.841  1.00  0.00    -0.267 OA
HETATM   11  H   UNL     1     -44.686  55.621 -56.787  1.00  0.00     0.169 HD
BRANCH   9  12
HETATM   12  C   UNL     1     -44.478  57.208 -58.701  1.00  0.00     0.100 A 
HETATM   13  C   UNL     1     -44.451  56.795 -60.137  1.00  0.00     0.261 A 
HETATM   14  N   UNL     1     -45.559  57.106 -60.892  1.00  0.00    -0.327 N 
HETATM   15  O   UNL     1     -43.490  56.204 -60.625  1.00  0.00    -0.267 OA
HETATM   16  C   UNL     1     -46.664  57.769 -60.413  1.00  0.00     0.008 A 
HETATM   17  H   UNL     1     -45.526  56.812 -61.861  1.00  0.00     0.169 HD
HETATM   18  C   UNL     1     -47.788  58.010 -61.374  1.00  0.00     0.068 C 
HETATM   19  C   UNL     1     -46.687  58.157 -59.130  1.00  0.00     0.026 A 
HETATM   20  C   UNL     1     -45.567  57.865 -58.261  1.00  0.00     0.025 A 
ENDBRANCH   9  12
ENDBRANCH   1   8
BRANCH   5  21
HETATM   21  C   UNL     1     -40.991  54.169 -52.082  1.00  0.00     0.183 A 
HETATM   22  N   UNL     1     -40.076  53.183 -52.136  1.00  0.00    -0.152 NA
HETATM   23  N   UNL     1     -39.781  52.997 -50.843  1.00  0.00    -0.263 N 
HETATM   24  H   UNL     1     -39.116  52.278 -50.582  1.00  0.00     0.190 HD
HETATM   25  C   UNL     1     -40.472  53.857 -50.045  1.00  0.00     0.118 A 
HETATM   26  C   UNL     1     -40.363  53.873 -48.571  1.00  0.00     0.093 C 
HETATM   27  N   UNL     1     -41.221  54.623 -50.804  1.00  0.00    -0.212 NA
ENDBRANCH   5  21
TORSDOF 3
ENDMDL
MODEL 10
REMARK VINA RESULT:      -7.3      2.967      9.538
REMARK  3 active torsions:
REMARK  status: ('A' for Active; 'I' for Inactive)
REMARK    1  A    between atoms: C_6  and  C_7 
REMARK       I    between atoms: C_7  and  N_8 
REMARK    2  A    between atoms: N_8  and  C_9 
REMARK    3  A    between atoms: C_13  and  C_14 
ROOT
HETATM    1  C   UNL     1     -32.397  40.040 -49.823  1.00  0.00     0.036 A 
HETATM    2  C   UNL     1     -33.791  40.022 -49.800  1.00  0.00     0.054 A 
HETATM    3  C   UNL     1     -34.537  40.149 -50.987  1.00  0.00     0.050 A 
HETATM    4 CL   UNL     1     -36.260  40.195 -50.794  1.00  0.00    -0.083 Cl
HETATM    5  C   UNL     1     -33.892  40.285 -52.225  1.00  0.00     0.035 A 
HETATM    6  C   UNL     1     -32.485  40.283 -52.236  1.00  0.00     0.019 A 
HETATM    7  C   UNL     1     -31.749  40.162 -51.053  1.00  0.00     0.030 A 
ENDROOT
BRANCH   1   8
HETATM    8  N   UNL     1     -31.582  39.989 -48.673  1.00  0.00    -0.323 N 
HETATM    9  C   UNL     1     -31.355  38.914 -47.840  1.00  0.00     0.261 C 
HETATM   10  O   UNL     1     -31.749  37.766 -48.032  1.00  0.00    -0.267 OA
HETATM   11  H   UNL     1     -31.147  40.872 -48.400  1.00  0.00     0.169 HD
BRANCH   9  12
HETATM   12  C   UNL     1     -30.572  39.239 -46.603  1.00  0.00     0.100 A 
HETATM   13  C   UNL     1     -29.164  39.738 -46.614  1.00  0.00     0.261 A 
HETATM   14  N   UNL     1     -28.606  40.046 -45.395  1.00  0.00    -0.327 N 
HETATM   15  O   UNL     1     -28.531  39.872 -47.659  1.00  0.00    -0.267 OA
HETATM   16  C   UNL     1     -29.254  39.916 -44.189  1.00  0.00     0.008 A 
HETATM   17  H   UNL     1     -27.653  40.390 -45.422  1.00  0.00     0.169 HD
HETATM   18  C   UNL     1     -28.498  40.315 -42.959  1.00  0.00     0.068 C 
HETATM   19  C   UNL     1     -30.512  39.453 -44.171  1.00  0.00     0.026 A 
HETATM   20  C   UNL     1     -31.180  39.110 -45.408  1.00  0.00     0.025 A 
ENDBRANCH   9  12
ENDBRANCH   1   8
BRANCH   5  21
HETATM   21  C   UNL     1     -34.593  40.459 -53.495  1.00  0.00     0.183 A 
HETATM   22  N   UNL     1     -34.694  39.485 -54.419  1.00  0.00    -0.152 NA
HETATM   23  N   UNL     1     -35.384  40.088 -55.395  1.00  0.00    -0.263 N 
HETATM   24  H   UNL     1     -35.591  39.578 -56.247  1.00  0.00     0.190 HD
HETATM   25  C   UNL     1     -35.709  41.367 -55.060  1.00  0.00     0.118 A 
HETATM   26  C   UNL     1     -36.455  42.281 -55.949  1.00  0.00     0.093 C 
HETATM   27  N   UNL     1     -35.245  41.616 -53.858  1.00  0.00    -0.212 NA
ENDBRANCH   5  21
TORSDOF 3
ENDMDL
