MODEL 1
REMARK VINA RESULT:      -7.6      0.000      0.000
REMARK  7 active torsions:
REMARK  status: ('A' for Active; 'I' for Inactive)
REMARK    1  A    between atoms: C_2  and  O_3 
REMARK    2  A    between atoms: O_3  and  C_4 
REMARK    3  A    between atoms: C_4  and  C_5 
REMARK    4  A    between atoms: C_6  and  C_7 
REMARK    5  A    between atoms: C_18  and  S_19 
REMARK    6  A    between atoms: S_19  and  C_20 
REMARK    7  A    between atoms: C_20  and  C_21 
ROOT
HETATM    1  C   UNL     1     -43.182  58.065 -52.081  1.00  0.00     0.070 A 
HETATM    2  C   UNL     1     -43.201  56.553 -52.251  1.00  0.00     0.204 A 
HETATM    3  N   UNL     1     -42.324  55.889 -51.279  1.00  0.00    -0.082 N 
HETATM    4  C   UNL     1     -41.606  56.546 -50.319  1.00  0.00     0.726 A 
HETATM    5  N   UNL     1     -41.684  57.888 -50.243  1.00  0.00    -0.192 N 
HETATM    6  N   UNL     1     -42.180  54.554 -51.171  1.00  0.00    -0.128 NA
HETATM    7  C   UNL     1     -41.285  54.479 -50.179  1.00  0.00     0.226 A 
HETATM    8  N   UNL     1     -40.933  55.678 -49.608  1.00  0.00    -0.035 NA
HETATM    9  C   UNL     1     -42.458  58.663 -51.102  1.00  0.00     0.037 A 
HETATM   10  C   UNL     1     -42.454  60.146 -50.826  1.00  0.00     0.070 C 
HETATM   11  H   UNL     1     -41.127  58.373 -49.544  1.00  0.00     0.184 HD
ENDROOT
BRANCH   7  12
HETATM   12  S   UNL     1     -40.644  52.941 -49.682  1.00  0.00    -0.083 SA
BRANCH  12  13
HETATM   13  C   UNL     1     -39.263  52.775 -50.845  1.00  0.00     0.123 C 
BRANCH  13  14
HETATM   14  C   UNL     1     -39.661  51.965 -52.057  1.00  0.00    -0.027 A 
HETATM   15  C   UNL     1     -39.607  50.563 -52.089  1.00  0.00     0.041 A 
HETATM   16 CL   UNL     1     -39.098  49.631 -50.725  1.00  0.00    -0.084 Cl
HETATM   17  C   UNL     1     -39.965  49.862 -53.246  1.00  0.00     0.024 A 
HETATM   18  C   UNL     1     -40.373  50.550 -54.388  1.00  0.00     0.002 A 
HETATM   19  C   UNL     1     -40.422  51.940 -54.377  1.00  0.00     0.001 A 
HETATM   20  C   UNL     1     -40.069  52.643 -53.223  1.00  0.00     0.009 A 
ENDBRANCH  13  14
ENDBRANCH  12  13
ENDBRANCH   7  12
BRANCH   2  21
HETATM   21  C   UNL     1     -42.906  56.063 -53.668  1.00  0.00    -0.006 A 
HETATM   22  C   UNL     1     -41.719  56.335 -54.372  1.00  0.00     0.042 A 
HETATM   23 CL   UNL     1     -40.447  57.304 -53.721  1.00  0.00    -0.084 Cl
HETATM   24  C   UNL     1     -41.525  55.829 -55.663  1.00  0.00     0.024 A 
HETATM   25  C   UNL     1     -42.505  55.049 -56.274  1.00  0.00     0.002 A 
HETATM   26  C   UNL     1     -43.688  54.775 -55.597  1.00  0.00     0.001 A 
HETATM   27  C   UNL     1     -43.887  55.276 -54.310  1.00  0.00     0.011 A 
ENDBRANCH   2  21
BRANCH   1  28
HETATM   28  C   UNL     1     -44.053  58.782 -53.032  1.00  0.00     0.293 C 
HETATM   29  O   UNL     1     -45.270  58.756 -52.962  1.00  0.00    -0.259 OA
BRANCH  28  30
HETATM   30  O   UNL     1     -43.310  59.359 -54.007  1.00  0.00    -0.318 OA
BRANCH  30  31
HETATM   31  C   UNL     1     -44.008  59.671 -55.222  1.00  0.00     0.174 C 
HETATM   32  C   UNL     1     -43.431  58.890 -56.388  1.00  0.00     0.034 C 
ENDBRANCH  30  31
ENDBRANCH  28  30
ENDBRANCH   1  28
TORSDOF 7
ENDMDL
MODEL 2
REMARK VINA RESULT:      -7.6      2.004      3.972
REMARK  7 active torsions:
REMARK  status: ('A' for Active; 'I' for Inactive)
REMARK    1  A    between atoms: C_2  and  O_3 
REMARK    2  A    between atoms: O_3  and  C_4 
REMARK    3  A    between atoms: C_4  and  C_5 
REMARK    4  A    between atoms: C_6  and  C_7 
REMARK    5  A    between atoms: C_18  and  S_19 
REMARK    6  A    between atoms: S_19  and  C_20 
REMARK    7  A    between atoms: C_20  and  C_21 
ROOT
HETATM    1  C   UNL     1     -43.060  58.505 -54.799  1.00  0.00     0.070 A 
HETATM    2  C   UNL     1     -42.222  58.129 -53.586  1.00  0.00     0.204 A 
HETATM    3  N   UNL     1     -42.405  56.720 -53.219  1.00  0.00    -0.082 N 
HETATM    4  C   UNL     1     -43.204  55.846 -53.903  1.00  0.00     0.726 A 
HETATM    5  N   UNL     1     -43.884  56.282 -54.981  1.00  0.00    -0.192 N 
HETATM    6  N   UNL     1     -41.753  56.104 -52.214  1.00  0.00    -0.128 NA
HETATM    7  C   UNL     1     -42.279  54.876 -52.291  1.00  0.00     0.226 A 
HETATM    8  N   UNL     1     -43.148  54.669 -53.335  1.00  0.00    -0.035 NA
HETATM    9  C   UNL     1     -43.828  57.593 -55.445  1.00  0.00     0.037 A 
HETATM   10  C   UNL     1     -44.622  57.876 -56.697  1.00  0.00     0.070 C 
HETATM   11  H   UNL     1     -44.497  55.635 -55.468  1.00  0.00     0.184 HD
ENDROOT
BRANCH   7  12
HETATM   12  S   UNL     1     -41.854  53.658 -51.124  1.00  0.00    -0.083 SA
BRANCH  12  13
HETATM   13  C   UNL     1     -40.114  53.390 -51.555  1.00  0.00     0.123 C 
BRANCH  13  14
HETATM   14  C   UNL     1     -39.921  52.068 -52.262  1.00  0.00    -0.027 A 
HETATM   15  C   UNL     1     -39.985  51.934 -53.658  1.00  0.00     0.041 A 
HETATM   16 CL   UNL     1     -40.270  53.283 -54.700  1.00  0.00    -0.084 Cl
HETATM   17  C   UNL     1     -39.822  50.681 -54.260  1.00  0.00     0.024 A 
HETATM   18  C   UNL     1     -39.603  49.548 -53.480  1.00  0.00     0.002 A 
HETATM   19  C   UNL     1     -39.546  49.662 -52.095  1.00  0.00     0.001 A 
HETATM   20  C   UNL     1     -39.705  50.910 -51.489  1.00  0.00     0.009 A 
ENDBRANCH  13  14
ENDBRANCH  12  13
ENDBRANCH   7  12
BRANCH   2  21
HETATM   21  C   UNL     1     -42.411  59.034 -52.369  1.00  0.00    -0.006 A 
HETATM   22  C   UNL     1     -41.359  59.545 -51.589  1.00  0.00     0.042 A 
HETATM   23 CL   UNL     1     -39.701  59.175 -51.896  1.00  0.00    -0.084 Cl
HETATM   24  C   UNL     1     -41.623  60.385 -50.500  1.00  0.00     0.024 A 
HETATM   25  C   UNL     1     -42.933  60.726 -50.169  1.00  0.00     0.002 A 
HETATM   26  C   UNL     1     -43.987  60.225 -50.924  1.00  0.00     0.001 A 
HETATM   27  C   UNL     1     -43.730  59.387 -52.011  1.00  0.00     0.011 A 
ENDBRANCH   2  21
BRANCH   1  28
HETATM   28  C   UNL     1     -42.908  59.913 -55.214  1.00  0.00     0.293 C 
HETATM   29  O   UNL     1     -43.763  60.758 -55.009  1.00  0.00    -0.259 OA
BRANCH  28  30
HETATM   30  O   UNL     1     -41.762  60.074 -55.919  1.00  0.00    -0.318 OA
BRANCH  30  31
HETATM   31  C   UNL     1     -41.888  60.776 -57.164  1.00  0.00     0.174 C 
HETATM   32  C   UNL     1     -41.761  59.818 -58.335  1.00  0.00     0.034 C 
ENDBRANCH  30  31
ENDBRANCH  28  30
ENDBRANCH   1  28
TORSDOF 7
ENDMDL
MODEL 3
REMARK VINA RESULT:      -7.5      2.607      4.559
REMARK  7 active torsions:
REMARK  status: ('A' for Active; 'I' for Inactive)
REMARK    1  A    between atoms: C_2  and  O_3 
REMARK    2  A    between atoms: O_3  and  C_4 
REMARK    3  A    between atoms: C_4  and  C_5 
REMARK    4  A    between atoms: C_6  and  C_7 
REMARK    5  A    between atoms: C_18  and  S_19 
REMARK    6  A    between atoms: S_19  and  C_20 
REMARK    7  A    between atoms: C_20  and  C_21 
ROOT
HETATM    1  C   UNL     1     -42.760  57.258 -56.878  1.00  0.00     0.070 A 
HETATM    2  C   UNL     1     -42.247  57.411 -55.454  1.00  0.00     0.204 A 
HETATM    3  N   UNL     1     -42.366  56.158 -54.699  1.00  0.00    -0.082 N 
HETATM    4  C   UNL     1     -42.847  54.990 -55.223  1.00  0.00     0.726 A 
HETATM    5  N   UNL     1     -43.251  54.962 -56.507  1.00  0.00    -0.192 N 
HETATM    6  N   UNL     1     -41.949  55.992 -53.430  1.00  0.00    -0.128 NA
HETATM    7  C   UNL     1     -42.295  54.716 -53.219  1.00  0.00     0.226 A 
HETATM    8  N   UNL     1     -42.818  54.058 -54.305  1.00  0.00    -0.035 NA
HETATM    9  C   UNL     1     -43.216  56.071 -57.348  1.00  0.00     0.037 A 
HETATM   10  C   UNL     1     -43.665  55.827 -58.767  1.00  0.00     0.070 C 
HETATM   11  H   UNL     1     -43.633  54.097 -56.882  1.00  0.00     0.184 HD
ENDROOT
BRANCH   7  12
HETATM   12  S   UNL     1     -42.072  53.987 -51.655  1.00  0.00    -0.083 SA
BRANCH  12  13
HETATM   13  C   UNL     1     -40.291  53.650 -51.706  1.00  0.00     0.123 C 
BRANCH  13  14
HETATM   14  C   UNL     1     -40.018  52.186 -51.963  1.00  0.00    -0.027 A 
HETATM   15  C   UNL     1     -39.854  51.655 -53.252  1.00  0.00     0.041 A 
HETATM   16 CL   UNL     1     -39.928  52.643 -54.669  1.00  0.00    -0.084 Cl
HETATM   17  C   UNL     1     -39.625  50.287 -53.435  1.00  0.00     0.024 A 
HETATM   18  C   UNL     1     -39.566  49.430 -52.338  1.00  0.00     0.002 A 
HETATM   19  C   UNL     1     -39.737  49.938 -51.054  1.00  0.00     0.001 A 
HETATM   20  C   UNL     1     -39.961  51.303 -50.866  1.00  0.00     0.009 A 
ENDBRANCH  13  14
ENDBRANCH  12  13
ENDBRANCH   7  12
BRANCH   2  21
HETATM   21  C   UNL     1     -42.860  58.573 -54.673  1.00  0.00    -0.006 A 
HETATM   22  C   UNL     1     -44.222  58.675 -54.337  1.00  0.00     0.042 A 
HETATM   23 CL   UNL     1     -45.391  57.495 -54.809  1.00  0.00    -0.084 Cl
HETATM   24  C   UNL     1     -44.695  59.767 -53.601  1.00  0.00     0.024 A 
HETATM   25  C   UNL     1     -43.825  60.775 -53.190  1.00  0.00     0.002 A 
HETATM   26  C   UNL     1     -42.476  60.697 -53.518  1.00  0.00     0.001 A 
HETATM   27  C   UNL     1     -41.998  59.610 -54.251  1.00  0.00     0.011 A 
ENDBRANCH   2  21
BRANCH   1  28
HETATM   28  C   UNL     1     -42.658  58.490 -57.683  1.00  0.00     0.293 C 
HETATM   29  O   UNL     1     -41.589  58.987 -57.998  1.00  0.00    -0.259 OA
BRANCH  28  30
HETATM   30  O   UNL     1     -43.890  59.006 -57.913  1.00  0.00    -0.318 OA
BRANCH  30  31
HETATM   31  C   UNL     1     -43.941  60.421 -58.147  1.00  0.00     0.174 C 
HETATM   32  C   UNL     1     -44.676  61.124 -57.022  1.00  0.00     0.034 C 
ENDBRANCH  30  31
ENDBRANCH  28  30
ENDBRANCH   1  28
TORSDOF 7
ENDMDL
MODEL 4
REMARK VINA RESULT:      -7.4      3.248      5.292
REMARK  7 active torsions:
REMARK  status: ('A' for Active; 'I' for Inactive)
REMARK    1  A    between atoms: C_2  and  O_3 
REMARK    2  A    between atoms: O_3  and  C_4 
REMARK    3  A    between atoms: C_4  and  C_5 
REMARK    4  A    between atoms: C_6  and  C_7 
REMARK    5  A    between atoms: C_18  and  S_19 
REMARK    6  A    between atoms: S_19  and  C_20 
REMARK    7  A    between atoms: C_20  and  C_21 
ROOT
HETATM    1  C   UNL     1     -43.162  57.985 -58.209  1.00  0.00     0.070 A 
HETATM    2  C   UNL     1     -42.575  57.984 -56.805  1.00  0.00     0.204 A 
HETATM    3  N   UNL     1     -42.624  56.647 -56.200  1.00  0.00    -0.082 N 
HETATM    4  C   UNL     1     -43.106  55.535 -56.834  1.00  0.00     0.726 A 
HETATM    5  N   UNL     1     -43.580  55.648 -58.090  1.00  0.00    -0.192 N 
HETATM    6  N   UNL     1     -42.134  56.344 -54.983  1.00  0.00    -0.128 NA
HETATM    7  C   UNL     1     -42.438  55.043 -54.909  1.00  0.00     0.226 A 
HETATM    8  N   UNL     1     -43.006  54.503 -56.038  1.00  0.00    -0.035 NA
HETATM    9  C   UNL     1     -43.617  56.849 -58.792  1.00  0.00     0.037 A 
HETATM   10  C   UNL     1     -44.138  56.762 -60.205  1.00  0.00     0.070 C 
HETATM   11  H   UNL     1     -43.963  54.823 -58.545  1.00  0.00     0.184 HD
ENDROOT
BRANCH   7  12
HETATM   12  S   UNL     1     -42.113  54.141 -53.458  1.00  0.00    -0.083 SA
BRANCH  12  13
HETATM   13  C   UNL     1     -40.381  53.687 -53.740  1.00  0.00     0.123 C 
BRANCH  13  14
HETATM   14  C   UNL     1     -40.117  52.253 -53.344  1.00  0.00    -0.027 A 
HETATM   15  C   UNL     1     -39.760  51.876 -52.039  1.00  0.00     0.041 A 
HETATM   16 CL   UNL     1     -39.614  53.026 -50.757  1.00  0.00    -0.084 Cl
HETATM   17  C   UNL     1     -39.505  50.535 -51.731  1.00  0.00     0.024 A 
HETATM   18  C   UNL     1     -39.592  49.556 -52.719  1.00  0.00     0.002 A 
HETATM   19  C   UNL     1     -39.934  49.914 -54.019  1.00  0.00     0.001 A 
HETATM   20  C   UNL     1     -40.194  51.251 -54.330  1.00  0.00     0.009 A 
ENDBRANCH  13  14
ENDBRANCH  12  13
ENDBRANCH   7  12
BRANCH   2  21
HETATM   21  C   UNL     1     -43.170  59.027 -55.859  1.00  0.00    -0.006 A 
HETATM   22  C   UNL     1     -44.525  59.081 -55.488  1.00  0.00     0.042 A 
HETATM   23 CL   UNL     1     -45.706  57.979 -56.096  1.00  0.00    -0.084 Cl
HETATM   24  C   UNL     1     -44.982  60.062 -54.599  1.00  0.00     0.024 A 
HETATM   25  C   UNL     1     -44.101  61.003 -54.069  1.00  0.00     0.002 A 
HETATM   26  C   UNL     1     -42.759  60.970 -54.429  1.00  0.00     0.001 A 
HETATM   27  C   UNL     1     -42.298  59.995 -55.315  1.00  0.00     0.011 A 
ENDBRANCH   2  21
BRANCH   1  28
HETATM   28  C   UNL     1     -43.133  59.306 -58.865  1.00  0.00     0.293 C 
HETATM   29  O   UNL     1     -44.143  59.938 -59.125  1.00  0.00    -0.259 OA
BRANCH  28  30
HETATM   30  O   UNL     1     -41.862  59.634 -59.205  1.00  0.00    -0.318 OA
BRANCH  30  31
HETATM   31  C   UNL     1     -41.629  61.023 -59.482  1.00  0.00     0.174 C 
HETATM   32  C   UNL     1     -40.897  61.685 -58.329  1.00  0.00     0.034 C 
ENDBRANCH  30  31
ENDBRANCH  28  30
ENDBRANCH   1  28
TORSDOF 7
ENDMDL
MODEL 5
REMARK VINA RESULT:      -7.3      2.607      4.647
REMARK  7 active torsions:
REMARK  status: ('A' for Active; 'I' for Inactive)
REMARK    1  A    between atoms: C_2  and  O_3 
REMARK    2  A    between atoms: O_3  and  C_4 
REMARK    3  A    between atoms: C_4  and  C_5 
REMARK    4  A    between atoms: C_6  and  C_7 
REMARK    5  A    between atoms: C_18  and  S_19 
REMARK    6  A    between atoms: S_19  and  C_20 
REMARK    7  A    between atoms: C_20  and  C_21 
ROOT
HETATM    1  C   UNL     1     -42.775  58.356 -55.171  1.00  0.00     0.070 A 
HETATM    2  C   UNL     1     -41.527  57.762 -54.533  1.00  0.00     0.204 A 
HETATM    3  N   UNL     1     -41.502  56.299 -54.654  1.00  0.00    -0.082 N 
HETATM    4  C   UNL     1     -42.465  55.566 -55.292  1.00  0.00     0.726 A 
HETATM    5  N   UNL     1     -43.517  56.199 -55.844  1.00  0.00    -0.192 N 
HETATM    6  N   UNL     1     -40.497  55.517 -54.220  1.00  0.00    -0.128 NA
HETATM    7  C   UNL     1     -40.963  54.306 -54.548  1.00  0.00     0.226 A 
HETATM    8  N   UNL     1     -42.152  54.297 -55.236  1.00  0.00    -0.035 NA
HETATM    9  C   UNL     1     -43.693  57.580 -55.799  1.00  0.00     0.037 A 
HETATM   10  C   UNL     1     -44.909  58.106 -56.519  1.00  0.00     0.070 C 
HETATM   11  H   UNL     1     -44.243  55.646 -56.292  1.00  0.00     0.184 HD
ENDROOT
BRANCH   7  12
HETATM   12  S   UNL     1     -40.082  52.872 -54.110  1.00  0.00    -0.083 SA
BRANCH  12  13
HETATM   13  C   UNL     1     -41.077  52.296 -52.708  1.00  0.00     0.123 C 
BRANCH  13  14
HETATM   14  C   UNL     1     -40.978  53.247 -51.537  1.00  0.00    -0.027 A 
HETATM   15  C   UNL     1     -42.060  54.021 -51.090  1.00  0.00     0.041 A 
HETATM   16 CL   UNL     1     -43.619  53.937 -51.830  1.00  0.00    -0.084 Cl
HETATM   17  C   UNL     1     -41.907  54.904 -50.015  1.00  0.00     0.024 A 
HETATM   18  C   UNL     1     -40.674  55.032 -49.379  1.00  0.00     0.002 A 
HETATM   19  C   UNL     1     -39.588  54.280 -49.817  1.00  0.00     0.001 A 
HETATM   20  C   UNL     1     -39.737  53.395 -50.887  1.00  0.00     0.009 A 
ENDBRANCH  13  14
ENDBRANCH  12  13
ENDBRANCH   7  12
BRANCH   2  21
HETATM   21  C   UNL     1     -41.281  58.189 -53.086  1.00  0.00    -0.006 A 
HETATM   22  C   UNL     1     -42.207  58.025 -52.041  1.00  0.00     0.042 A 
HETATM   23 CL   UNL     1     -43.775  57.343 -52.280  1.00  0.00    -0.084 Cl
HETATM   24  C   UNL     1     -41.889  58.428 -50.738  1.00  0.00     0.024 A 
HETATM   25  C   UNL     1     -40.651  59.002 -50.456  1.00  0.00     0.002 A 
HETATM   26  C   UNL     1     -39.725  59.179 -51.477  1.00  0.00     0.001 A 
HETATM   27  C   UNL     1     -40.036  58.779 -52.778  1.00  0.00     0.011 A 
ENDBRANCH   2  21
BRANCH   1  28
HETATM   28  C   UNL     1     -42.847  59.826 -55.081  1.00  0.00     0.293 C 
HETATM   29  O   UNL     1     -43.748  60.410 -54.502  1.00  0.00    -0.259 OA
BRANCH  28  30
HETATM   30  O   UNL     1     -41.849  60.391 -55.803  1.00  0.00    -0.318 OA
BRANCH  30  31
HETATM   31  C   UNL     1     -42.239  60.979 -57.053  1.00  0.00     0.174 C 
HETATM   32  C   UNL     1     -41.731  60.149 -58.218  1.00  0.00     0.034 C 
ENDBRANCH  30  31
ENDBRANCH  28  30
ENDBRANCH   1  28
TORSDOF 7
ENDMDL
MODEL 6
REMARK VINA RESULT:      -7.2      4.054      6.809
REMARK  7 active torsions:
REMARK  status: ('A' for Active; 'I' for Inactive)
REMARK    1  A    between atoms: C_2  and  O_3 
REMARK    2  A    between atoms: O_3  and  C_4 
REMARK    3  A    between atoms: C_4  and  C_5 
REMARK    4  A    between atoms: C_6  and  C_7 
REMARK    5  A    between atoms: C_18  and  S_19 
REMARK    6  A    between atoms: S_19  and  C_20 
REMARK    7  A    between atoms: C_20  and  C_21 
ROOT
HETATM    1  C   UNL     1     -42.900  58.130 -52.153  1.00  0.00     0.070 A 
HETATM    2  C   UNL     1     -42.008  58.093 -53.385  1.00  0.00     0.204 A 
HETATM    3  N   UNL     1     -42.396  59.116 -54.364  1.00  0.00    -0.082 N 
HETATM    4  C   UNL     1     -43.411  60.013 -54.175  1.00  0.00     0.726 A 
HETATM    5  N   UNL     1     -44.122  59.971 -53.032  1.00  0.00    -0.192 N 
HETATM    6  N   UNL     1     -41.753  59.340 -55.526  1.00  0.00    -0.128 NA
HETATM    7  C   UNL     1     -42.494  60.332 -56.033  1.00  0.00     0.226 A 
HETATM    8  N   UNL     1     -43.501  60.795 -55.221  1.00  0.00    -0.035 NA
HETATM    9  C   UNL     1     -43.887  59.050 -52.015  1.00  0.00     0.037 A 
HETATM   10  C   UNL     1     -44.756  59.195 -50.791  1.00  0.00     0.070 C 
HETATM   11  H   UNL     1     -44.892  60.622 -52.910  1.00  0.00     0.184 HD
ENDROOT
BRANCH   7  12
HETATM   12  S   UNL     1     -42.162  60.960 -57.621  1.00  0.00    -0.083 SA
BRANCH  12  13
HETATM   13  C   UNL     1     -43.513  60.197 -58.560  1.00  0.00     0.123 C 
BRANCH  13  14
HETATM   14  C   UNL     1     -43.212  58.750 -58.877  1.00  0.00    -0.027 A 
HETATM   15  C   UNL     1     -42.436  58.357 -59.978  1.00  0.00     0.041 A 
HETATM   16 CL   UNL     1     -41.732  59.502 -61.063  1.00  0.00    -0.084 Cl
HETATM   17  C   UNL     1     -42.207  57.001 -60.239  1.00  0.00     0.024 A 
HETATM   18  C   UNL     1     -42.756  56.022 -59.413  1.00  0.00     0.002 A 
HETATM   19  C   UNL     1     -43.536  56.395 -58.323  1.00  0.00     0.001 A 
HETATM   20  C   UNL     1     -43.764  57.747 -58.057  1.00  0.00     0.009 A 
ENDBRANCH  13  14
ENDBRANCH  12  13
ENDBRANCH   7  12
BRANCH   2  21
HETATM   21  C   UNL     1     -41.892  56.723 -54.053  1.00  0.00    -0.006 A 
HETATM   22  C   UNL     1     -42.972  56.019 -54.615  1.00  0.00     0.042 A 
HETATM   23 CL   UNL     1     -44.593  56.614 -54.584  1.00  0.00    -0.084 Cl
HETATM   24  C   UNL     1     -42.771  54.775 -55.225  1.00  0.00     0.024 A 
HETATM   25  C   UNL     1     -41.498  54.211 -55.282  1.00  0.00     0.002 A 
HETATM   26  C   UNL     1     -40.419  54.888 -54.726  1.00  0.00     0.001 A 
HETATM   27  C   UNL     1     -40.613  56.129 -54.117  1.00  0.00     0.011 A 
ENDBRANCH   2  21
BRANCH   1  28
HETATM   28  C   UNL     1     -42.549  57.124 -51.133  1.00  0.00     0.293 C 
HETATM   29  O   UNL     1     -41.501  57.152 -50.510  1.00  0.00    -0.259 OA
BRANCH  28  30
HETATM   30  O   UNL     1     -43.494  56.153 -51.085  1.00  0.00    -0.318 OA
BRANCH  30  31
HETATM   31  C   UNL     1     -43.080  54.906 -50.508  1.00  0.00     0.174 C 
HETATM   32  C   UNL     1     -42.628  53.940 -51.587  1.00  0.00     0.034 C 
ENDBRANCH  30  31
ENDBRANCH  28  30
ENDBRANCH   1  28
TORSDOF 7
ENDMDL
MODEL 7
REMARK VINA RESULT:      -7.2      4.284      7.790
REMARK  7 active torsions:
REMARK  status: ('A' for Active; 'I' for Inactive)
REMARK    1  A    between atoms: C_2  and  O_3 
REMARK    2  A    between atoms: O_3  and  C_4 
REMARK    3  A    between atoms: C_4  and  C_5 
REMARK    4  A    between atoms: C_6  and  C_7 
REMARK    5  A    between atoms: C_18  and  S_19 
REMARK    6  A    between atoms: S_19  and  C_20 
REMARK    7  A    between atoms: C_20  and  C_21 
ROOT
HETATM    1  C   UNL     1     -42.244  54.853 -53.390  1.00  0.00     0.070 A 
HETATM    2  C   UNL     1     -42.881  56.221 -53.585  1.00  0.00     0.204 A 
HETATM    3  N   UNL     1     -42.957  56.584 -55.005  1.00  0.00    -0.082 N 
HETATM    4  C   UNL     1     -42.537  55.778 -56.027  1.00  0.00     0.726 A 
HETATM    5  N   UNL     1     -42.009  54.573 -55.739  1.00  0.00    -0.192 N 
HETATM    6  N   UNL     1     -43.514  57.718 -55.472  1.00  0.00    -0.128 NA
HETATM    7  C   UNL     1     -43.312  57.571 -56.787  1.00  0.00     0.226 A 
HETATM    8  N   UNL     1     -42.746  56.380 -57.170  1.00  0.00    -0.035 NA
HETATM    9  C   UNL     1     -41.855  54.091 -54.442  1.00  0.00     0.037 A 
HETATM   10  C   UNL     1     -41.289  52.698 -54.327  1.00  0.00     0.070 C 
HETATM   11  H   UNL     1     -41.674  53.990 -56.502  1.00  0.00     0.184 HD
ENDROOT
BRANCH   7  12
HETATM   12  S   UNL     1     -43.760  58.835 -57.896  1.00  0.00    -0.083 SA
BRANCH  12  13
HETATM   13  C   UNL     1     -43.592  57.956 -59.472  1.00  0.00     0.123 C 
BRANCH  13  14
HETATM   14  C   UNL     1     -44.935  57.497 -59.991  1.00  0.00    -0.027 A 
HETATM   15  C   UNL     1     -45.230  56.151 -60.256  1.00  0.00     0.041 A 
HETATM   16 CL   UNL     1     -44.082  54.887 -59.988  1.00  0.00    -0.084 Cl
HETATM   17  C   UNL     1     -46.484  55.782 -60.757  1.00  0.00     0.024 A 
HETATM   18  C   UNL     1     -47.454  56.751 -61.009  1.00  0.00     0.002 A 
HETATM   19  C   UNL     1     -47.174  58.091 -60.762  1.00  0.00     0.001 A 
HETATM   20  C   UNL     1     -45.926  58.463 -60.258  1.00  0.00     0.009 A 
ENDBRANCH  13  14
ENDBRANCH  12  13
ENDBRANCH   7  12
BRANCH   2  21
HETATM   21  C   UNL     1     -42.245  57.348 -52.772  1.00  0.00    -0.006 A 
HETATM   22  C   UNL     1     -42.860  57.984 -51.679  1.00  0.00     0.042 A 
HETATM   23 CL   UNL     1     -44.451  57.585 -51.140  1.00  0.00    -0.084 Cl
HETATM   24  C   UNL     1     -42.195  58.997 -50.977  1.00  0.00     0.024 A 
HETATM   25  C   UNL     1     -40.913  59.393 -51.352  1.00  0.00     0.002 A 
HETATM   26  C   UNL     1     -40.290  58.782 -52.434  1.00  0.00     0.001 A 
HETATM   27  C   UNL     1     -40.948  57.771 -53.137  1.00  0.00     0.011 A 
ENDBRANCH   2  21
BRANCH   1  28
HETATM   28  C   UNL     1     -42.148  54.437 -51.978  1.00  0.00     0.293 C 
HETATM   29  O   UNL     1     -43.121  54.109 -51.318  1.00  0.00    -0.259 OA
BRANCH  28  30
HETATM   30  O   UNL     1     -40.876  54.574 -51.532  1.00  0.00    -0.318 OA
BRANCH  30  31
HETATM   31  C   UNL     1     -40.733  55.099 -50.203  1.00  0.00     0.174 C 
HETATM   32  C   UNL     1     -39.710  54.300 -49.418  1.00  0.00     0.034 C 
ENDBRANCH  30  31
ENDBRANCH  28  30
ENDBRANCH   1  28
TORSDOF 7
ENDMDL
MODEL 8
REMARK VINA RESULT:      -7.2      3.954      6.368
REMARK  7 active torsions:
REMARK  status: ('A' for Active; 'I' for Inactive)
REMARK    1  A    between atoms: C_2  and  O_3 
REMARK    2  A    between atoms: O_3  and  C_4 
REMARK    3  A    between atoms: C_4  and  C_5 
REMARK    4  A    between atoms: C_6  and  C_7 
REMARK    5  A    between atoms: C_18  and  S_19 
REMARK    6  A    between atoms: S_19  and  C_20 
REMARK    7  A    between atoms: C_20  and  C_21 
ROOT
HETATM    1  C   UNL     1     -41.647  58.821 -52.199  1.00  0.00     0.070 A 
HETATM    2  C   UNL     1     -41.459  58.148 -53.551  1.00  0.00     0.204 A 
HETATM    3  N   UNL     1     -42.221  58.829 -54.605  1.00  0.00    -0.082 N 
HETATM    4  C   UNL     1     -42.978  59.950 -54.401  1.00  0.00     0.726 A 
HETATM    5  N   UNL     1     -43.053  60.477 -53.165  1.00  0.00    -0.192 N 
HETATM    6  N   UNL     1     -42.206  58.477 -55.904  1.00  0.00    -0.128 NA
HETATM    7  C   UNL     1     -43.053  59.377 -56.416  1.00  0.00     0.226 A 
HETATM    8  N   UNL     1     -43.522  60.318 -55.533  1.00  0.00    -0.035 NA
HETATM    9  C   UNL     1     -42.402  59.938 -52.058  1.00  0.00     0.037 A 
HETATM   10  C   UNL     1     -42.569  60.701 -50.768  1.00  0.00     0.070 C 
HETATM   11  H   UNL     1     -43.640  61.294 -53.015  1.00  0.00     0.184 HD
ENDROOT
BRANCH   7  12
HETATM   12  S   UNL     1     -43.495  59.317 -58.098  1.00  0.00    -0.083 SA
BRANCH  12  13
HETATM   13  C   UNL     1     -42.447  57.948 -58.659  1.00  0.00     0.123 C 
BRANCH  13  14
HETATM   14  C   UNL     1     -43.279  56.791 -59.162  1.00  0.00    -0.027 A 
HETATM   15  C   UNL     1     -43.409  55.584 -58.457  1.00  0.00     0.041 A 
HETATM   16 CL   UNL     1     -42.644  55.323 -56.930  1.00  0.00    -0.084 Cl
HETATM   17  C   UNL     1     -44.174  54.534 -58.979  1.00  0.00     0.024 A 
HETATM   18  C   UNL     1     -44.808  54.671 -60.212  1.00  0.00     0.002 A 
HETATM   19  C   UNL     1     -44.680  55.856 -60.929  1.00  0.00     0.001 A 
HETATM   20  C   UNL     1     -43.921  56.908 -60.410  1.00  0.00     0.009 A 
ENDBRANCH  13  14
ENDBRANCH  12  13
ENDBRANCH   7  12
BRANCH   2  21
HETATM   21  C   UNL     1     -41.741  56.646 -53.565  1.00  0.00    -0.006 A 
HETATM   22  C   UNL     1     -43.004  56.073 -53.335  1.00  0.00     0.042 A 
HETATM   23 CL   UNL     1     -44.404  57.014 -52.966  1.00  0.00    -0.084 Cl
HETATM   24  C   UNL     1     -43.177  54.684 -53.386  1.00  0.00     0.024 A 
HETATM   25  C   UNL     1     -42.099  53.846 -53.662  1.00  0.00     0.002 A 
HETATM   26  C   UNL     1     -40.840  54.393 -53.885  1.00  0.00     0.001 A 
HETATM   27  C   UNL     1     -40.662  55.776 -53.836  1.00  0.00     0.011 A 
ENDBRANCH   2  21
BRANCH   1  28
HETATM   28  C   UNL     1     -40.896  58.177 -51.105  1.00  0.00     0.293 C 
HETATM   29  O   UNL     1     -39.715  58.399 -50.893  1.00  0.00    -0.259 OA
BRANCH  28  30
HETATM   30  O   UNL     1     -41.675  57.266 -50.472  1.00  0.00    -0.318 OA
BRANCH  30  31
HETATM   31  C   UNL     1     -41.015  56.060 -50.060  1.00  0.00     0.174 C 
HETATM   32  C   UNL     1     -42.015  54.929 -49.902  1.00  0.00     0.034 C 
ENDBRANCH  30  31
ENDBRANCH  28  30
ENDBRANCH   1  28
TORSDOF 7
ENDMDL
MODEL 9
REMARK VINA RESULT:      -6.9      1.633      2.135
REMARK  7 active torsions:
REMARK  status: ('A' for Active; 'I' for Inactive)
REMARK    1  A    between atoms: C_2  and  O_3 
REMARK    2  A    between atoms: O_3  and  C_4 
REMARK    3  A    between atoms: C_4  and  C_5 
REMARK    4  A    between atoms: C_6  and  C_7 
REMARK    5  A    between atoms: C_18  and  S_19 
REMARK    6  A    between atoms: S_19  and  C_20 
REMARK    7  A    between atoms: C_20  and  C_21 
ROOT
HETATM    1  C   UNL     1     -42.955  59.125 -52.007  1.00  0.00     0.070 A 
HETATM    2  C   UNL     1     -43.231  57.680 -52.396  1.00  0.00     0.204 A 
HETATM    3  N   UNL     1     -42.520  56.740 -51.521  1.00  0.00    -0.082 N 
HETATM    4  C   UNL     1     -41.733  57.117 -50.468  1.00  0.00     0.726 A 
HETATM    5  N   UNL     1     -41.578  58.427 -50.199  1.00  0.00    -0.192 N 
HETATM    6  N   UNL     1     -42.616  55.400 -51.607  1.00  0.00    -0.128 NA
HETATM    7  C   UNL     1     -41.785  55.027 -50.626  1.00  0.00     0.226 A 
HETATM    8  N   UNL     1     -41.249  56.051 -49.884  1.00  0.00    -0.035 NA
HETATM    9  C   UNL     1     -42.173  59.441 -50.945  1.00  0.00     0.037 A 
HETATM   10  C   UNL     1     -41.920  60.845 -50.456  1.00  0.00     0.070 C 
HETATM   11  H   UNL     1     -40.970  58.701 -49.432  1.00  0.00     0.184 HD
ENDROOT
BRANCH   7  12
HETATM   12  S   UNL     1     -41.441  53.344 -50.351  1.00  0.00    -0.083 SA
BRANCH  12  13
HETATM   13  C   UNL     1     -39.836  53.202 -51.182  1.00  0.00     0.123 C 
BRANCH  13  14
HETATM   14  C   UNL     1     -39.806  52.015 -52.117  1.00  0.00    -0.027 A 
HETATM   15  C   UNL     1     -40.047  52.126 -53.496  1.00  0.00     0.041 A 
HETATM   16 CL   UNL     1     -40.379  53.643 -54.253  1.00  0.00    -0.084 Cl
HETATM   17  C   UNL     1     -40.030  50.991 -54.314  1.00  0.00     0.024 A 
HETATM   18  C   UNL     1     -39.781  49.733 -53.769  1.00  0.00     0.002 A 
HETATM   19  C   UNL     1     -39.551  49.604 -52.403  1.00  0.00     0.001 A 
HETATM   20  C   UNL     1     -39.563  50.735 -51.583  1.00  0.00     0.009 A 
ENDBRANCH  13  14
ENDBRANCH  12  13
ENDBRANCH   7  12
BRANCH   2  21
HETATM   21  C   UNL     1     -42.976  57.350 -53.866  1.00  0.00    -0.006 A 
HETATM   22  C   UNL     1     -43.985  57.213 -54.836  1.00  0.00     0.042 A 
HETATM   23 CL   UNL     1     -45.664  57.368 -54.467  1.00  0.00    -0.084 Cl
HETATM   24  C   UNL     1     -43.658  56.928 -56.168  1.00  0.00     0.024 A 
HETATM   25  C   UNL     1     -42.329  56.772 -56.554  1.00  0.00     0.002 A 
HETATM   26  C   UNL     1     -41.317  56.897 -55.608  1.00  0.00     0.001 A 
HETATM   27  C   UNL     1     -41.636  57.181 -54.279  1.00  0.00     0.011 A 
ENDBRANCH   2  21
BRANCH   1  28
HETATM   28  C   UNL     1     -43.652  60.113 -52.853  1.00  0.00     0.293 C 
HETATM   29  O   UNL     1     -44.865  60.242 -52.855  1.00  0.00    -0.259 OA
BRANCH  28  30
HETATM   30  O   UNL     1     -42.768  60.747 -53.662  1.00  0.00    -0.318 OA
BRANCH  30  31
HETATM   31  C   UNL     1     -43.251  61.085 -54.971  1.00  0.00     0.174 C 
HETATM   32  C   UNL     1     -42.401  60.428 -56.042  1.00  0.00     0.034 C 
ENDBRANCH  30  31
ENDBRANCH  28  30
ENDBRANCH   1  28
TORSDOF 7
ENDMDL
MODEL 10
REMARK VINA RESULT:      -6.8      2.298      3.434
REMARK  7 active torsions:
REMARK  status: ('A' for Active; 'I' for Inactive)
REMARK    1  A    between atoms: C_2  and  O_3 
REMARK    2  A    between atoms: O_3  and  C_4 
REMARK    3  A    between atoms: C_4  and  C_5 
REMARK    4  A    between atoms: C_6  and  C_7 
REMARK    5  A    between atoms: C_18  and  S_19 
REMARK    6  A    between atoms: S_19  and  C_20 
REMARK    7  A    between atoms: C_20  and  C_21 
ROOT
HETATM    1  C   UNL     1     -42.674  59.106 -52.723  1.00  0.00     0.070 A 
HETATM    2  C   UNL     1     -43.197  58.062 -53.699  1.00  0.00     0.204 A 
HETATM    3  N   UNL     1     -42.495  56.782 -53.546  1.00  0.00    -0.082 N 
HETATM    4  C   UNL     1     -41.517  56.548 -52.619  1.00  0.00     0.726 A 
HETATM    5  N   UNL     1     -41.149  57.541 -51.787  1.00  0.00    -0.192 N 
HETATM    6  N   UNL     1     -42.781  55.669 -54.248  1.00  0.00    -0.128 NA
HETATM    7  C   UNL     1     -41.870  54.822 -53.754  1.00  0.00     0.226 A 
HETATM    8  N   UNL     1     -41.098  55.314 -52.730  1.00  0.00    -0.035 NA
HETATM    9  C   UNL     1     -41.709  58.816 -51.817  1.00  0.00     0.037 A 
HETATM   10  C   UNL     1     -41.199  59.776 -50.771  1.00  0.00     0.070 C 
HETATM   11  H   UNL     1     -40.403  57.370 -51.119  1.00  0.00     0.184 HD
ENDROOT
BRANCH   7  12
HETATM   12  S   UNL     1     -41.718  53.214 -54.400  1.00  0.00    -0.083 SA
BRANCH  12  13
HETATM   13  C   UNL     1     -39.981  52.872 -54.009  1.00  0.00     0.123 C 
BRANCH  13  14
HETATM   14  C   UNL     1     -39.856  51.786 -52.966  1.00  0.00    -0.027 A 
HETATM   15  C   UNL     1     -39.697  50.430 -53.292  1.00  0.00     0.041 A 
HETATM   16 CL   UNL     1     -39.604  49.883 -54.929  1.00  0.00    -0.084 Cl
HETATM   17  C   UNL     1     -39.609  49.461 -52.287  1.00  0.00     0.024 A 
HETATM   18  C   UNL     1     -39.689  49.830 -50.945  1.00  0.00     0.002 A 
HETATM   19  C   UNL     1     -39.858  51.168 -50.604  1.00  0.00     0.001 A 
HETATM   20  C   UNL     1     -39.942  52.139 -51.605  1.00  0.00     0.009 A 
ENDBRANCH  13  14
ENDBRANCH  12  13
ENDBRANCH   7  12
BRANCH   2  21
HETATM   21  C   UNL     1     -43.210  58.500 -55.162  1.00  0.00    -0.006 A 
HETATM   22  C   UNL     1     -44.341  58.452 -55.996  1.00  0.00     0.042 A 
HETATM   23 CL   UNL     1     -45.869  57.847 -55.465  1.00  0.00    -0.084 Cl
HETATM   24  C   UNL     1     -44.268  58.893 -57.323  1.00  0.00     0.024 A 
HETATM   25  C   UNL     1     -43.072  59.385 -57.841  1.00  0.00     0.002 A 
HETATM   26  C   UNL     1     -41.940  59.433 -57.035  1.00  0.00     0.001 A 
HETATM   27  C   UNL     1     -42.007  58.995 -55.712  1.00  0.00     0.011 A 
ENDBRANCH   2  21
BRANCH   1  28
HETATM   28  C   UNL     1     -43.352  60.413 -52.831  1.00  0.00     0.293 C 
HETATM   29  O   UNL     1     -42.765  61.438 -53.135  1.00  0.00    -0.259 OA
BRANCH  28  30
HETATM   30  O   UNL     1     -44.649  60.303 -52.454  1.00  0.00    -0.318 OA
BRANCH  30  31
HETATM   31  C   UNL     1     -44.896  60.369 -51.041  1.00  0.00     0.174 C 
HETATM   32  C   UNL     1     -45.667  59.149 -50.574  1.00  0.00     0.034 C 
ENDBRANCH  30  31
ENDBRANCH  28  30
ENDBRANCH   1  28
TORSDOF 7
ENDMDL
