MODEL 1
REMARK VINA RESULT:      -7.3      0.000      0.000
REMARK  5 active torsions:
REMARK  status: ('A' for Active; 'I' for Inactive)
REMARK    1  A    between atoms: C_2  and  C_3 
REMARK    2  A    between atoms: C_3  and  C_4 
REMARK    3  A    between atoms: C_10  and  C_11 
REMARK    4  A    between atoms: C_12  and  O_13 
REMARK    5  A    between atoms: C_22  and  N_23 
ROOT
HETATM    1  C   UNL     1     -42.106  54.936 -55.275  1.00  0.00     0.066 A 
HETATM    2  N   UNL     1     -42.794  55.078 -56.421  1.00  0.00    -0.177 NA
HETATM    3  N   UNL     1     -42.849  56.408 -56.620  1.00  0.00    -0.256 N 
HETATM    4  H   UNL     1     -43.323  56.761 -57.444  1.00  0.00     0.191 HD
HETATM    5  C   UNL     1     -42.240  57.109 -55.633  1.00  0.00     0.175 A 
HETATM    6  C   UNL     1     -41.745  56.198 -54.732  1.00  0.00     0.035 A 
HETATM    7  C   UNL     1     -40.999  56.684 -53.532  1.00  0.00     0.107 A 
HETATM    8  C   UNL     1     -41.034  58.215 -53.472  1.00  0.00     0.067 A 
HETATM    9  C   UNL     1     -40.493  58.865 -52.208  1.00  0.00     0.020 C 
HETATM   10  N   UNL     1     -40.043  59.405 -51.161  1.00  0.00    -0.096 N 
HETATM   11  C   UNL     1     -41.578  58.993 -54.445  1.00  0.00     0.139 A 
HETATM   12  O   UNL     1     -42.173  58.435 -55.589  1.00  0.00    -0.279 OA
ENDROOT
BRANCH   7  13
HETATM   13  C   UNL     1     -41.629  56.020 -52.318  1.00  0.00    -0.010 A 
HETATM   14  C   UNL     1     -42.993  56.179 -52.024  1.00  0.00     0.073 A 
HETATM   15  C   UNL     1     -43.601  55.487 -50.977  1.00  0.00     0.038 A 
HETATM   16  C   UNL     1     -42.847  54.634 -50.176  1.00  0.00     0.022 A 
HETATM   17  C   UNL     1     -41.491  54.472 -50.436  1.00  0.00     0.011 A 
HETATM   18 BR   UNL     1     -40.462  53.310 -49.356  1.00  0.00    -0.051 Br
HETATM   19  C   UNL     1     -40.883  55.148 -51.496  1.00  0.00     0.030 A 
BRANCH  14  20
HETATM   20  O   UNL     1     -43.806  57.004 -52.746  1.00  0.00    -0.360 OA
HETATM   21  H   UNL     1     -43.913  56.633 -53.638  1.00  0.00     0.217 HD
ENDBRANCH  14  20
ENDBRANCH   7  13
BRANCH  11  22
HETATM   22  N   UNL     1     -41.640  60.367 -54.430  1.00  0.00    -0.282 NA
HETATM   23  H   UNL     1     -41.098  60.831 -53.704  1.00  0.00     0.126 HD
HETATM   24  H   UNL     1     -42.595  60.710 -54.495  1.00  0.00     0.126 HD
ENDBRANCH  11  22
BRANCH   1  25
HETATM   25  C   UNL     1     -41.857  53.562 -54.741  1.00  0.00     0.061 C 
BRANCH  25  26
HETATM   26  C   UNL     1     -40.374  53.197 -54.625  1.00  0.00     0.002 C 
HETATM   27  C   UNL     1     -40.102  52.157 -53.547  1.00  0.00     0.005 C 
ENDBRANCH  25  26
ENDBRANCH   1  25
TORSDOF 5
ENDMDL
MODEL 2
REMARK VINA RESULT:      -6.9      3.639      6.285
REMARK  5 active torsions:
REMARK  status: ('A' for Active; 'I' for Inactive)
REMARK    1  A    between atoms: C_2  and  C_3 
REMARK    2  A    between atoms: C_3  and  C_4 
REMARK    3  A    between atoms: C_10  and  C_11 
REMARK    4  A    between atoms: C_12  and  O_13 
REMARK    5  A    between atoms: C_22  and  N_23 
ROOT
HETATM    1  C   UNL     1     -40.994  55.940 -50.192  1.00  0.00     0.066 A 
HETATM    2  N   UNL     1     -41.110  55.871 -48.855  1.00  0.00    -0.177 NA
HETATM    3  N   UNL     1     -40.838  54.588 -48.557  1.00  0.00    -0.256 N 
HETATM    4  H   UNL     1     -40.858  54.294 -47.587  1.00  0.00     0.191 HD
HETATM    5  C   UNL     1     -40.574  53.841 -49.657  1.00  0.00     0.175 A 
HETATM    6  C   UNL     1     -40.668  54.673 -50.746  1.00  0.00     0.035 A 
HETATM    7  C   UNL     1     -40.409  54.126 -52.112  1.00  0.00     0.107 A 
HETATM    8  C   UNL     1     -40.189  52.611 -52.042  1.00  0.00     0.067 A 
HETATM    9  C   UNL     1     -40.109  51.867 -53.365  1.00  0.00     0.020 C 
HETATM   10  N   UNL     1     -40.042  51.249 -54.462  1.00  0.00    -0.096 N 
HETATM   11  C   UNL     1     -40.134  51.913 -50.876  1.00  0.00     0.139 A 
HETATM   12  O   UNL     1     -40.294  52.543 -49.630  1.00  0.00    -0.279 OA
ENDROOT
BRANCH   7  13
HETATM   13  C   UNL     1     -41.591  54.523 -52.981  1.00  0.00    -0.010 A 
HETATM   14  C   UNL     1     -42.909  54.210 -52.608  1.00  0.00     0.073 A 
HETATM   15  C   UNL     1     -44.004  54.664 -53.343  1.00  0.00     0.038 A 
HETATM   16  C   UNL     1     -43.804  55.425 -54.492  1.00  0.00     0.022 A 
HETATM   17  C   UNL     1     -42.509  55.734 -54.892  1.00  0.00     0.011 A 
HETATM   18 BR   UNL     1     -42.230  56.771 -56.447  1.00  0.00    -0.051 Br
HETATM   19  C   UNL     1     -41.411  55.298 -54.147  1.00  0.00     0.030 A 
BRANCH  14  20
HETATM   20  O   UNL     1     -43.199  53.460 -51.506  1.00  0.00    -0.360 OA
HETATM   21  H   UNL     1     -42.793  53.878 -50.728  1.00  0.00     0.217 HD
ENDBRANCH  14  20
ENDBRANCH   7  13
BRANCH  11  22
HETATM   22  N   UNL     1     -39.948  50.555 -50.765  1.00  0.00    -0.282 NA
HETATM   23  H   UNL     1     -39.848  50.195 -49.818  1.00  0.00     0.126 HD
HETATM   24  H   UNL     1     -39.232  50.210 -51.399  1.00  0.00     0.126 HD
ENDBRANCH  11  22
BRANCH   1  25
HETATM   25  C   UNL     1     -41.239  57.246 -50.878  1.00  0.00     0.061 C 
BRANCH  25  26
HETATM   26  C   UNL     1     -42.713  57.522 -51.187  1.00  0.00     0.002 C 
HETATM   27  C   UNL     1     -42.906  58.423 -52.399  1.00  0.00     0.005 C 
ENDBRANCH  25  26
ENDBRANCH   1  25
TORSDOF 5
ENDMDL
MODEL 3
REMARK VINA RESULT:      -6.8      2.174      2.509
REMARK  5 active torsions:
REMARK  status: ('A' for Active; 'I' for Inactive)
REMARK    1  A    between atoms: C_2  and  C_3 
REMARK    2  A    between atoms: C_3  and  C_4 
REMARK    3  A    between atoms: C_10  and  C_11 
REMARK    4  A    between atoms: C_12  and  O_13 
REMARK    5  A    between atoms: C_22  and  N_23 
ROOT
HETATM    1  C   UNL     1     -41.834  55.708 -55.483  1.00  0.00     0.066 A 
HETATM    2  N   UNL     1     -42.463  55.084 -56.494  1.00  0.00    -0.177 NA
HETATM    3  N   UNL     1     -43.549  55.841 -56.736  1.00  0.00    -0.256 N 
HETATM    4  H   UNL     1     -44.185  55.565 -57.476  1.00  0.00     0.191 HD
HETATM    5  C   UNL     1     -43.638  56.907 -55.903  1.00  0.00     0.175 A 
HETATM    6  C   UNL     1     -42.550  56.862 -55.067  1.00  0.00     0.035 A 
HETATM    7  C   UNL     1     -42.369  57.933 -54.041  1.00  0.00     0.107 A 
HETATM    8  C   UNL     1     -43.578  58.874 -54.039  1.00  0.00     0.067 A 
HETATM    9  C   UNL     1     -43.648  59.902 -52.921  1.00  0.00     0.020 C 
HETATM   10  N   UNL     1     -43.706  60.755 -51.995  1.00  0.00    -0.096 N 
HETATM   11  C   UNL     1     -44.600  58.786 -54.932  1.00  0.00     0.139 A 
HETATM   12  O   UNL     1     -44.626  57.794 -55.928  1.00  0.00    -0.279 OA
ENDROOT
BRANCH   7  13
HETATM   13  C   UNL     1     -42.147  57.237 -52.708  1.00  0.00    -0.010 A 
HETATM   14  C   UNL     1     -41.110  57.627 -51.844  1.00  0.00     0.073 A 
HETATM   15  C   UNL     1     -40.966  57.067 -50.574  1.00  0.00     0.038 A 
HETATM   16  C   UNL     1     -41.846  56.078 -50.146  1.00  0.00     0.022 A 
HETATM   17  C   UNL     1     -42.871  55.661 -50.989  1.00  0.00     0.011 A 
HETATM   18 BR   UNL     1     -44.074  54.322 -50.412  1.00  0.00    -0.051 Br
HETATM   19  C   UNL     1     -43.030  56.234 -52.253  1.00  0.00     0.030 A 
BRANCH  14  20
HETATM   20  O   UNL     1     -40.194  58.579 -52.184  1.00  0.00    -0.360 OA
HETATM   21  H   UNL     1     -40.666  59.385 -52.451  1.00  0.00     0.217 HD
ENDBRANCH  14  20
ENDBRANCH   7  13
BRANCH  11  22
HETATM   22  N   UNL     1     -45.708  59.600 -54.965  1.00  0.00    -0.282 NA
HETATM   23  H   UNL     1     -45.890  60.140 -54.121  1.00  0.00     0.126 HD
HETATM   24  H   UNL     1     -46.531  59.117 -55.313  1.00  0.00     0.126 HD
ENDBRANCH  11  22
BRANCH   1  25
HETATM   25  C   UNL     1     -40.566  55.127 -54.945  1.00  0.00     0.061 C 
BRANCH  25  26
HETATM   26  C   UNL     1     -40.688  53.666 -54.502  1.00  0.00     0.002 C 
HETATM   27  C   UNL     1     -40.609  53.496 -52.991  1.00  0.00     0.005 C 
ENDBRANCH  25  26
ENDBRANCH   1  25
TORSDOF 5
ENDMDL
MODEL 4
REMARK VINA RESULT:      -6.7      2.890      4.489
REMARK  5 active torsions:
REMARK  status: ('A' for Active; 'I' for Inactive)
REMARK    1  A    between atoms: C_2  and  C_3 
REMARK    2  A    between atoms: C_3  and  C_4 
REMARK    3  A    between atoms: C_10  and  C_11 
REMARK    4  A    between atoms: C_12  and  O_13 
REMARK    5  A    between atoms: C_22  and  N_23 
ROOT
HETATM    1  C   UNL     1     -41.643  55.211 -51.470  1.00  0.00     0.066 A 
HETATM    2  N   UNL     1     -42.199  53.987 -51.460  1.00  0.00    -0.177 NA
HETATM    3  N   UNL     1     -42.792  53.874 -52.662  1.00  0.00    -0.256 N 
HETATM    4  H   UNL     1     -43.281  53.016 -52.890  1.00  0.00     0.191 HD
HETATM    5  C   UNL     1     -42.648  54.988 -53.422  1.00  0.00     0.175 A 
HETATM    6  C   UNL     1     -41.913  55.887 -52.690  1.00  0.00     0.035 A 
HETATM    7  C   UNL     1     -41.576  57.216 -53.285  1.00  0.00     0.107 A 
HETATM    8  C   UNL     1     -42.265  57.376 -54.644  1.00  0.00     0.067 A 
HETATM    9  C   UNL     1     -42.189  58.749 -55.295  1.00  0.00     0.020 C 
HETATM   10  N   UNL     1     -42.126  59.886 -55.836  1.00  0.00    -0.096 N 
HETATM   11  C   UNL     1     -42.981  56.389 -55.245  1.00  0.00     0.139 A 
HETATM   12  O   UNL     1     -43.156  55.132 -54.640  1.00  0.00    -0.279 OA
ENDROOT
BRANCH   7  13
HETATM   13  C   UNL     1     -41.990  58.273 -52.273  1.00  0.00    -0.010 A 
HETATM   14  C   UNL     1     -41.063  59.194 -51.760  1.00  0.00     0.073 A 
HETATM   15  C   UNL     1     -41.455  60.233 -50.915  1.00  0.00     0.038 A 
HETATM   16  C   UNL     1     -42.789  60.359 -50.540  1.00  0.00     0.022 A 
HETATM   17  C   UNL     1     -43.725  59.449 -51.020  1.00  0.00     0.011 A 
HETATM   18 BR   UNL     1     -45.540  59.617 -50.520  1.00  0.00    -0.051 Br
HETATM   19  C   UNL     1     -43.338  58.419 -51.882  1.00  0.00     0.030 A 
BRANCH  14  20
HETATM   20  O   UNL     1     -39.733  59.141 -52.062  1.00  0.00    -0.360 OA
HETATM   21  H   UNL     1     -39.456  60.009 -52.402  1.00  0.00     0.217 HD
ENDBRANCH  14  20
ENDBRANCH   7  13
BRANCH  11  22
HETATM   22  N   UNL     1     -43.622  56.489 -56.458  1.00  0.00    -0.282 NA
HETATM   23  H   UNL     1     -43.668  55.635 -57.009  1.00  0.00     0.126 HD
HETATM   24  H   UNL     1     -43.308  57.293 -56.995  1.00  0.00     0.126 HD
ENDBRANCH  11  22
BRANCH   1  25
HETATM   25  C   UNL     1     -40.892  55.680 -50.265  1.00  0.00     0.061 C 
BRANCH  25  26
HETATM   26  C   UNL     1     -39.980  54.618 -49.646  1.00  0.00     0.002 C 
HETATM   27  C   UNL     1     -40.436  54.179 -48.261  1.00  0.00     0.005 C 
ENDBRANCH  25  26
ENDBRANCH   1  25
TORSDOF 5
ENDMDL
MODEL 5
REMARK VINA RESULT:      -6.7      2.740      4.384
REMARK  5 active torsions:
REMARK  status: ('A' for Active; 'I' for Inactive)
REMARK    1  A    between atoms: C_2  and  C_3 
REMARK    2  A    between atoms: C_3  and  C_4 
REMARK    3  A    between atoms: C_10  and  C_11 
REMARK    4  A    between atoms: C_12  and  O_13 
REMARK    5  A    between atoms: C_22  and  N_23 
ROOT
HETATM    1  C   UNL     1     -42.676  55.948 -55.070  1.00  0.00     0.066 A 
HETATM    2  N   UNL     1     -42.060  55.540 -56.193  1.00  0.00    -0.177 NA
HETATM    3  N   UNL     1     -41.202  54.589 -55.783  1.00  0.00    -0.256 N 
HETATM    4  H   UNL     1     -40.620  54.123 -56.470  1.00  0.00     0.191 HD
HETATM    5  C   UNL     1     -41.239  54.396 -54.442  1.00  0.00     0.175 A 
HETATM    6  C   UNL     1     -42.178  55.259 -53.932  1.00  0.00     0.035 A 
HETATM    7  C   UNL     1     -42.454  55.260 -52.463  1.00  0.00     0.107 A 
HETATM    8  C   UNL     1     -41.484  54.317 -51.743  1.00  0.00     0.067 A 
HETATM    9  C   UNL     1     -41.496  54.350 -50.222  1.00  0.00     0.020 C 
HETATM   10  N   UNL     1     -41.506  54.375 -48.962  1.00  0.00    -0.096 N 
HETATM   11  C   UNL     1     -40.588  53.524 -52.389  1.00  0.00     0.139 A 
HETATM   12  O   UNL     1     -40.476  53.527 -53.790  1.00  0.00    -0.279 OA
ENDROOT
BRANCH   7  13
HETATM   13  C   UNL     1     -42.351  56.702 -51.993  1.00  0.00    -0.010 A 
HETATM   14  C   UNL     1     -43.499  57.463 -51.716  1.00  0.00     0.073 A 
HETATM   15  C   UNL     1     -43.413  58.749 -51.183  1.00  0.00     0.038 A 
HETATM   16  C   UNL     1     -42.167  59.318 -50.937  1.00  0.00     0.022 A 
HETATM   17  C   UNL     1     -41.014  58.592 -51.219  1.00  0.00     0.011 A 
HETATM   18 BR   UNL     1     -39.319  59.357 -50.882  1.00  0.00    -0.051 Br
HETATM   19  C   UNL     1     -41.098  57.297 -51.735  1.00  0.00     0.030 A 
BRANCH  14  20
HETATM   20  O   UNL     1     -44.760  56.992 -51.937  1.00  0.00    -0.360 OA
HETATM   21  H   UNL     1     -45.200  57.568 -52.585  1.00  0.00     0.217 HD
ENDBRANCH  14  20
ENDBRANCH   7  13
BRANCH  11  22
HETATM   22  N   UNL     1     -39.694  52.671 -51.786  1.00  0.00    -0.282 NA
HETATM   23  H   UNL     1     -39.798  51.684 -52.010  1.00  0.00     0.126 HD
HETATM   24  H   UNL     1     -39.607  52.845 -50.788  1.00  0.00     0.126 HD
ENDBRANCH  11  22
BRANCH   1  25
HETATM   25  C   UNL     1     -43.712  57.023 -55.156  1.00  0.00     0.061 C 
BRANCH  25  26
HETATM   26  C   UNL     1     -43.200  58.337 -55.752  1.00  0.00     0.002 C 
HETATM   27  C   UNL     1     -42.113  58.987 -54.908  1.00  0.00     0.005 C 
ENDBRANCH  25  26
ENDBRANCH   1  25
TORSDOF 5
ENDMDL
MODEL 6
REMARK VINA RESULT:      -6.6     15.843     17.689
REMARK  5 active torsions:
REMARK  status: ('A' for Active; 'I' for Inactive)
REMARK    1  A    between atoms: C_2  and  C_3 
REMARK    2  A    between atoms: C_3  and  C_4 
REMARK    3  A    between atoms: C_10  and  C_11 
REMARK    4  A    between atoms: C_12  and  O_13 
REMARK    5  A    between atoms: C_22  and  N_23 
ROOT
HETATM    1  C   UNL     1     -36.274  41.957 -54.849  1.00  0.00     0.066 A 
HETATM    2  N   UNL     1     -37.461  42.072 -55.467  1.00  0.00    -0.177 NA
HETATM    3  N   UNL     1     -38.344  41.531 -54.609  1.00  0.00    -0.256 N 
HETATM    4  H   UNL     1     -39.326  41.511 -54.862  1.00  0.00     0.191 HD
HETATM    5  C   UNL     1     -37.756  41.062 -53.481  1.00  0.00     0.175 A 
HETATM    6  C   UNL     1     -36.409  41.311 -53.591  1.00  0.00     0.035 A 
HETATM    7  C   UNL     1     -35.496  40.914 -52.477  1.00  0.00     0.107 A 
HETATM    8  C   UNL     1     -36.275  40.146 -51.404  1.00  0.00     0.067 A 
HETATM    9  C   UNL     1     -35.460  39.497 -50.295  1.00  0.00     0.020 C 
HETATM   10  N   UNL     1     -34.785  38.960 -49.376  1.00  0.00    -0.096 N 
HETATM   11  C   UNL     1     -37.622  39.966 -51.437  1.00  0.00     0.139 A 
HETATM   12  O   UNL     1     -38.408  40.468 -52.489  1.00  0.00    -0.279 OA
ENDROOT
BRANCH   7  13
HETATM   13  C   UNL     1     -34.367  40.105 -53.095  1.00  0.00    -0.010 A 
HETATM   14  C   UNL     1     -33.022  40.410 -52.831  1.00  0.00     0.073 A 
HETATM   15  C   UNL     1     -31.983  39.609 -53.306  1.00  0.00     0.038 A 
HETATM   16  C   UNL     1     -32.268  38.491 -54.085  1.00  0.00     0.022 A 
HETATM   17  C   UNL     1     -33.591  38.177 -54.376  1.00  0.00     0.011 A 
HETATM   18 BR   UNL     1     -33.985  36.658 -55.429  1.00  0.00    -0.051 Br
HETATM   19  C   UNL     1     -34.634  38.967 -53.885  1.00  0.00     0.030 A 
BRANCH  14  20
HETATM   20  O   UNL     1     -32.648  41.491 -52.087  1.00  0.00    -0.360 OA
HETATM   21  H   UNL     1     -32.143  41.181 -51.317  1.00  0.00     0.217 HD
ENDBRANCH  14  20
ENDBRANCH   7  13
BRANCH  11  22
HETATM   22  N   UNL     1     -38.361  39.278 -50.503  1.00  0.00    -0.282 NA
HETATM   23  H   UNL     1     -38.322  39.636 -49.551  1.00  0.00     0.126 HD
HETATM   24  H   UNL     1     -38.213  38.274 -50.557  1.00  0.00     0.126 HD
ENDBRANCH  11  22
BRANCH   1  25
HETATM   25  C   UNL     1     -35.044  42.462 -55.534  1.00  0.00     0.061 C 
BRANCH  25  26
HETATM   26  C   UNL     1     -34.779  41.816 -56.896  1.00  0.00     0.002 C 
HETATM   27  C   UNL     1     -33.662  40.782 -56.856  1.00  0.00     0.005 C 
ENDBRANCH  25  26
ENDBRANCH   1  25
TORSDOF 5
ENDMDL
MODEL 7
REMARK VINA RESULT:      -6.4      2.971      5.402
REMARK  5 active torsions:
REMARK  status: ('A' for Active; 'I' for Inactive)
REMARK    1  A    between atoms: C_2  and  C_3 
REMARK    2  A    between atoms: C_3  and  C_4 
REMARK    3  A    between atoms: C_10  and  C_11 
REMARK    4  A    between atoms: C_12  and  O_13 
REMARK    5  A    between atoms: C_22  and  N_23 
ROOT
HETATM    1  C   UNL     1     -42.599  59.577 -55.908  1.00  0.00     0.066 A 
HETATM    2  N   UNL     1     -41.752  60.560 -56.260  1.00  0.00    -0.177 NA
HETATM    3  N   UNL     1     -41.408  60.273 -57.528  1.00  0.00    -0.256 N 
HETATM    4  H   UNL     1     -40.769  60.891 -58.016  1.00  0.00     0.191 HD
HETATM    5  C   UNL     1     -41.989  59.135 -57.982  1.00  0.00     0.175 A 
HETATM    6  C   UNL     1     -42.769  58.643 -56.964  1.00  0.00     0.035 A 
HETATM    7  C   UNL     1     -43.554  57.391 -57.181  1.00  0.00     0.107 A 
HETATM    8  C   UNL     1     -43.223  56.790 -58.552  1.00  0.00     0.067 A 
HETATM    9  C   UNL     1     -43.785  55.409 -58.851  1.00  0.00     0.020 C 
HETATM   10  N   UNL     1     -44.252  54.264 -59.100  1.00  0.00    -0.096 N 
HETATM   11  C   UNL     1     -42.412  57.394 -59.461  1.00  0.00     0.139 A 
HETATM   12  O   UNL     1     -41.796  58.628 -59.194  1.00  0.00    -0.279 OA
ENDROOT
BRANCH   7  13
HETATM   13  C   UNL     1     -43.234  56.459 -56.023  1.00  0.00    -0.010 A 
HETATM   14  C   UNL     1     -44.171  56.209 -55.007  1.00  0.00     0.073 A 
HETATM   15  C   UNL     1     -43.927  55.275 -54.001  1.00  0.00     0.038 A 
HETATM   16  C   UNL     1     -42.719  54.583 -53.972  1.00  0.00     0.022 A 
HETATM   17  C   UNL     1     -41.767  54.825 -54.956  1.00  0.00     0.011 A 
HETATM   18 BR   UNL     1     -40.127  53.886 -54.927  1.00  0.00    -0.051 Br
HETATM   19  C   UNL     1     -42.018  55.746 -55.977  1.00  0.00     0.030 A 
BRANCH  14  20
HETATM   20  O   UNL     1     -45.375  56.849 -54.948  1.00  0.00    -0.360 OA
HETATM   21  H   UNL     1     -46.044  56.224 -54.620  1.00  0.00     0.217 HD
ENDBRANCH  14  20
ENDBRANCH   7  13
BRANCH  11  22
HETATM   22  N   UNL     1     -42.080  56.890 -60.696  1.00  0.00    -0.282 NA
HETATM   23  H   UNL     1     -42.715  57.120 -61.457  1.00  0.00     0.126 HD
HETATM   24  H   UNL     1     -41.844  55.902 -60.660  1.00  0.00     0.126 HD
ENDBRANCH  11  22
BRANCH   1  25
HETATM   25  C   UNL     1     -43.185  59.579 -54.532  1.00  0.00     0.061 C 
BRANCH  25  26
HETATM   26  C   UNL     1     -42.180  59.253 -53.425  1.00  0.00     0.002 C 
HETATM   27  C   UNL     1     -42.762  58.357 -52.340  1.00  0.00     0.005 C 
ENDBRANCH  25  26
ENDBRANCH   1  25
TORSDOF 5
ENDMDL
MODEL 8
REMARK VINA RESULT:      -6.4      2.726      4.231
REMARK  5 active torsions:
REMARK  status: ('A' for Active; 'I' for Inactive)
REMARK    1  A    between atoms: C_2  and  C_3 
REMARK    2  A    between atoms: C_3  and  C_4 
REMARK    3  A    between atoms: C_10  and  C_11 
REMARK    4  A    between atoms: C_12  and  O_13 
REMARK    5  A    between atoms: C_22  and  N_23 
ROOT
HETATM    1  C   UNL     1     -41.229  54.820 -51.998  1.00  0.00     0.066 A 
HETATM    2  N   UNL     1     -41.245  53.478 -52.070  1.00  0.00    -0.177 NA
HETATM    3  N   UNL     1     -41.505  53.211 -53.363  1.00  0.00    -0.256 N 
HETATM    4  H   UNL     1     -41.560  52.244 -53.664  1.00  0.00     0.191 HD
HETATM    5  C   UNL     1     -41.673  54.333 -54.104  1.00  0.00     0.175 A 
HETATM    6  C   UNL     1     -41.508  55.406 -53.262  1.00  0.00     0.035 A 
HETATM    7  C   UNL     1     -41.620  56.792 -53.808  1.00  0.00     0.107 A 
HETATM    8  C   UNL     1     -42.044  56.748 -55.280  1.00  0.00     0.067 A 
HETATM    9  C   UNL     1     -42.397  58.075 -55.933  1.00  0.00     0.020 C 
HETATM   10  N   UNL     1     -42.689  59.175 -56.476  1.00  0.00    -0.096 N 
HETATM   11  C   UNL     1     -42.181  55.595 -55.988  1.00  0.00     0.139 A 
HETATM   12  O   UNL     1     -41.955  54.338 -55.402  1.00  0.00    -0.279 OA
ENDROOT
BRANCH   7  13
HETATM   13  C   UNL     1     -42.603  57.540 -52.921  1.00  0.00    -0.010 A 
HETATM   14  C   UNL     1     -43.917  57.080 -52.737  1.00  0.00     0.073 A 
HETATM   15  C   UNL     1     -44.790  57.699 -51.842  1.00  0.00     0.038 A 
HETATM   16  C   UNL     1     -44.374  58.817 -51.125  1.00  0.00     0.022 A 
HETATM   17  C   UNL     1     -43.083  59.303 -51.302  1.00  0.00     0.011 A 
HETATM   18 BR   UNL     1     -42.509  60.817 -50.327  1.00  0.00    -0.051 Br
HETATM   19  C   UNL     1     -42.200  58.673 -52.182  1.00  0.00     0.030 A 
BRANCH  14  20
HETATM   20  O   UNL     1     -44.415  56.000 -53.406  1.00  0.00    -0.360 OA
HETATM   21  H   UNL     1     -44.949  56.316 -54.155  1.00  0.00     0.217 HD
ENDBRANCH  14  20
ENDBRANCH   7  13
BRANCH  11  22
HETATM   22  N   UNL     1     -42.566  55.506 -57.305  1.00  0.00    -0.282 NA
HETATM   23  H   UNL     1     -41.870  55.138 -57.949  1.00  0.00     0.126 HD
HETATM   24  H   UNL     1     -43.004  56.361 -57.638  1.00  0.00     0.126 HD
ENDBRANCH  11  22
BRANCH   1  25
HETATM   25  C   UNL     1     -40.969  55.475 -50.679  1.00  0.00     0.061 C 
BRANCH  25  26
HETATM   26  C   UNL     1     -40.029  54.686 -49.765  1.00  0.00     0.002 C 
HETATM   27  C   UNL     1     -40.663  54.328 -48.428  1.00  0.00     0.005 C 
ENDBRANCH  25  26
ENDBRANCH   1  25
TORSDOF 5
ENDMDL
MODEL 9
REMARK VINA RESULT:      -6.3      3.038      5.904
REMARK  5 active torsions:
REMARK  status: ('A' for Active; 'I' for Inactive)
REMARK    1  A    between atoms: C_2  and  C_3 
REMARK    2  A    between atoms: C_3  and  C_4 
REMARK    3  A    between atoms: C_10  and  C_11 
REMARK    4  A    between atoms: C_12  and  O_13 
REMARK    5  A    between atoms: C_22  and  N_23 
ROOT
HETATM    1  C   UNL     1     -41.294  58.588 -51.841  1.00  0.00     0.066 A 
HETATM    2  N   UNL     1     -41.347  58.972 -50.554  1.00  0.00    -0.177 NA
HETATM    3  N   UNL     1     -41.306  57.822 -49.855  1.00  0.00    -0.256 N 
HETATM    4  H   UNL     1     -41.327  57.862 -48.843  1.00  0.00     0.191 HD
HETATM    5  C   UNL     1     -41.249  56.728 -50.654  1.00  0.00     0.175 A 
HETATM    6  C   UNL     1     -41.244  57.173 -51.954  1.00  0.00     0.035 A 
HETATM    7  C   UNL     1     -41.168  56.181 -53.068  1.00  0.00     0.107 A 
HETATM    8  C   UNL     1     -41.234  54.755 -52.512  1.00  0.00     0.067 A 
HETATM    9  C   UNL     1     -41.369  53.628 -53.525  1.00  0.00     0.020 C 
HETATM   10  N   UNL     1     -41.479  52.693 -54.363  1.00  0.00    -0.096 N 
HETATM   11  C   UNL     1     -41.247  54.466 -51.184  1.00  0.00     0.139 A 
HETATM   12  O   UNL     1     -41.216  55.478 -50.209  1.00  0.00    -0.279 OA
ENDROOT
BRANCH   7  13
HETATM   13  C   UNL     1     -42.300  56.506 -54.029  1.00  0.00    -0.010 A 
HETATM   14  C   UNL     1     -43.639  56.508 -53.606  1.00  0.00     0.073 A 
HETATM   15  C   UNL     1     -44.673  56.909 -54.451  1.00  0.00     0.038 A 
HETATM   16  C   UNL     1     -44.393  57.294 -55.759  1.00  0.00     0.022 A 
HETATM   17  C   UNL     1     -43.077  57.284 -56.209  1.00  0.00     0.011 A 
HETATM   18 BR   UNL     1     -42.688  57.812 -57.982  1.00  0.00    -0.051 Br
HETATM   19  C   UNL     1     -42.037  56.902 -55.358  1.00  0.00     0.030 A 
BRANCH  14  20
HETATM   20  O   UNL     1     -44.009  56.134 -52.347  1.00  0.00    -0.360 OA
HETATM   21  H   UNL     1     -44.287  55.202 -52.367  1.00  0.00     0.217 HD
ENDBRANCH  14  20
ENDBRANCH   7  13
BRANCH  11  22
HETATM   22  N   UNL     1     -41.315  53.205 -50.639  1.00  0.00    -0.282 NA
HETATM   23  H   UNL     1     -42.061  53.050 -49.965  1.00  0.00     0.126 HD
HETATM   24  H   UNL     1     -40.409  52.877 -50.312  1.00  0.00     0.126 HD
ENDBRANCH  11  22
BRANCH   1  25
HETATM   25  C   UNL     1     -41.326  59.630 -52.913  1.00  0.00     0.061 C 
BRANCH  25  26
HETATM   26  C   UNL     1     -42.730  60.145 -53.241  1.00  0.00     0.002 C 
HETATM   27  C   UNL     1     -42.866  60.617 -54.682  1.00  0.00     0.005 C 
ENDBRANCH  25  26
ENDBRANCH   1  25
TORSDOF 5
ENDMDL
MODEL 10
REMARK VINA RESULT:      -6.3      3.606      5.693
REMARK  5 active torsions:
REMARK  status: ('A' for Active; 'I' for Inactive)
REMARK    1  A    between atoms: C_2  and  C_3 
REMARK    2  A    between atoms: C_3  and  C_4 
REMARK    3  A    between atoms: C_10  and  C_11 
REMARK    4  A    between atoms: C_12  and  O_13 
REMARK    5  A    between atoms: C_22  and  N_23 
ROOT
HETATM    1  C   UNL     1     -41.401  57.248 -50.742  1.00  0.00     0.066 A 
HETATM    2  N   UNL     1     -40.950  56.117 -50.171  1.00  0.00    -0.177 NA
HETATM    3  N   UNL     1     -41.459  55.129 -50.930  1.00  0.00    -0.256 N 
HETATM    4  H   UNL     1     -41.245  54.167 -50.691  1.00  0.00     0.191 HD
HETATM    5  C   UNL     1     -42.230  55.594 -51.943  1.00  0.00     0.175 A 
HETATM    6  C   UNL     1     -42.227  56.965 -51.861  1.00  0.00     0.035 A 
HETATM    7  C   UNL     1     -42.988  57.762 -52.871  1.00  0.00     0.107 A 
HETATM    8  C   UNL     1     -43.775  56.829 -53.797  1.00  0.00     0.067 A 
HETATM    9  C   UNL     1     -44.758  57.482 -54.756  1.00  0.00     0.020 C 
HETATM   10  N   UNL     1     -45.572  58.022 -55.552  1.00  0.00    -0.096 N 
HETATM   11  C   UNL     1     -43.685  55.473 -53.751  1.00  0.00     0.139 A 
HETATM   12  O   UNL     1     -42.859  54.820 -52.820  1.00  0.00    -0.279 OA
ENDROOT
BRANCH   7  13
HETATM   13  C   UNL     1     -43.871  58.729 -52.099  1.00  0.00    -0.010 A 
HETATM   14  C   UNL     1     -44.862  58.269 -51.218  1.00  0.00     0.073 A 
HETATM   15  C   UNL     1     -45.603  59.146 -50.426  1.00  0.00     0.038 A 
HETATM   16  C   UNL     1     -45.386  60.518 -50.519  1.00  0.00     0.022 A 
HETATM   17  C   UNL     1     -44.422  61.002 -51.397  1.00  0.00     0.011 A 
HETATM   18 BR   UNL     1     -44.117  62.863 -51.524  1.00  0.00    -0.051 Br
HETATM   19  C   UNL     1     -43.665  60.123 -52.176  1.00  0.00     0.030 A 
BRANCH  14  20
HETATM   20  O   UNL     1     -45.152  56.943 -51.070  1.00  0.00    -0.360 OA
HETATM   21  H   UNL     1     -45.080  56.510 -51.937  1.00  0.00     0.217 HD
ENDBRANCH  14  20
ENDBRANCH   7  13
BRANCH  11  22
HETATM   22  N   UNL     1     -44.377  54.597 -54.554  1.00  0.00    -0.282 NA
HETATM   23  H   UNL     1     -44.854  55.006 -55.354  1.00  0.00     0.126 HD
HETATM   24  H   UNL     1     -44.968  53.967 -54.018  1.00  0.00     0.126 HD
ENDBRANCH  11  22
BRANCH   1  25
HETATM   25  C   UNL     1     -41.025  58.566 -50.143  1.00  0.00     0.061 C 
BRANCH  25  26
HETATM   26  C   UNL     1     -40.138  59.430 -51.043  1.00  0.00     0.002 C 
HETATM   27  C   UNL     1     -38.687  59.473 -50.581  1.00  0.00     0.005 C 
ENDBRANCH  25  26
ENDBRANCH   1  25
TORSDOF 5
ENDMDL
