MODEL 1
REMARK VINA RESULT:      -9.3      0.000      0.000
REMARK  7 active torsions:
REMARK  status: ('A' for Active; 'I' for Inactive)
REMARK       I    between atoms: N_2  and  C_3 
REMARK    1  A    between atoms: N_2  and  C_22 
REMARK    2  A    between atoms: C_3  and  C_4 
REMARK    3  A    between atoms: C_4  and  N_5 
REMARK    4  A    between atoms: N_5  and  C_6 
REMARK    5  A    between atoms: C_7  and  O_8 
REMARK    6  A    between atoms: C_22  and  C_23 
REMARK       I    between atoms: C_23  and  N_24 
REMARK    7  A    between atoms: N_24  and  C_25 
ROOT
HETATM    1  C   UNL     1     -42.946  57.294 -51.107  1.00  0.00     0.195 C 
ENDROOT
BRANCH   1   2
HETATM    2  C   UNL     1     -42.623  58.735 -51.552  1.00  0.00     0.233 C 
HETATM    3  N   UNL     1     -42.620  59.008 -52.921  1.00  0.00    -0.347 N 
HETATM    4  C   UNL     1     -42.111  60.297 -53.358  1.00  0.00     0.153 C 
HETATM    5  O   UNL     1     -42.220  59.555 -50.721  1.00  0.00    -0.272 OA
BRANCH   3   6
HETATM    6  C   UNL     1     -43.469  58.285 -53.878  1.00  0.00     0.228 C 
BRANCH   6   7
HETATM    7  C   UNL     1     -42.794  57.713 -55.134  1.00  0.00     0.240 C 
HETATM    8  N   UNL     1     -43.351  58.129 -56.330  1.00  0.00    -0.324 N 
HETATM    9  H   UNL     1     -43.729  59.074 -56.291  1.00  0.00     0.169 HD
HETATM   10  O   UNL     1     -41.839  56.949 -55.015  1.00  0.00    -0.271 OA
BRANCH   8  11
HETATM   11  C   UNL     1     -42.916  57.684 -57.604  1.00  0.00     0.056 A 
HETATM   12  C   UNL     1     -42.226  58.463 -58.549  1.00  0.00     0.060 A 
HETATM   13 CL   UNL     1     -41.537  60.011 -58.188  1.00  0.00    -0.082 Cl
HETATM   14  C   UNL     1     -41.929  57.935 -59.814  1.00  0.00     0.026 A 
HETATM   15  C   UNL     1     -42.279  56.623 -60.134  1.00  0.00     0.002 A 
HETATM   16  C   UNL     1     -42.893  55.823 -59.178  1.00  0.00     0.002 A 
HETATM   17  C   UNL     1     -43.191  56.345 -57.918  1.00  0.00     0.031 A 
ENDBRANCH   8  11
ENDBRANCH   6   7
ENDBRANCH   3   6
ENDBRANCH   1   2
BRANCH   1  18
HETATM   18  N   UNL     1     -41.776  56.830 -50.343  1.00  0.00    -0.282 NA
HETATM   19  H   UNL     1     -41.992  56.912 -49.346  1.00  0.00     0.128 HD
BRANCH  18  20
HETATM   20  C   UNL     1     -41.230  55.554 -50.601  1.00  0.00     0.045 A 
HETATM   21  C   UNL     1     -40.883  54.595 -49.625  1.00  0.00     0.090 A 
HETATM   22  C   UNL     1     -40.421  53.306 -49.969  1.00  0.00     0.053 A 
HETATM   23  C   UNL     1     -40.388  52.933 -51.323  1.00  0.00     0.014 A 
HETATM   24  C   UNL     1     -40.791  53.867 -52.266  1.00  0.00     0.089 A 
HETATM   25  C   UNL     1     -40.037  51.763 -52.057  1.00  0.00     0.011 A 
HETATM   26  O   UNL     1     -40.720  53.347 -53.521  1.00  0.00    -0.309 OA
HETATM   27  C   UNL     1     -41.214  55.157 -51.955  1.00  0.00     0.064 A 
HETATM   28  C   UNL     1     -40.263  52.071 -53.395  1.00  0.00     0.087 A 
HETATM   29  C   UNL     1     -40.050  51.186 -54.449  1.00  0.00     0.038 A 
HETATM   30  C   UNL     1     -39.580  49.913 -54.110  1.00  0.00     0.003 A 
HETATM   31  C   UNL     1     -39.340  49.562 -52.779  1.00  0.00     0.001 A 
HETATM   32  C   UNL     1     -39.565  50.475 -51.738  1.00  0.00     0.015 A 
BRANCH  21  33
HETATM   33  O   UNL     1     -40.936  54.917 -48.289  1.00  0.00    -0.354 OA
HETATM   34  C   UNL     1     -40.330  53.902 -47.483  1.00  0.00     0.210 C 
ENDBRANCH  21  33
ENDBRANCH  18  20
ENDBRANCH   1  18
TORSDOF 7
ENDMDL
MODEL 2
REMARK VINA RESULT:      -8.7      1.834      2.236
REMARK  7 active torsions:
REMARK  status: ('A' for Active; 'I' for Inactive)
REMARK       I    between atoms: N_2  and  C_3 
REMARK    1  A    between atoms: N_2  and  C_22 
REMARK    2  A    between atoms: C_3  and  C_4 
REMARK    3  A    between atoms: C_4  and  N_5 
REMARK    4  A    between atoms: N_5  and  C_6 
REMARK    5  A    between atoms: C_7  and  O_8 
REMARK    6  A    between atoms: C_22  and  C_23 
REMARK       I    between atoms: C_23  and  N_24 
REMARK    7  A    between atoms: N_24  and  C_25 
ROOT
HETATM    1  C   UNL     1     -41.269  58.424 -53.857  1.00  0.00     0.195 C 
ENDROOT
BRANCH   1   2
HETATM    2  C   UNL     1     -42.387  59.454 -53.588  1.00  0.00     0.233 C 
HETATM    3  N   UNL     1     -42.502  60.533 -54.466  1.00  0.00    -0.347 N 
HETATM    4  C   UNL     1     -43.404  61.612 -54.103  1.00  0.00     0.153 C 
HETATM    5  O   UNL     1     -43.031  59.395 -52.536  1.00  0.00    -0.272 OA
BRANCH   3   6
HETATM    6  C   UNL     1     -42.123  60.449 -55.883  1.00  0.00     0.228 C 
BRANCH   6   7
HETATM    7  C   UNL     1     -42.894  59.454 -56.765  1.00  0.00     0.240 C 
HETATM    8  N   UNL     1     -42.134  58.413 -57.264  1.00  0.00    -0.324 N 
HETATM    9  H   UNL     1     -41.385  58.125 -56.636  1.00  0.00     0.169 HD
HETATM   10  O   UNL     1     -44.093  59.631 -56.974  1.00  0.00    -0.271 OA
BRANCH   8  11
HETATM   11  C   UNL     1     -42.633  57.414 -58.138  1.00  0.00     0.056 A 
HETATM   12  C   UNL     1     -42.775  57.543 -59.530  1.00  0.00     0.060 A 
HETATM   13 CL   UNL     1     -42.084  58.844 -60.442  1.00  0.00    -0.082 Cl
HETATM   14  C   UNL     1     -43.368  56.514 -60.275  1.00  0.00     0.026 A 
HETATM   15  C   UNL     1     -43.787  55.339 -59.651  1.00  0.00     0.002 A 
HETATM   16  C   UNL     1     -43.581  55.173 -58.287  1.00  0.00     0.002 A 
HETATM   17  C   UNL     1     -42.991  56.196 -57.541  1.00  0.00     0.031 A 
ENDBRANCH   8  11
ENDBRANCH   6   7
ENDBRANCH   3   6
ENDBRANCH   1   2
BRANCH   1  18
HETATM   18  N   UNL     1     -41.946  57.137 -54.089  1.00  0.00    -0.282 NA
HETATM   19  H   UNL     1     -42.049  57.009 -55.099  1.00  0.00     0.128 HD
BRANCH  18  20
HETATM   20  C   UNL     1     -41.426  55.957 -53.517  1.00  0.00     0.045 A 
HETATM   21  C   UNL     1     -41.346  55.677 -52.135  1.00  0.00     0.090 A 
HETATM   22  C   UNL     1     -40.889  54.435 -51.646  1.00  0.00     0.053 A 
HETATM   23  C   UNL     1     -40.587  53.411 -52.559  1.00  0.00     0.014 A 
HETATM   24  C   UNL     1     -40.731  53.682 -53.912  1.00  0.00     0.089 A 
HETATM   25  C   UNL     1     -40.150  52.057 -52.476  1.00  0.00     0.011 A 
HETATM   26  O   UNL     1     -40.421  52.588 -54.659  1.00  0.00    -0.309 OA
HETATM   27  C   UNL     1     -41.143  54.912 -54.422  1.00  0.00     0.064 A 
HETATM   28  C   UNL     1     -40.069  51.603 -53.789  1.00  0.00     0.087 A 
HETATM   29  C   UNL     1     -39.683  50.313 -54.148  1.00  0.00     0.038 A 
HETATM   30  C   UNL     1     -39.363  49.443 -53.102  1.00  0.00     0.003 A 
HETATM   31  C   UNL     1     -39.431  49.859 -51.769  1.00  0.00     0.001 A 
HETATM   32  C   UNL     1     -39.825  51.163 -51.438  1.00  0.00     0.015 A 
BRANCH  21  33
HETATM   33  O   UNL     1     -41.666  56.647 -51.215  1.00  0.00    -0.354 OA
HETATM   34  C   UNL     1     -41.419  56.198 -49.878  1.00  0.00     0.210 C 
ENDBRANCH  21  33
ENDBRANCH  18  20
ENDBRANCH   1  18
TORSDOF 7
ENDMDL
MODEL 3
REMARK VINA RESULT:      -8.6      3.578      6.278
REMARK  7 active torsions:
REMARK  status: ('A' for Active; 'I' for Inactive)
REMARK       I    between atoms: N_2  and  C_3 
REMARK    1  A    between atoms: N_2  and  C_22 
REMARK    2  A    between atoms: C_3  and  C_4 
REMARK    3  A    between atoms: C_4  and  N_5 
REMARK    4  A    between atoms: N_5  and  C_6 
REMARK    5  A    between atoms: C_7  and  O_8 
REMARK    6  A    between atoms: C_22  and  C_23 
REMARK       I    between atoms: C_23  and  N_24 
REMARK    7  A    between atoms: N_24  and  C_25 
ROOT
HETATM    1  C   UNL     1     -40.914  58.084 -50.356  1.00  0.00     0.195 C 
ENDROOT
BRANCH   1   2
HETATM    2  C   UNL     1     -40.910  59.087 -51.529  1.00  0.00     0.233 C 
HETATM    3  N   UNL     1     -42.138  59.435 -52.092  1.00  0.00    -0.347 N 
HETATM    4  C   UNL     1     -42.129  60.205 -53.324  1.00  0.00     0.153 C 
HETATM    5  O   UNL     1     -39.837  59.422 -52.041  1.00  0.00    -0.272 OA
BRANCH   3   6
HETATM    6  C   UNL     1     -43.389  59.455 -51.321  1.00  0.00     0.228 C 
BRANCH   6   7
HETATM    7  C   UNL     1     -43.612  60.633 -50.361  1.00  0.00     0.240 C 
HETATM    8  N   UNL     1     -44.673  60.476 -49.488  1.00  0.00    -0.324 N 
HETATM    9  H   UNL     1     -44.828  59.508 -49.214  1.00  0.00     0.169 HD
HETATM   10  O   UNL     1     -42.870  61.611 -50.420  1.00  0.00    -0.271 OA
BRANCH   8  11
HETATM   11  C   UNL     1     -45.084  61.461 -48.554  1.00  0.00     0.056 A 
HETATM   12  C   UNL     1     -45.782  62.641 -48.866  1.00  0.00     0.060 A 
HETATM   13 CL   UNL     1     -46.512  62.937 -50.409  1.00  0.00    -0.082 Cl
HETATM   14  C   UNL     1     -46.054  63.583 -47.864  1.00  0.00     0.026 A 
HETATM   15  C   UNL     1     -45.669  63.344 -46.544  1.00  0.00     0.002 A 
HETATM   16  C   UNL     1     -45.046  62.146 -46.216  1.00  0.00     0.002 A 
HETATM   17  C   UNL     1     -44.773  61.206 -47.211  1.00  0.00     0.031 A 
ENDBRANCH   8  11
ENDBRANCH   6   7
ENDBRANCH   3   6
ENDBRANCH   1   2
BRANCH   1  18
HETATM   18  N   UNL     1     -41.783  56.971 -50.774  1.00  0.00    -0.282 NA
HETATM   19  H   UNL     1     -42.279  57.255 -51.623  1.00  0.00     0.128 HD
BRANCH  18  20
HETATM   20  C   UNL     1     -41.236  55.684 -50.958  1.00  0.00     0.045 A 
HETATM   21  C   UNL     1     -40.903  54.775 -49.930  1.00  0.00     0.090 A 
HETATM   22  C   UNL     1     -40.438  53.471 -50.202  1.00  0.00     0.053 A 
HETATM   23  C   UNL     1     -40.386  53.029 -51.534  1.00  0.00     0.014 A 
HETATM   24  C   UNL     1     -40.776  53.913 -52.529  1.00  0.00     0.089 A 
HETATM   25  C   UNL     1     -40.027  51.822 -52.202  1.00  0.00     0.011 A 
HETATM   26  O   UNL     1     -40.689  53.330 -53.755  1.00  0.00    -0.309 OA
HETATM   27  C   UNL     1     -41.202  55.218 -52.290  1.00  0.00     0.064 A 
HETATM   28  C   UNL     1     -40.235  52.062 -53.557  1.00  0.00     0.087 A 
HETATM   29  C   UNL     1     -40.009  51.123 -54.562  1.00  0.00     0.038 A 
HETATM   30  C   UNL     1     -39.544  49.870 -54.152  1.00  0.00     0.003 A 
HETATM   31  C   UNL     1     -39.323  49.587 -52.801  1.00  0.00     0.001 A 
HETATM   32  C   UNL     1     -39.561  50.552 -51.811  1.00  0.00     0.015 A 
BRANCH  21  33
HETATM   33  O   UNL     1     -40.974  55.166 -48.613  1.00  0.00    -0.354 OA
HETATM   34  C   UNL     1     -40.498  54.138 -47.738  1.00  0.00     0.210 C 
ENDBRANCH  21  33
ENDBRANCH  18  20
ENDBRANCH   1  18
TORSDOF 7
ENDMDL
MODEL 4
REMARK VINA RESULT:      -8.6      2.757      7.655
REMARK  7 active torsions:
REMARK  status: ('A' for Active; 'I' for Inactive)
REMARK       I    between atoms: N_2  and  C_3 
REMARK    1  A    between atoms: N_2  and  C_22 
REMARK    2  A    between atoms: C_3  and  C_4 
REMARK    3  A    between atoms: C_4  and  N_5 
REMARK    4  A    between atoms: N_5  and  C_6 
REMARK    5  A    between atoms: C_7  and  O_8 
REMARK    6  A    between atoms: C_22  and  C_23 
REMARK       I    between atoms: C_23  and  N_24 
REMARK    7  A    between atoms: N_24  and  C_25 
ROOT
HETATM    1  C   UNL     1     -42.034  59.671 -53.417  1.00  0.00     0.195 C 
ENDROOT
BRANCH   1   2
HETATM    2  C   UNL     1     -41.151  58.987 -52.353  1.00  0.00     0.233 C 
HETATM    3  N   UNL     1     -41.671  57.871 -51.695  1.00  0.00    -0.347 N 
HETATM    4  C   UNL     1     -40.940  57.354 -50.550  1.00  0.00     0.153 C 
HETATM    5  O   UNL     1     -40.099  59.527 -51.994  1.00  0.00    -0.272 OA
BRANCH   3   6
HETATM    6  C   UNL     1     -42.631  56.954 -52.323  1.00  0.00     0.228 C 
BRANCH   6   7
HETATM    7  C   UNL     1     -42.326  55.450 -52.251  1.00  0.00     0.240 C 
HETATM    8  N   UNL     1     -41.117  55.077 -52.809  1.00  0.00    -0.324 N 
HETATM    9  H   UNL     1     -40.395  55.789 -52.716  1.00  0.00     0.169 HD
HETATM   10  O   UNL     1     -43.139  54.691 -51.728  1.00  0.00    -0.271 OA
BRANCH   8  11
HETATM   11  C   UNL     1     -40.663  53.736 -52.894  1.00  0.00     0.056 A 
HETATM   12  C   UNL     1     -40.012  53.028 -51.869  1.00  0.00     0.060 A 
HETATM   13 CL   UNL     1     -39.924  53.587 -50.232  1.00  0.00    -0.082 Cl
HETATM   14  C   UNL     1     -39.529  51.733 -52.107  1.00  0.00     0.026 A 
HETATM   15  C   UNL     1     -39.721  51.121 -53.345  1.00  0.00     0.002 A 
HETATM   16  C   UNL     1     -40.430  51.787 -54.339  1.00  0.00     0.002 A 
HETATM   17  C   UNL     1     -40.912  53.076 -54.106  1.00  0.00     0.031 A 
ENDBRANCH   8  11
ENDBRANCH   6   7
ENDBRANCH   3   6
ENDBRANCH   1   2
BRANCH   1  18
HETATM   18  N   UNL     1     -41.459  59.305 -54.722  1.00  0.00    -0.282 NA
HETATM   19  H   UNL     1     -40.732  58.601 -54.565  1.00  0.00     0.128 HD
BRANCH  18  20
HETATM   20  C   UNL     1     -42.304  58.880 -55.768  1.00  0.00     0.045 A 
HETATM   21  C   UNL     1     -43.048  59.724 -56.621  1.00  0.00     0.090 A 
HETATM   22  C   UNL     1     -43.806  59.222 -57.701  1.00  0.00     0.053 A 
HETATM   23  C   UNL     1     -43.751  57.850 -57.993  1.00  0.00     0.014 A 
HETATM   24  C   UNL     1     -42.966  57.042 -57.182  1.00  0.00     0.089 A 
HETATM   25  C   UNL     1     -44.314  56.986 -58.977  1.00  0.00     0.011 A 
HETATM   26  O   UNL     1     -43.003  55.750 -57.607  1.00  0.00    -0.309 OA
HETATM   27  C   UNL     1     -42.240  57.507 -56.088  1.00  0.00     0.064 A 
HETATM   28  C   UNL     1     -43.820  55.716 -58.695  1.00  0.00     0.087 A 
HETATM   29  C   UNL     1     -44.126  54.575 -59.435  1.00  0.00     0.038 A 
HETATM   30  C   UNL     1     -44.985  54.749 -60.524  1.00  0.00     0.003 A 
HETATM   31  C   UNL     1     -45.503  56.007 -60.842  1.00  0.00     0.001 A 
HETATM   32  C   UNL     1     -45.176  57.138 -60.079  1.00  0.00     0.015 A 
BRANCH  21  33
HETATM   33  O   UNL     1     -43.096  61.078 -56.383  1.00  0.00    -0.354 OA
HETATM   34  C   UNL     1     -42.388  61.809 -57.389  1.00  0.00     0.210 C 
ENDBRANCH  21  33
ENDBRANCH  18  20
ENDBRANCH   1  18
TORSDOF 7
ENDMDL
MODEL 5
REMARK VINA RESULT:      -8.6      2.352      3.073
REMARK  7 active torsions:
REMARK  status: ('A' for Active; 'I' for Inactive)
REMARK       I    between atoms: N_2  and  C_3 
REMARK    1  A    between atoms: N_2  and  C_22 
REMARK    2  A    between atoms: C_3  and  C_4 
REMARK    3  A    between atoms: C_4  and  N_5 
REMARK    4  A    between atoms: N_5  and  C_6 
REMARK    5  A    between atoms: C_7  and  O_8 
REMARK    6  A    between atoms: C_22  and  C_23 
REMARK       I    between atoms: C_23  and  N_24 
REMARK    7  A    between atoms: N_24  and  C_25 
ROOT
HETATM    1  C   UNL     1     -41.352  58.899 -54.070  1.00  0.00     0.195 C 
ENDROOT
BRANCH   1   2
HETATM    2  C   UNL     1     -42.267  59.990 -54.666  1.00  0.00     0.233 C 
HETATM    3  N   UNL     1     -42.248  60.170 -56.050  1.00  0.00    -0.347 N 
HETATM    4  C   UNL     1     -42.937  61.326 -56.595  1.00  0.00     0.153 C 
HETATM    5  O   UNL     1     -42.855  60.773 -53.912  1.00  0.00    -0.272 OA
BRANCH   3   6
HETATM    6  C   UNL     1     -41.965  59.076 -56.990  1.00  0.00     0.228 C 
BRANCH   6   7
HETATM    7  C   UNL     1     -43.132  58.156 -57.379  1.00  0.00     0.240 C 
HETATM    8  N   UNL     1     -43.657  58.387 -58.637  1.00  0.00    -0.324 N 
HETATM    9  H   UNL     1     -42.962  58.707 -59.310  1.00  0.00     0.169 HD
HETATM   10  O   UNL     1     -43.523  57.303 -56.584  1.00  0.00    -0.271 OA
BRANCH   8  11
HETATM   11  C   UNL     1     -44.767  57.687 -59.174  1.00  0.00     0.056 A 
HETATM   12  C   UNL     1     -44.716  56.425 -59.792  1.00  0.00     0.060 A 
HETATM   13 CL   UNL     1     -43.328  55.390 -59.731  1.00  0.00    -0.082 Cl
HETATM   14  C   UNL     1     -45.872  55.876 -60.365  1.00  0.00     0.026 A 
HETATM   15  C   UNL     1     -47.088  56.555 -60.297  1.00  0.00     0.002 A 
HETATM   16  C   UNL     1     -47.162  57.768 -59.622  1.00  0.00     0.002 A 
HETATM   17  C   UNL     1     -46.013  58.318 -59.050  1.00  0.00     0.031 A 
ENDBRANCH   8  11
ENDBRANCH   6   7
ENDBRANCH   3   6
ENDBRANCH   1   2
BRANCH   1  18
HETATM   18  N   UNL     1     -42.237  57.786 -53.689  1.00  0.00    -0.282 NA
HETATM   19  H   UNL     1     -42.837  57.568 -54.490  1.00  0.00     0.128 HD
BRANCH  18  20
HETATM   20  C   UNL     1     -41.684  56.592 -53.179  1.00  0.00     0.045 A 
HETATM   21  C   UNL     1     -41.560  56.261 -51.812  1.00  0.00     0.090 A 
HETATM   22  C   UNL     1     -41.073  55.007 -51.385  1.00  0.00     0.053 A 
HETATM   23  C   UNL     1     -40.784  54.024 -52.345  1.00  0.00     0.014 A 
HETATM   24  C   UNL     1     -40.971  54.345 -53.682  1.00  0.00     0.089 A 
HETATM   25  C   UNL     1     -40.326  52.674 -52.327  1.00  0.00     0.011 A 
HETATM   26  O   UNL     1     -40.668  53.285 -54.479  1.00  0.00    -0.309 OA
HETATM   27  C   UNL     1     -41.414  55.587 -54.131  1.00  0.00     0.064 A 
HETATM   28  C   UNL     1     -40.278  52.272 -53.658  1.00  0.00     0.087 A 
HETATM   29  C   UNL     1     -39.884  51.003 -54.079  1.00  0.00     0.038 A 
HETATM   30  C   UNL     1     -39.522  50.098 -53.077  1.00  0.00     0.003 A 
HETATM   31  C   UNL     1     -39.557  50.461 -51.728  1.00  0.00     0.001 A 
HETATM   32  C   UNL     1     -39.959  51.746 -51.334  1.00  0.00     0.015 A 
BRANCH  21  33
HETATM   33  O   UNL     1     -41.866  57.190 -50.845  1.00  0.00    -0.354 OA
HETATM   34  C   UNL     1     -40.731  58.001 -50.525  1.00  0.00     0.210 C 
ENDBRANCH  21  33
ENDBRANCH  18  20
ENDBRANCH   1  18
TORSDOF 7
ENDMDL
MODEL 6
REMARK VINA RESULT:      -8.6      2.646      5.347
REMARK  7 active torsions:
REMARK  status: ('A' for Active; 'I' for Inactive)
REMARK       I    between atoms: N_2  and  C_3 
REMARK    1  A    between atoms: N_2  and  C_22 
REMARK    2  A    between atoms: C_3  and  C_4 
REMARK    3  A    between atoms: C_4  and  N_5 
REMARK    4  A    between atoms: N_5  and  C_6 
REMARK    5  A    between atoms: C_7  and  O_8 
REMARK    6  A    between atoms: C_22  and  C_23 
REMARK       I    between atoms: C_23  and  N_24 
REMARK    7  A    between atoms: N_24  and  C_25 
ROOT
HETATM    1  C   UNL     1     -43.067  56.099 -58.056  1.00  0.00     0.195 C 
ENDROOT
BRANCH   1   2
HETATM    2  C   UNL     1     -43.838  56.989 -59.054  1.00  0.00     0.233 C 
HETATM    3  N   UNL     1     -43.492  58.340 -59.122  1.00  0.00    -0.347 N 
HETATM    4  C   UNL     1     -44.349  59.223 -59.895  1.00  0.00     0.153 C 
HETATM    5  O   UNL     1     -44.831  56.538 -59.634  1.00  0.00    -0.272 OA
BRANCH   3   6
HETATM    6  C   UNL     1     -42.135  58.828 -58.842  1.00  0.00     0.228 C 
BRANCH   6   7
HETATM    7  C   UNL     1     -41.905  59.558 -57.510  1.00  0.00     0.240 C 
HETATM    8  N   UNL     1     -42.647  59.074 -56.448  1.00  0.00    -0.324 N 
HETATM    9  H   UNL     1     -42.820  58.071 -56.503  1.00  0.00     0.169 HD
HETATM   10  O   UNL     1     -41.110  60.495 -57.461  1.00  0.00    -0.271 OA
BRANCH   8  11
HETATM   11  C   UNL     1     -42.624  59.632 -55.145  1.00  0.00     0.056 A 
HETATM   12  C   UNL     1     -43.492  60.630 -54.669  1.00  0.00     0.060 A 
HETATM   13 CL   UNL     1     -44.923  61.129 -55.510  1.00  0.00    -0.082 Cl
HETATM   14  C   UNL     1     -43.311  61.166 -53.386  1.00  0.00     0.026 A 
HETATM   15  C   UNL     1     -42.296  60.690 -52.557  1.00  0.00     0.002 A 
HETATM   16  C   UNL     1     -41.482  59.651 -52.992  1.00  0.00     0.002 A 
HETATM   17  C   UNL     1     -41.659  59.115 -54.269  1.00  0.00     0.031 A 
ENDBRANCH   8  11
ENDBRANCH   6   7
ENDBRANCH   3   6
ENDBRANCH   1   2
BRANCH   1  18
HETATM   18  N   UNL     1     -43.770  56.225 -56.768  1.00  0.00    -0.282 NA
HETATM   19  H   UNL     1     -44.710  55.836 -56.879  1.00  0.00     0.128 HD
BRANCH  18  20
HETATM   20  C   UNL     1     -43.184  55.706 -55.595  1.00  0.00     0.045 A 
HETATM   21  C   UNL     1     -43.596  55.987 -54.274  1.00  0.00     0.090 A 
HETATM   22  C   UNL     1     -43.010  55.359 -53.154  1.00  0.00     0.053 A 
HETATM   23  C   UNL     1     -42.046  54.358 -53.360  1.00  0.00     0.014 A 
HETATM   24  C   UNL     1     -41.697  54.050 -54.667  1.00  0.00     0.089 A 
HETATM   25  C   UNL     1     -41.273  53.492 -52.534  1.00  0.00     0.011 A 
HETATM   26  O   UNL     1     -40.772  53.053 -54.696  1.00  0.00    -0.309 OA
HETATM   27  C   UNL     1     -42.232  54.682 -55.787  1.00  0.00     0.064 A 
HETATM   28  C   UNL     1     -40.515  52.714 -53.403  1.00  0.00     0.087 A 
HETATM   29  C   UNL     1     -39.622  51.726 -52.994  1.00  0.00     0.038 A 
HETATM   30  C   UNL     1     -39.502  51.525 -51.615  1.00  0.00     0.003 A 
HETATM   31  C   UNL     1     -40.245  52.285 -50.707  1.00  0.00     0.001 A 
HETATM   32  C   UNL     1     -41.137  53.273 -51.150  1.00  0.00     0.015 A 
BRANCH  21  33
HETATM   33  O   UNL     1     -44.562  56.938 -54.039  1.00  0.00    -0.354 OA
HETATM   34  C   UNL     1     -44.508  57.413 -52.690  1.00  0.00     0.210 C 
ENDBRANCH  21  33
ENDBRANCH  18  20
ENDBRANCH   1  18
TORSDOF 7
ENDMDL
MODEL 7
REMARK VINA RESULT:      -8.5      2.776      4.536
REMARK  7 active torsions:
REMARK  status: ('A' for Active; 'I' for Inactive)
REMARK       I    between atoms: N_2  and  C_3 
REMARK    1  A    between atoms: N_2  and  C_22 
REMARK    2  A    between atoms: C_3  and  C_4 
REMARK    3  A    between atoms: C_4  and  N_5 
REMARK    4  A    between atoms: N_5  and  C_6 
REMARK    5  A    between atoms: C_7  and  O_8 
REMARK    6  A    between atoms: C_22  and  C_23 
REMARK       I    between atoms: C_23  and  N_24 
REMARK    7  A    between atoms: N_24  and  C_25 
ROOT
HETATM    1  C   UNL     1     -43.058  56.707 -55.843  1.00  0.00     0.195 C 
ENDROOT
BRANCH   1   2
HETATM    2  C   UNL     1     -43.300  56.570 -57.361  1.00  0.00     0.233 C 
HETATM    3  N   UNL     1     -43.885  57.649 -58.026  1.00  0.00    -0.347 N 
HETATM    4  C   UNL     1     -44.310  57.452 -59.401  1.00  0.00     0.153 C 
HETATM    5  O   UNL     1     -43.132  55.477 -57.910  1.00  0.00    -0.272 OA
BRANCH   3   6
HETATM    6  C   UNL     1     -43.705  59.042 -57.593  1.00  0.00     0.228 C 
BRANCH   6   7
HETATM    7  C   UNL     1     -42.445  59.777 -58.075  1.00  0.00     0.240 C 
HETATM    8  N   UNL     1     -42.689  60.909 -58.832  1.00  0.00    -0.324 N 
HETATM    9  H   UNL     1     -43.541  61.398 -58.560  1.00  0.00     0.169 HD
HETATM   10  O   UNL     1     -41.336  59.338 -57.779  1.00  0.00    -0.271 OA
BRANCH   8  11
HETATM   11  C   UNL     1     -41.673  61.706 -59.417  1.00  0.00     0.056 A 
HETATM   12  C   UNL     1     -41.343  61.735 -60.783  1.00  0.00     0.060 A 
HETATM   13 CL   UNL     1     -42.326  61.017 -62.016  1.00  0.00    -0.082 Cl
HETATM   14  C   UNL     1     -40.254  62.499 -61.228  1.00  0.00     0.026 A 
HETATM   15  C   UNL     1     -39.513  63.266 -60.329  1.00  0.00     0.002 A 
HETATM   16  C   UNL     1     -39.881  63.301 -58.988  1.00  0.00     0.002 A 
HETATM   17  C   UNL     1     -40.964  62.542 -58.542  1.00  0.00     0.031 A 
ENDBRANCH   8  11
ENDBRANCH   6   7
ENDBRANCH   3   6
ENDBRANCH   1   2
BRANCH   1  18
HETATM   18  N   UNL     1     -41.615  56.495 -55.638  1.00  0.00    -0.282 NA
HETATM   19  H   UNL     1     -41.189  57.397 -55.412  1.00  0.00     0.128 HD
BRANCH  18  20
HETATM   20  C   UNL     1     -41.172  55.523 -54.717  1.00  0.00     0.045 A 
HETATM   21  C   UNL     1     -41.146  55.671 -53.312  1.00  0.00     0.090 A 
HETATM   22  C   UNL     1     -40.768  54.617 -52.453  1.00  0.00     0.053 A 
HETATM   23  C   UNL     1     -40.493  53.354 -53.002  1.00  0.00     0.014 A 
HETATM   24  C   UNL     1     -40.583  53.209 -54.379  1.00  0.00     0.089 A 
HETATM   25  C   UNL     1     -40.128  52.072 -52.498  1.00  0.00     0.011 A 
HETATM   26  O   UNL     1     -40.308  51.929 -54.749  1.00  0.00    -0.309 OA
HETATM   27  C   UNL     1     -40.917  54.243 -55.252  1.00  0.00     0.064 A 
HETATM   28  C   UNL     1     -40.032  51.239 -53.609  1.00  0.00     0.087 A 
HETATM   29  C   UNL     1     -39.701  49.887 -53.547  1.00  0.00     0.038 A 
HETATM   30  C   UNL     1     -39.457  49.361 -52.275  1.00  0.00     0.003 A 
HETATM   31  C   UNL     1     -39.542  50.163 -51.133  1.00  0.00     0.001 A 
HETATM   32  C   UNL     1     -39.878  51.521 -51.226  1.00  0.00     0.015 A 
BRANCH  21  33
HETATM   33  O   UNL     1     -41.443  56.885 -52.740  1.00  0.00    -0.354 OA
HETATM   34  C   UNL     1     -41.899  56.729 -51.392  1.00  0.00     0.210 C 
ENDBRANCH  21  33
ENDBRANCH  18  20
ENDBRANCH   1  18
TORSDOF 7
ENDMDL
MODEL 8
REMARK VINA RESULT:      -8.5      3.041      4.093
REMARK  7 active torsions:
REMARK  status: ('A' for Active; 'I' for Inactive)
REMARK       I    between atoms: N_2  and  C_3 
REMARK    1  A    between atoms: N_2  and  C_22 
REMARK    2  A    between atoms: C_3  and  C_4 
REMARK    3  A    between atoms: C_4  and  N_5 
REMARK    4  A    between atoms: N_5  and  C_6 
REMARK    5  A    between atoms: C_7  and  O_8 
REMARK    6  A    between atoms: C_22  and  C_23 
REMARK       I    between atoms: C_23  and  N_24 
REMARK    7  A    between atoms: N_24  and  C_25 
ROOT
HETATM    1  C   UNL     1     -42.861  56.918 -55.427  1.00  0.00     0.195 C 
ENDROOT
BRANCH   1   2
HETATM    2  C   UNL     1     -42.498  57.945 -56.520  1.00  0.00     0.233 C 
HETATM    3  N   UNL     1     -42.438  57.496 -57.840  1.00  0.00    -0.347 N 
HETATM    4  C   UNL     1     -41.892  58.397 -58.841  1.00  0.00     0.153 C 
HETATM    5  O   UNL     1     -42.113  59.073 -56.194  1.00  0.00    -0.272 OA
BRANCH   3   6
HETATM    6  C   UNL     1     -43.262  56.387 -58.341  1.00  0.00     0.228 C 
BRANCH   6   7
HETATM    7  C   UNL     1     -44.148  56.660 -59.567  1.00  0.00     0.240 C 
HETATM    8  N   UNL     1     -45.367  57.245 -59.281  1.00  0.00    -0.324 N 
HETATM    9  H   UNL     1     -45.335  57.869 -58.477  1.00  0.00     0.169 HD
HETATM   10  O   UNL     1     -43.744  56.353 -60.687  1.00  0.00    -0.271 OA
BRANCH   8  11
HETATM   11  C   UNL     1     -46.356  57.535 -60.255  1.00  0.00     0.056 A 
HETATM   12  C   UNL     1     -46.683  58.817 -60.730  1.00  0.00     0.060 A 
HETATM   13 CL   UNL     1     -45.723  60.225 -60.413  1.00  0.00    -0.082 Cl
HETATM   14  C   UNL     1     -47.744  58.984 -61.631  1.00  0.00     0.026 A 
HETATM   15  C   UNL     1     -48.460  57.880 -62.094  1.00  0.00     0.002 A 
HETATM   16  C   UNL     1     -48.094  56.602 -61.687  1.00  0.00     0.002 A 
HETATM   17  C   UNL     1     -47.037  56.433 -60.790  1.00  0.00     0.031 A 
ENDBRANCH   8  11
ENDBRANCH   6   7
ENDBRANCH   3   6
ENDBRANCH   1   2
BRANCH   1  18
HETATM   18  N   UNL     1     -41.843  57.065 -54.373  1.00  0.00    -0.282 NA
HETATM   19  H   UNL     1     -42.192  57.736 -53.684  1.00  0.00     0.128 HD
BRANCH  18  20
HETATM   20  C   UNL     1     -41.352  55.922 -53.707  1.00  0.00     0.045 A 
HETATM   21  C   UNL     1     -41.323  55.733 -52.308  1.00  0.00     0.090 A 
HETATM   22  C   UNL     1     -40.894  54.523 -51.722  1.00  0.00     0.053 A 
HETATM   23  C   UNL     1     -40.567  53.440 -52.554  1.00  0.00     0.014 A 
HETATM   24  C   UNL     1     -40.660  53.623 -53.927  1.00  0.00     0.089 A 
HETATM   25  C   UNL     1     -40.143  52.093 -52.367  1.00  0.00     0.011 A 
HETATM   26  O   UNL     1     -40.332  52.481 -54.589  1.00  0.00    -0.309 OA
HETATM   27  C   UNL     1     -41.044  54.818 -54.530  1.00  0.00     0.064 A 
HETATM   28  C   UNL     1     -40.018  51.553 -53.644  1.00  0.00     0.087 A 
HETATM   29  C   UNL     1     -39.629  50.240 -53.904  1.00  0.00     0.038 A 
HETATM   30  C   UNL     1     -39.353  49.439 -52.792  1.00  0.00     0.003 A 
HETATM   31  C   UNL     1     -39.466  49.942 -51.493  1.00  0.00     0.001 A 
HETATM   32  C   UNL     1     -39.862  51.267 -51.262  1.00  0.00     0.015 A 
BRANCH  21  33
HETATM   33  O   UNL     1     -41.669  56.763 -51.465  1.00  0.00    -0.354 OA
HETATM   34  C   UNL     1     -43.010  56.617 -50.987  1.00  0.00     0.210 C 
ENDBRANCH  21  33
ENDBRANCH  18  20
ENDBRANCH   1  18
TORSDOF 7
ENDMDL
MODEL 9
REMARK VINA RESULT:      -8.5      4.196      7.318
REMARK  7 active torsions:
REMARK  status: ('A' for Active; 'I' for Inactive)
REMARK       I    between atoms: N_2  and  C_3 
REMARK    1  A    between atoms: N_2  and  C_22 
REMARK    2  A    between atoms: C_3  and  C_4 
REMARK    3  A    between atoms: C_4  and  N_5 
REMARK    4  A    between atoms: N_5  and  C_6 
REMARK    5  A    between atoms: C_7  and  O_8 
REMARK    6  A    between atoms: C_22  and  C_23 
REMARK       I    between atoms: C_23  and  N_24 
REMARK    7  A    between atoms: N_24  and  C_25 
ROOT
HETATM    1  C   UNL     1     -42.873  57.823 -51.557  1.00  0.00     0.195 C 
ENDROOT
BRANCH   1   2
HETATM    2  C   UNL     1     -42.877  59.307 -51.978  1.00  0.00     0.233 C 
HETATM    3  N   UNL     1     -44.068  60.021 -51.836  1.00  0.00    -0.347 N 
HETATM    4  C   UNL     1     -44.141  61.347 -52.424  1.00  0.00     0.153 C 
HETATM    5  O   UNL     1     -41.901  59.776 -52.573  1.00  0.00    -0.272 OA
BRANCH   3   6
HETATM    6  C   UNL     1     -45.060  59.713 -50.796  1.00  0.00     0.228 C 
BRANCH   6   7
HETATM    7  C   UNL     1     -45.486  60.857 -49.863  1.00  0.00     0.240 C 
HETATM    8  N   UNL     1     -44.555  61.195 -48.898  1.00  0.00    -0.324 N 
HETATM    9  H   UNL     1     -43.593  61.067 -49.206  1.00  0.00     0.169 HD
HETATM   10  O   UNL     1     -46.586  61.385 -50.015  1.00  0.00    -0.271 OA
BRANCH   8  11
HETATM   11  C   UNL     1     -44.765  62.186 -47.906  1.00  0.00     0.056 A 
HETATM   12  C   UNL     1     -45.303  61.959 -46.627  1.00  0.00     0.060 A 
HETATM   13 CL   UNL     1     -45.521  60.379 -45.951  1.00  0.00    -0.082 Cl
HETATM   14  C   UNL     1     -45.546  63.038 -45.765  1.00  0.00     0.026 A 
HETATM   15  C   UNL     1     -45.224  64.339 -46.151  1.00  0.00     0.002 A 
HETATM   16  C   UNL     1     -44.623  64.562 -47.385  1.00  0.00     0.002 A 
HETATM   17  C   UNL     1     -44.379  63.490 -48.245  1.00  0.00     0.031 A 
ENDBRANCH   8  11
ENDBRANCH   6   7
ENDBRANCH   3   6
ENDBRANCH   1   2
BRANCH   1  18
HETATM   18  N   UNL     1     -41.501  57.338 -51.781  1.00  0.00    -0.282 NA
HETATM   19  H   UNL     1     -40.988  57.413 -50.898  1.00  0.00     0.128 HD
BRANCH  18  20
HETATM   20  C   UNL     1     -41.290  56.059 -52.338  1.00  0.00     0.045 A 
HETATM   21  C   UNL     1     -41.232  55.761 -53.717  1.00  0.00     0.090 A 
HETATM   22  C   UNL     1     -40.932  54.467 -54.193  1.00  0.00     0.053 A 
HETATM   23  C   UNL     1     -40.593  53.462 -53.272  1.00  0.00     0.014 A 
HETATM   24  C   UNL     1     -40.594  53.788 -51.924  1.00  0.00     0.089 A 
HETATM   25  C   UNL     1     -40.206  52.092 -53.343  1.00  0.00     0.011 A 
HETATM   26  O   UNL     1     -40.227  52.718 -51.168  1.00  0.00    -0.309 OA
HETATM   27  C   UNL     1     -40.924  55.047 -51.426  1.00  0.00     0.064 A 
HETATM   28  C   UNL     1     -39.991  51.689 -52.028  1.00  0.00     0.087 A 
HETATM   29  C   UNL     1     -39.588  50.408 -51.658  1.00  0.00     0.038 A 
HETATM   30  C   UNL     1     -39.394  49.491 -52.695  1.00  0.00     0.003 A 
HETATM   31  C   UNL     1     -39.598  49.854 -54.029  1.00  0.00     0.001 A 
HETATM   32  C   UNL     1     -40.003  51.152 -54.372  1.00  0.00     0.015 A 
BRANCH  21  33
HETATM   33  O   UNL     1     -41.526  56.731 -54.647  1.00  0.00    -0.354 OA
HETATM   34  C   UNL     1     -42.873  56.613 -55.114  1.00  0.00     0.210 C 
ENDBRANCH  21  33
ENDBRANCH  18  20
ENDBRANCH   1  18
TORSDOF 7
ENDMDL
MODEL 10
REMARK VINA RESULT:      -8.4      1.873      2.969
REMARK  7 active torsions:
REMARK  status: ('A' for Active; 'I' for Inactive)
REMARK       I    between atoms: N_2  and  C_3 
REMARK    1  A    between atoms: N_2  and  C_22 
REMARK    2  A    between atoms: C_3  and  C_4 
REMARK    3  A    between atoms: C_4  and  N_5 
REMARK    4  A    between atoms: N_5  and  C_6 
REMARK    5  A    between atoms: C_7  and  O_8 
REMARK    6  A    between atoms: C_22  and  C_23 
REMARK       I    between atoms: C_23  and  N_24 
REMARK    7  A    between atoms: N_24  and  C_25 
ROOT
HETATM    1  C   UNL     1     -41.374  58.372 -51.206  1.00  0.00     0.195 C 
ENDROOT
BRANCH   1   2
HETATM    2  C   UNL     1     -42.397  59.433 -51.661  1.00  0.00     0.233 C 
HETATM    3  N   UNL     1     -42.126  60.136 -52.837  1.00  0.00    -0.347 N 
HETATM    4  C   UNL     1     -42.966  61.277 -53.157  1.00  0.00     0.153 C 
HETATM    5  O   UNL     1     -43.325  59.750 -50.910  1.00  0.00    -0.272 OA
BRANCH   3   6
HETATM    6  C   UNL     1     -41.359  59.558 -53.949  1.00  0.00     0.228 C 
BRANCH   6   7
HETATM    7  C   UNL     1     -42.017  59.554 -55.337  1.00  0.00     0.240 C 
HETATM    8  N   UNL     1     -43.138  58.752 -55.444  1.00  0.00    -0.324 N 
HETATM    9  H   UNL     1     -43.676  58.695 -54.581  1.00  0.00     0.169 HD
HETATM   10  O   UNL     1     -41.532  60.232 -56.240  1.00  0.00    -0.271 OA
BRANCH   8  11
HETATM   11  C   UNL     1     -43.868  58.563 -56.645  1.00  0.00     0.056 A 
HETATM   12  C   UNL     1     -43.715  57.484 -57.533  1.00  0.00     0.060 A 
HETATM   13 CL   UNL     1     -42.815  56.054 -57.148  1.00  0.00    -0.082 Cl
HETATM   14  C   UNL     1     -44.432  57.457 -58.737  1.00  0.00     0.026 A 
HETATM   15  C   UNL     1     -45.330  58.477 -59.050  1.00  0.00     0.002 A 
HETATM   16  C   UNL     1     -45.542  59.509 -58.143  1.00  0.00     0.002 A 
HETATM   17  C   UNL     1     -44.830  59.540 -56.942  1.00  0.00     0.031 A 
ENDBRANCH   8  11
ENDBRANCH   6   7
ENDBRANCH   3   6
ENDBRANCH   1   2
BRANCH   1  18
HETATM   18  N   UNL     1     -42.158  57.178 -50.844  1.00  0.00    -0.282 NA
HETATM   19  H   UNL     1     -43.150  57.431 -50.861  1.00  0.00     0.128 HD
BRANCH  18  20
HETATM   20  C   UNL     1     -41.969  55.973 -51.554  1.00  0.00     0.045 A 
HETATM   21  C   UNL     1     -42.400  55.719 -52.874  1.00  0.00     0.090 A 
HETATM   22  C   UNL     1     -42.096  54.514 -53.544  1.00  0.00     0.053 A 
HETATM   23  C   UNL     1     -41.265  53.574 -52.914  1.00  0.00     0.014 A 
HETATM   24  C   UNL     1     -40.799  53.867 -51.641  1.00  0.00     0.089 A 
HETATM   25  C   UNL     1     -40.712  52.304 -53.250  1.00  0.00     0.011 A 
HETATM   26  O   UNL     1     -39.995  52.871 -51.180  1.00  0.00    -0.309 OA
HETATM   27  C   UNL     1     -41.115  55.031 -50.943  1.00  0.00     0.064 A 
HETATM   28  C   UNL     1     -39.942  51.923 -52.155  1.00  0.00     0.087 A 
HETATM   29  C   UNL     1     -39.219  50.734 -52.082  1.00  0.00     0.038 A 
HETATM   30  C   UNL     1     -39.291  49.891 -53.195  1.00  0.00     0.003 A 
HETATM   31  C   UNL     1     -40.052  50.235 -54.315  1.00  0.00     0.001 A 
HETATM   32  C   UNL     1     -40.769  51.440 -54.360  1.00  0.00     0.015 A 
BRANCH  21  33
HETATM   33  O   UNL     1     -43.188  56.634 -53.532  1.00  0.00    -0.354 OA
HETATM   34  C   UNL     1     -44.421  56.047 -53.960  1.00  0.00     0.210 C 
ENDBRANCH  21  33
ENDBRANCH  18  20
ENDBRANCH   1  18
TORSDOF 7
ENDMDL
