MODEL 1
REMARK VINA RESULT:      -7.9      0.000      0.000
REMARK  8 active torsions:
REMARK  status: ('A' for Active; 'I' for Inactive)
REMARK    1  A    between atoms: C_5  and  O_6 
REMARK    2  A    between atoms: O_6  and  C_7 
REMARK    3  A    between atoms: C_7  and  C_8 
REMARK    4  A    between atoms: C_8  and  C_9 
REMARK    5  A    between atoms: C_9  and  C_10 
REMARK    6  A    between atoms: C_10  and  N_11 
REMARK       I    between atoms: N_11  and  C_12 
REMARK    7  A    between atoms: C_12  and  C_13 
REMARK    8  A    between atoms: C_17  and  C_18 
ROOT
HETATM    1  N   UNL     1     -42.246  58.919 -54.922  1.00  0.00    -0.345 N 
HETATM    2  C   UNL     1     -41.300  58.641 -53.967  1.00  0.00     0.270 C 
HETATM    3  O   UNL     1     -40.528  59.490 -53.535  1.00  0.00    -0.266 OA
HETATM    4  H   UNL     1     -42.917  58.217 -55.188  1.00  0.00     0.163 HD
ENDROOT
BRANCH   2   5
HETATM    5  C   UNL     1     -41.279  57.280 -53.506  1.00  0.00     0.120 A 
HETATM    6  N   UNL     1     -41.948  56.893 -52.379  1.00  0.00    -0.272 N 
HETATM    7  H   UNL     1     -42.510  57.484 -51.774  1.00  0.00     0.189 HD
HETATM    8  N   UNL     1     -41.812  55.594 -52.075  1.00  0.00    -0.174 NA
HETATM    9  C   UNL     1     -41.032  55.097 -53.048  1.00  0.00     0.089 A 
HETATM   10  C   UNL     1     -40.674  56.126 -53.964  1.00  0.00     0.071 A 
BRANCH   9  11
HETATM   11  C   UNL     1     -40.641  53.684 -53.080  1.00  0.00    -0.003 A 
HETATM   12  C   UNL     1     -40.351  52.993 -51.892  1.00  0.00     0.053 A 
HETATM   13  C   UNL     1     -40.000  51.661 -51.979  1.00  0.00     0.106 A 
HETATM   14  C   UNL     1     -39.928  51.005 -53.185  1.00  0.00     0.105 A 
HETATM   15  O   UNL     1     -39.692  50.854 -50.929  1.00  0.00    -0.323 OA
HETATM   16  O   UNL     1     -39.566  49.702 -53.046  1.00  0.00    -0.323 OA
HETATM   17  C   UNL     1     -40.198  51.644 -54.373  1.00  0.00     0.040 A 
HETATM   18  C   UNL     1     -39.414  49.614 -51.614  1.00  0.00     0.352 A 
HETATM   19  C   UNL     1     -40.555  52.997 -54.314  1.00  0.00     0.017 A 
ENDBRANCH   9  11
ENDBRANCH   2   5
BRANCH   1  20
HETATM   20  C   UNL     1     -42.407  60.253 -55.435  1.00  0.00     0.217 C 
BRANCH  20  21
HETATM   21  C   UNL     1     -42.189  60.256 -56.882  1.00  0.00    -0.085 C 
BRANCH  21  22
HETATM   22  C   UNL     1     -42.011  60.272 -58.174  1.00  0.00    -0.078 C 
BRANCH  22  23
HETATM   23  C   UNL     1     -41.804  60.289 -59.679  1.00  0.00     0.269 C 
BRANCH  23  24
HETATM   24  O   UNL     1     -42.996  59.833 -60.311  1.00  0.00    -0.338 OA
BRANCH  24  25
HETATM   25  C   UNL     1     -43.284  58.505 -60.182  1.00  0.00     0.087 A 
HETATM   26  C   UNL     1     -42.405  57.438 -60.313  1.00  0.00     0.153 A 
HETATM   27  N   UNL     1     -42.757  56.137 -60.166  1.00  0.00    -0.263 NA
HETATM   28  C   UNL     1     -44.051  55.872 -59.873  1.00  0.00     0.030 A 
HETATM   29  C   UNL     1     -44.439  54.433 -59.706  1.00  0.00     0.070 C 
HETATM   30  C   UNL     1     -45.003  56.875 -59.728  1.00  0.00     0.029 A 
HETATM   31  C   UNL     1     -44.609  58.203 -59.885  1.00  0.00     0.040 A 
ENDBRANCH  24  25
ENDBRANCH  23  24
ENDBRANCH  22  23
ENDBRANCH  21  22
ENDBRANCH  20  21
ENDBRANCH   1  20
TORSDOF 8
ENDMDL
MODEL 2
REMARK VINA RESULT:      -7.8      6.012      9.179
REMARK  8 active torsions:
REMARK  status: ('A' for Active; 'I' for Inactive)
REMARK    1  A    between atoms: C_5  and  O_6 
REMARK    2  A    between atoms: O_6  and  C_7 
REMARK    3  A    between atoms: C_7  and  C_8 
REMARK    4  A    between atoms: C_8  and  C_9 
REMARK    5  A    between atoms: C_9  and  C_10 
REMARK    6  A    between atoms: C_10  and  N_11 
REMARK       I    between atoms: N_11  and  C_12 
REMARK    7  A    between atoms: C_12  and  C_13 
REMARK    8  A    between atoms: C_17  and  C_18 
ROOT
HETATM    1  N   UNL     1     -42.300  59.687 -50.485  1.00  0.00    -0.345 N 
HETATM    2  C   UNL     1     -42.124  58.966 -51.639  1.00  0.00     0.270 C 
HETATM    3  O   UNL     1     -42.250  59.463 -52.754  1.00  0.00    -0.266 OA
HETATM    4  H   UNL     1     -42.103  59.267 -49.591  1.00  0.00     0.163 HD
ENDROOT
BRANCH   2   5
HETATM    5  C   UNL     1     -41.777  57.585 -51.450  1.00  0.00     0.120 A 
HETATM    6  N   UNL     1     -41.763  57.010 -50.211  1.00  0.00    -0.272 N 
HETATM    7  H   UNL     1     -41.988  57.462 -49.330  1.00  0.00     0.189 HD
HETATM    8  N   UNL     1     -41.400  55.719 -50.205  1.00  0.00    -0.174 NA
HETATM    9  C   UNL     1     -41.176  55.423 -51.495  1.00  0.00     0.089 A 
HETATM   10  C   UNL     1     -41.400  56.570 -52.308  1.00  0.00     0.071 A 
BRANCH   9  11
HETATM   11  C   UNL     1     -40.753  54.084 -51.919  1.00  0.00    -0.003 A 
HETATM   12  C   UNL     1     -40.489  53.082 -50.971  1.00  0.00     0.053 A 
HETATM   13  C   UNL     1     -40.105  51.837 -51.427  1.00  0.00     0.106 A 
HETATM   14  C   UNL     1     -39.976  51.559 -52.767  1.00  0.00     0.105 A 
HETATM   15  O   UNL     1     -39.814  50.764 -50.644  1.00  0.00    -0.323 OA
HETATM   16  O   UNL     1     -39.590  50.276 -52.997  1.00  0.00    -0.323 OA
HETATM   17  C   UNL     1     -40.220  52.513 -53.728  1.00  0.00     0.040 A 
HETATM   18  C   UNL     1     -39.485  49.779 -51.646  1.00  0.00     0.352 A 
HETATM   19  C   UNL     1     -40.610  53.786 -53.295  1.00  0.00     0.017 A 
ENDBRANCH   9  11
ENDBRANCH   2   5
BRANCH   1  20
HETATM   20  C   UNL     1     -42.601  61.093 -50.531  1.00  0.00     0.217 C 
BRANCH  20  21
HETATM   21  C   UNL     1     -43.825  61.361 -49.775  1.00  0.00    -0.085 C 
BRANCH  21  22
HETATM   22  C   UNL     1     -44.926  61.602 -49.119  1.00  0.00    -0.078 C 
BRANCH  22  23
HETATM   23  C   UNL     1     -46.209  61.883 -48.355  1.00  0.00     0.269 C 
BRANCH  23  24
HETATM   24  O   UNL     1     -46.265  61.021 -47.221  1.00  0.00    -0.338 OA
BRANCH  24  25
HETATM   25  C   UNL     1     -45.575  61.426 -46.115  1.00  0.00     0.087 A 
HETATM   26  C   UNL     1     -44.735  60.658 -45.320  1.00  0.00     0.153 A 
HETATM   27  N   UNL     1     -44.072  61.126 -44.234  1.00  0.00    -0.263 NA
HETATM   28  C   UNL     1     -44.247  62.428 -43.912  1.00  0.00     0.030 A 
HETATM   29  C   UNL     1     -43.511  62.948 -42.713  1.00  0.00     0.070 C 
HETATM   30  C   UNL     1     -45.073  63.273 -44.647  1.00  0.00     0.029 A 
HETATM   31  C   UNL     1     -45.740  62.761 -45.758  1.00  0.00     0.040 A 
ENDBRANCH  24  25
ENDBRANCH  23  24
ENDBRANCH  22  23
ENDBRANCH  21  22
ENDBRANCH  20  21
ENDBRANCH   1  20
TORSDOF 8
ENDMDL
MODEL 3
REMARK VINA RESULT:      -7.7      2.357      8.645
REMARK  8 active torsions:
REMARK  status: ('A' for Active; 'I' for Inactive)
REMARK    1  A    between atoms: C_5  and  O_6 
REMARK    2  A    between atoms: O_6  and  C_7 
REMARK    3  A    between atoms: C_7  and  C_8 
REMARK    4  A    between atoms: C_8  and  C_9 
REMARK    5  A    between atoms: C_9  and  C_10 
REMARK    6  A    between atoms: C_10  and  N_11 
REMARK       I    between atoms: N_11  and  C_12 
REMARK    7  A    between atoms: C_12  and  C_13 
REMARK    8  A    between atoms: C_17  and  C_18 
ROOT
HETATM    1  N   UNL     1     -42.262  57.960 -52.757  1.00  0.00    -0.345 N 
HETATM    2  C   UNL     1     -41.546  58.560 -53.762  1.00  0.00     0.270 C 
HETATM    3  O   UNL     1     -40.504  59.175 -53.556  1.00  0.00    -0.266 OA
HETATM    4  H   UNL     1     -43.064  57.392 -52.977  1.00  0.00     0.163 HD
ENDROOT
BRANCH   2   5
HETATM    5  C   UNL     1     -42.102  58.416 -55.079  1.00  0.00     0.120 A 
HETATM    6  N   UNL     1     -42.072  59.436 -55.988  1.00  0.00    -0.272 N 
HETATM    7  H   UNL     1     -41.672  60.359 -55.851  1.00  0.00     0.189 HD
HETATM    8  N   UNL     1     -42.650  59.144 -57.163  1.00  0.00    -0.174 NA
HETATM    9  C   UNL     1     -43.068  57.875 -57.032  1.00  0.00     0.089 A 
HETATM   10  C   UNL     1     -42.744  57.384 -55.736  1.00  0.00     0.071 A 
BRANCH   9  11
HETATM   11  C   UNL     1     -43.762  57.174 -58.116  1.00  0.00    -0.003 A 
HETATM   12  C   UNL     1     -45.030  57.596 -58.547  1.00  0.00     0.053 A 
HETATM   13  C   UNL     1     -45.632  56.906 -59.580  1.00  0.00     0.106 A 
HETATM   14  C   UNL     1     -45.029  55.831 -60.188  1.00  0.00     0.105 A 
HETATM   15  O   UNL     1     -46.852  57.186 -60.113  1.00  0.00    -0.323 OA
HETATM   16  O   UNL     1     -45.791  55.299 -61.180  1.00  0.00    -0.323 OA
HETATM   17  C   UNL     1     -43.790  55.381 -59.794  1.00  0.00     0.040 A 
HETATM   18  C   UNL     1     -46.948  56.160 -61.124  1.00  0.00     0.352 A 
HETATM   19  C   UNL     1     -43.155  56.061 -58.747  1.00  0.00     0.017 A 
ENDBRANCH   9  11
ENDBRANCH   2   5
BRANCH   1  20
HETATM   20  C   UNL     1     -41.791  57.986 -51.398  1.00  0.00     0.217 C 
BRANCH  20  21
HETATM   21  C   UNL     1     -41.606  56.617 -50.913  1.00  0.00    -0.085 C 
BRANCH  21  22
HETATM   22  C   UNL     1     -41.423  55.398 -50.490  1.00  0.00    -0.078 C 
BRANCH  22  23
HETATM   23  C   UNL     1     -41.209  53.977 -49.996  1.00  0.00     0.269 C 
BRANCH  23  24
HETATM   24  O   UNL     1     -39.919  53.536 -50.412  1.00  0.00    -0.338 OA
BRANCH  24  25
HETATM   25  C   UNL     1     -39.887  52.605 -51.410  1.00  0.00     0.087 A 
HETATM   26  C   UNL     1     -39.580  51.256 -51.292  1.00  0.00     0.153 A 
HETATM   27  N   UNL     1     -39.573  50.380 -52.327  1.00  0.00    -0.263 NA
HETATM   28  C   UNL     1     -39.887  50.864 -53.551  1.00  0.00     0.030 A 
HETATM   29  C   UNL     1     -39.882  49.895 -54.697  1.00  0.00     0.070 C 
HETATM   30  C   UNL     1     -40.203  52.201 -53.767  1.00  0.00     0.029 A 
HETATM   31  C   UNL     1     -40.201  53.075 -52.681  1.00  0.00     0.040 A 
ENDBRANCH  24  25
ENDBRANCH  23  24
ENDBRANCH  22  23
ENDBRANCH  21  22
ENDBRANCH  20  21
ENDBRANCH   1  20
TORSDOF 8
ENDMDL
MODEL 4
REMARK VINA RESULT:      -7.6      0.628      1.282
REMARK  8 active torsions:
REMARK  status: ('A' for Active; 'I' for Inactive)
REMARK    1  A    between atoms: C_5  and  O_6 
REMARK    2  A    between atoms: O_6  and  C_7 
REMARK    3  A    between atoms: C_7  and  C_8 
REMARK    4  A    between atoms: C_8  and  C_9 
REMARK    5  A    between atoms: C_9  and  C_10 
REMARK    6  A    between atoms: C_10  and  N_11 
REMARK       I    between atoms: N_11  and  C_12 
REMARK    7  A    between atoms: C_12  and  C_13 
REMARK    8  A    between atoms: C_17  and  C_18 
ROOT
HETATM    1  N   UNL     1     -42.618  59.072 -54.690  1.00  0.00    -0.345 N 
HETATM    2  C   UNL     1     -41.519  58.750 -53.935  1.00  0.00     0.270 C 
HETATM    3  O   UNL     1     -40.616  59.548 -53.708  1.00  0.00    -0.266 OA
HETATM    4  H   UNL     1     -43.379  58.418 -54.782  1.00  0.00     0.163 HD
ENDROOT
BRANCH   2   5
HETATM    5  C   UNL     1     -41.502  57.408 -53.422  1.00  0.00     0.120 A 
HETATM    6  N   UNL     1     -42.341  57.010 -52.419  1.00  0.00    -0.272 N 
HETATM    7  H   UNL     1     -43.038  57.580 -51.949  1.00  0.00     0.189 HD
HETATM    8  N   UNL     1     -42.185  55.732 -52.043  1.00  0.00    -0.174 NA
HETATM    9  C   UNL     1     -41.212  55.260 -52.838  1.00  0.00     0.089 A 
HETATM   10  C   UNL     1     -40.756  56.283 -53.716  1.00  0.00     0.071 A 
BRANCH   9  11
HETATM   11  C   UNL     1     -40.738  53.876 -52.741  1.00  0.00    -0.003 A 
HETATM   12  C   UNL     1     -40.689  53.053 -53.879  1.00  0.00     0.053 A 
HETATM   13  C   UNL     1     -40.223  51.762 -53.732  1.00  0.00     0.106 A 
HETATM   14  C   UNL     1     -39.812  51.270 -52.516  1.00  0.00     0.105 A 
HETATM   15  O   UNL     1     -40.112  50.843 -54.729  1.00  0.00    -0.323 OA
HETATM   16  O   UNL     1     -39.390  49.980 -52.594  1.00  0.00    -0.323 OA
HETATM   17  C   UNL     1     -39.847  52.039 -51.376  1.00  0.00     0.040 A 
HETATM   18  C   UNL     1     -39.587  49.714 -53.998  1.00  0.00     0.352 A 
HETATM   19  C   UNL     1     -40.317  53.353 -51.495  1.00  0.00     0.017 A 
ENDBRANCH   9  11
ENDBRANCH   2   5
BRANCH   1  20
HETATM   20  C   UNL     1     -42.786  60.397 -55.223  1.00  0.00     0.217 C 
BRANCH  20  21
HETATM   21  C   UNL     1     -42.449  60.403 -56.648  1.00  0.00    -0.085 C 
BRANCH  21  22
HETATM   22  C   UNL     1     -42.131  60.395 -57.913  1.00  0.00    -0.078 C 
BRANCH  22  23
HETATM   23  C   UNL     1     -41.761  60.388 -59.386  1.00  0.00     0.269 C 
BRANCH  23  24
HETATM   24  O   UNL     1     -42.891  59.959 -60.141  1.00  0.00    -0.338 OA
BRANCH  24  25
HETATM   25  C   UNL     1     -43.190  58.628 -60.086  1.00  0.00     0.087 A 
HETATM   26  C   UNL     1     -42.319  57.563 -60.278  1.00  0.00     0.153 A 
HETATM   27  N   UNL     1     -42.681  56.258 -60.203  1.00  0.00    -0.263 NA
HETATM   28  C   UNL     1     -43.977  55.988 -59.924  1.00  0.00     0.030 A 
HETATM   29  C   UNL     1     -44.376  54.545 -59.838  1.00  0.00     0.070 C 
HETATM   30  C   UNL     1     -44.921  56.989 -59.722  1.00  0.00     0.029 A 
HETATM   31  C   UNL     1     -44.517  58.320 -59.805  1.00  0.00     0.040 A 
ENDBRANCH  24  25
ENDBRANCH  23  24
ENDBRANCH  22  23
ENDBRANCH  21  22
ENDBRANCH  20  21
ENDBRANCH   1  20
TORSDOF 8
ENDMDL
MODEL 5
REMARK VINA RESULT:      -7.4      2.479      7.978
REMARK  8 active torsions:
REMARK  status: ('A' for Active; 'I' for Inactive)
REMARK    1  A    between atoms: C_5  and  O_6 
REMARK    2  A    between atoms: O_6  and  C_7 
REMARK    3  A    between atoms: C_7  and  C_8 
REMARK    4  A    between atoms: C_8  and  C_9 
REMARK    5  A    between atoms: C_9  and  C_10 
REMARK    6  A    between atoms: C_10  and  N_11 
REMARK       I    between atoms: N_11  and  C_12 
REMARK    7  A    between atoms: C_12  and  C_13 
REMARK    8  A    between atoms: C_17  and  C_18 
ROOT
HETATM    1  N   UNL     1     -41.232  58.407 -52.543  1.00  0.00    -0.345 N 
HETATM    2  C   UNL     1     -41.679  59.523 -53.205  1.00  0.00     0.270 C 
HETATM    3  O   UNL     1     -41.808  60.611 -52.653  1.00  0.00    -0.266 OA
HETATM    4  H   UNL     1     -41.056  57.555 -53.050  1.00  0.00     0.163 HD
ENDROOT
BRANCH   2   5
HETATM    5  C   UNL     1     -41.981  59.329 -54.596  1.00  0.00     0.120 A 
HETATM    6  N   UNL     1     -41.950  60.362 -55.489  1.00  0.00    -0.272 N 
HETATM    7  H   UNL     1     -41.718  61.331 -55.290  1.00  0.00     0.189 HD
HETATM    8  N   UNL     1     -42.276  60.017 -56.744  1.00  0.00    -0.174 NA
HETATM    9  C   UNL     1     -42.520  58.698 -56.681  1.00  0.00     0.089 A 
HETATM   10  C   UNL     1     -42.348  58.230 -55.348  1.00  0.00     0.071 A 
BRANCH   9  11
HETATM   11  C   UNL     1     -42.915  57.928 -57.865  1.00  0.00    -0.003 A 
HETATM   12  C   UNL     1     -44.231  57.460 -58.010  1.00  0.00     0.053 A 
HETATM   13  C   UNL     1     -44.551  56.751 -59.150  1.00  0.00     0.106 A 
HETATM   14  C   UNL     1     -43.624  56.495 -60.133  1.00  0.00     0.105 A 
HETATM   15  O   UNL     1     -45.773  56.231 -59.442  1.00  0.00    -0.323 OA
HETATM   16  O   UNL     1     -44.146  55.784 -61.167  1.00  0.00    -0.323 OA
HETATM   17  C   UNL     1     -42.323  56.931 -60.029  1.00  0.00     0.040 A 
HETATM   18  C   UNL     1     -45.508  55.616 -60.720  1.00  0.00     0.352 A 
HETATM   19  C   UNL     1     -41.970  57.652 -58.882  1.00  0.00     0.017 A 
ENDBRANCH   9  11
ENDBRANCH   2   5
BRANCH   1  20
HETATM   20  C   UNL     1     -40.846  58.474 -51.159  1.00  0.00     0.217 C 
BRANCH  20  21
HETATM   21  C   UNL     1     -41.036  57.166 -50.530  1.00  0.00    -0.085 C 
BRANCH  21  22
HETATM   22  C   UNL     1     -41.213  56.011 -49.951  1.00  0.00    -0.078 C 
BRANCH  22  23
HETATM   23  C   UNL     1     -41.417  54.665 -49.276  1.00  0.00     0.269 C 
BRANCH  23  24
HETATM   24  O   UNL     1     -41.141  53.632 -50.217  1.00  0.00    -0.338 OA
BRANCH  24  25
HETATM   25  C   UNL     1     -41.638  53.808 -51.476  1.00  0.00     0.087 A 
HETATM   26  C   UNL     1     -42.940  54.136 -51.828  1.00  0.00     0.153 A 
HETATM   27  N   UNL     1     -43.368  54.303 -53.104  1.00  0.00    -0.263 NA
HETATM   28  C   UNL     1     -42.459  54.136 -54.091  1.00  0.00     0.030 A 
HETATM   29  C   UNL     1     -42.931  54.323 -55.502  1.00  0.00     0.070 C 
HETATM   30  C   UNL     1     -41.133  53.802 -53.835  1.00  0.00     0.029 A 
HETATM   31  C   UNL     1     -40.725  53.638 -52.512  1.00  0.00     0.040 A 
ENDBRANCH  24  25
ENDBRANCH  23  24
ENDBRANCH  22  23
ENDBRANCH  21  22
ENDBRANCH  20  21
ENDBRANCH   1  20
TORSDOF 8
ENDMDL
MODEL 6
REMARK VINA RESULT:      -7.4     15.397     19.973
REMARK  8 active torsions:
REMARK  status: ('A' for Active; 'I' for Inactive)
REMARK    1  A    between atoms: C_5  and  O_6 
REMARK    2  A    between atoms: O_6  and  C_7 
REMARK    3  A    between atoms: C_7  and  C_8 
REMARK    4  A    between atoms: C_8  and  C_9 
REMARK    5  A    between atoms: C_9  and  C_10 
REMARK    6  A    between atoms: C_10  and  N_11 
REMARK       I    between atoms: N_11  and  C_12 
REMARK    7  A    between atoms: C_12  and  C_13 
REMARK    8  A    between atoms: C_17  and  C_18 
ROOT
HETATM    1  N   UNL     1     -34.601  42.013 -52.654  1.00  0.00    -0.345 N 
HETATM    2  C   UNL     1     -35.818  42.082 -53.285  1.00  0.00     0.270 C 
HETATM    3  O   UNL     1     -36.870  42.245 -52.675  1.00  0.00    -0.266 OA
HETATM    4  H   UNL     1     -33.753  41.966 -53.195  1.00  0.00     0.163 HD
ENDROOT
BRANCH   2   5
HETATM    5  C   UNL     1     -35.773  41.952 -54.715  1.00  0.00     0.120 A 
HETATM    6  N   UNL     1     -34.868  42.642 -55.471  1.00  0.00    -0.272 N 
HETATM    7  H   UNL     1     -34.158  43.284 -55.133  1.00  0.00     0.189 HD
HETATM    8  N   UNL     1     -34.971  42.423 -56.791  1.00  0.00    -0.174 NA
HETATM    9  C   UNL     1     -35.978  41.543 -56.912  1.00  0.00     0.089 A 
HETATM   10  C   UNL     1     -36.508  41.225 -55.630  1.00  0.00     0.071 A 
BRANCH   9  11
HETATM   11  C   UNL     1     -36.412  41.041 -58.220  1.00  0.00    -0.003 A 
HETATM   12  C   UNL     1     -36.125  39.723 -58.613  1.00  0.00     0.053 A 
HETATM   13  C   UNL     1     -36.569  39.300 -59.850  1.00  0.00     0.106 A 
HETATM   14  C   UNL     1     -37.274  40.125 -60.693  1.00  0.00     0.105 A 
HETATM   15  O   UNL     1     -36.376  38.061 -60.377  1.00  0.00    -0.323 OA
HETATM   16  O   UNL     1     -37.615  39.511 -61.857  1.00  0.00    -0.323 OA
HETATM   17  C   UNL     1     -37.572  41.424 -60.350  1.00  0.00     0.040 A 
HETATM   18  C   UNL     1     -37.038  38.204 -61.652  1.00  0.00     0.352 A 
HETATM   19  C   UNL     1     -37.133  41.882 -59.101  1.00  0.00     0.017 A 
ENDBRANCH   9  11
ENDBRANCH   2   5
BRANCH   1  20
HETATM   20  C   UNL     1     -34.497  42.178 -51.229  1.00  0.00     0.217 C 
BRANCH  20  21
HETATM   21  C   UNL     1     -33.624  41.142 -50.675  1.00  0.00    -0.085 C 
BRANCH  21  22
HETATM   22  C   UNL     1     -32.856  40.205 -50.193  1.00  0.00    -0.078 C 
BRANCH  22  23
HETATM   23  C   UNL     1     -31.959  39.114 -49.632  1.00  0.00     0.269 C 
BRANCH  23  24
HETATM   24  O   UNL     1     -30.980  39.714 -48.789  1.00  0.00    -0.338 OA
BRANCH  24  25
HETATM   25  C   UNL     1     -31.072  39.435 -47.456  1.00  0.00     0.087 A 
HETATM   26  C   UNL     1     -30.360  40.028 -46.421  1.00  0.00     0.153 A 
HETATM   27  N   UNL     1     -30.505  39.707 -45.112  1.00  0.00    -0.263 NA
HETATM   28  C   UNL     1     -31.404  38.744 -44.804  1.00  0.00     0.030 A 
HETATM   29  C   UNL     1     -31.567  38.390 -43.356  1.00  0.00     0.070 C 
HETATM   30  C   UNL     1     -32.158  38.091 -45.773  1.00  0.00     0.029 A 
HETATM   31  C   UNL     1     -31.986  38.445 -47.110  1.00  0.00     0.040 A 
ENDBRANCH  24  25
ENDBRANCH  23  24
ENDBRANCH  22  23
ENDBRANCH  21  22
ENDBRANCH  20  21
ENDBRANCH   1  20
TORSDOF 8
ENDMDL
MODEL 7
REMARK VINA RESULT:      -7.1      5.206      8.021
REMARK  8 active torsions:
REMARK  status: ('A' for Active; 'I' for Inactive)
REMARK    1  A    between atoms: C_5  and  O_6 
REMARK    2  A    between atoms: O_6  and  C_7 
REMARK    3  A    between atoms: C_7  and  C_8 
REMARK    4  A    between atoms: C_8  and  C_9 
REMARK    5  A    between atoms: C_9  and  C_10 
REMARK    6  A    between atoms: C_10  and  N_11 
REMARK       I    between atoms: N_11  and  C_12 
REMARK    7  A    between atoms: C_12  and  C_13 
REMARK    8  A    between atoms: C_17  and  C_18 
ROOT
HETATM    1  N   UNL     1     -43.094  58.496 -54.057  1.00  0.00    -0.345 N 
HETATM    2  C   UNL     1     -41.753  58.206 -54.084  1.00  0.00     0.270 C 
HETATM    3  O   UNL     1     -40.888  59.072 -53.996  1.00  0.00    -0.266 OA
HETATM    4  H   UNL     1     -43.773  57.752 -54.044  1.00  0.00     0.163 HD
ENDROOT
BRANCH   2   5
HETATM    5  C   UNL     1     -41.432  56.813 -54.221  1.00  0.00     0.120 A 
HETATM    6  N   UNL     1     -41.466  56.183 -55.434  1.00  0.00    -0.272 N 
HETATM    7  H   UNL     1     -41.702  56.601 -56.328  1.00  0.00     0.189 HD
HETATM    8  N   UNL     1     -41.158  54.878 -55.386  1.00  0.00    -0.174 NA
HETATM    9  C   UNL     1     -40.896  54.637 -54.092  1.00  0.00     0.089 A 
HETATM   10  C   UNL     1     -41.060  55.827 -53.328  1.00  0.00     0.071 A 
BRANCH   9  11
HETATM   11  C   UNL     1     -40.514  53.304 -53.615  1.00  0.00    -0.003 A 
HETATM   12  C   UNL     1     -40.449  53.025 -52.240  1.00  0.00     0.053 A 
HETATM   13  C   UNL     1     -40.095  51.749 -51.849  1.00  0.00     0.106 A 
HETATM   14  C   UNL     1     -39.809  50.760 -52.759  1.00  0.00     0.105 A 
HETATM   15  O   UNL     1     -39.987  51.319 -50.563  1.00  0.00    -0.323 OA
HETATM   16  O   UNL     1     -39.486  49.582 -52.163  1.00  0.00    -0.323 OA
HETATM   17  C   UNL     1     -39.856  50.992 -54.115  1.00  0.00     0.040 A 
HETATM   18  C   UNL     1     -39.596  49.945 -50.770  1.00  0.00     0.352 A 
HETATM   19  C   UNL     1     -40.210  52.277 -54.542  1.00  0.00     0.017 A 
ENDBRANCH   9  11
ENDBRANCH   2   5
BRANCH   1  20
HETATM   20  C   UNL     1     -43.554  59.847 -53.874  1.00  0.00     0.217 C 
BRANCH  20  21
HETATM   21  C   UNL     1     -44.200  59.977 -52.567  1.00  0.00    -0.085 C 
BRANCH  21  22
HETATM   22  C   UNL     1     -44.762  60.076 -51.395  1.00  0.00    -0.078 C 
BRANCH  22  23
HETATM   23  C   UNL     1     -45.417  60.192 -50.028  1.00  0.00     0.269 C 
BRANCH  23  24
HETATM   24  O   UNL     1     -44.772  61.231 -49.297  1.00  0.00    -0.338 OA
BRANCH  24  25
HETATM   25  C   UNL     1     -45.515  61.846 -48.332  1.00  0.00     0.087 A 
HETATM   26  C   UNL     1     -46.684  62.575 -48.507  1.00  0.00     0.153 A 
HETATM   27  N   UNL     1     -47.379  63.159 -47.500  1.00  0.00    -0.263 NA
HETATM   28  C   UNL     1     -46.893  63.015 -46.245  1.00  0.00     0.030 A 
HETATM   29  C   UNL     1     -47.663  63.657 -45.130  1.00  0.00     0.070 C 
HETATM   30  C   UNL     1     -45.727  62.307 -45.974  1.00  0.00     0.029 A 
HETATM   31  C   UNL     1     -45.036  61.719 -47.032  1.00  0.00     0.040 A 
ENDBRANCH  24  25
ENDBRANCH  23  24
ENDBRANCH  22  23
ENDBRANCH  21  22
ENDBRANCH  20  21
ENDBRANCH   1  20
TORSDOF 8
ENDMDL
MODEL 8
REMARK VINA RESULT:      -7.1      2.414      3.133
REMARK  8 active torsions:
REMARK  status: ('A' for Active; 'I' for Inactive)
REMARK    1  A    between atoms: C_5  and  O_6 
REMARK    2  A    between atoms: O_6  and  C_7 
REMARK    3  A    between atoms: C_7  and  C_8 
REMARK    4  A    between atoms: C_8  and  C_9 
REMARK    5  A    between atoms: C_9  and  C_10 
REMARK    6  A    between atoms: C_10  and  N_11 
REMARK       I    between atoms: N_11  and  C_12 
REMARK    7  A    between atoms: C_12  and  C_13 
REMARK    8  A    between atoms: C_17  and  C_18 
ROOT
HETATM    1  N   UNL     1     -41.424  58.930 -52.405  1.00  0.00    -0.345 N 
HETATM    2  C   UNL     1     -42.216  58.195 -51.559  1.00  0.00     0.270 C 
HETATM    3  O   UNL     1     -43.250  58.638 -51.070  1.00  0.00    -0.266 OA
HETATM    4  H   UNL     1     -40.630  58.503 -52.855  1.00  0.00     0.163 HD
ENDROOT
BRANCH   2   5
HETATM    5  C   UNL     1     -41.749  56.863 -51.288  1.00  0.00     0.120 A 
HETATM    6  N   UNL     1     -41.465  56.446 -50.018  1.00  0.00    -0.272 N 
HETATM    7  H   UNL     1     -41.551  56.992 -49.166  1.00  0.00     0.189 HD
HETATM    8  N   UNL     1     -41.022  55.182 -49.939  1.00  0.00    -0.174 NA
HETATM    9  C   UNL     1     -41.025  54.741 -51.207  1.00  0.00     0.089 A 
HETATM   10  C   UNL     1     -41.473  55.769 -52.084  1.00  0.00     0.071 A 
BRANCH   9  11
HETATM   11  C   UNL     1     -40.600  53.380 -51.553  1.00  0.00    -0.003 A 
HETATM   12  C   UNL     1     -40.435  53.000 -52.895  1.00  0.00     0.053 A 
HETATM   13  C   UNL     1     -40.021  51.710 -53.162  1.00  0.00     0.106 A 
HETATM   14  C   UNL     1     -39.772  50.803 -52.161  1.00  0.00     0.105 A 
HETATM   15  O   UNL     1     -39.814  51.187 -54.400  1.00  0.00    -0.323 OA
HETATM   16  O   UNL     1     -39.375  49.594 -52.641  1.00  0.00    -0.323 OA
HETATM   17  C   UNL     1     -39.926  51.132 -50.834  1.00  0.00     0.040 A 
HETATM   18  C   UNL     1     -39.409  49.844 -54.062  1.00  0.00     0.352 A 
HETATM   19  C   UNL     1     -40.346  52.433 -50.532  1.00  0.00     0.017 A 
ENDBRANCH   9  11
ENDBRANCH   2   5
BRANCH   1  20
HETATM   20  C   UNL     1     -41.802  60.261 -52.799  1.00  0.00     0.217 C 
BRANCH  20  21
HETATM   21  C   UNL     1     -42.428  60.226 -54.122  1.00  0.00    -0.085 C 
BRANCH  21  22
HETATM   22  C   UNL     1     -42.972  60.209 -55.307  1.00  0.00    -0.078 C 
BRANCH  22  23
HETATM   23  C   UNL     1     -43.606  60.188 -56.688  1.00  0.00     0.269 C 
BRANCH  23  24
HETATM   24  O   UNL     1     -44.553  59.125 -56.741  1.00  0.00    -0.338 OA
BRANCH  24  25
HETATM   25  C   UNL     1     -44.089  57.880 -56.425  1.00  0.00     0.087 A 
HETATM   26  C   UNL     1     -43.258  57.074 -57.191  1.00  0.00     0.153 A 
HETATM   27  N   UNL     1     -42.827  55.844 -56.813  1.00  0.00    -0.263 NA
HETATM   28  C   UNL     1     -43.241  55.383 -55.610  1.00  0.00     0.030 A 
HETATM   29  C   UNL     1     -42.763  54.025 -55.191  1.00  0.00     0.070 C 
HETATM   30  C   UNL     1     -44.078  56.119 -54.778  1.00  0.00     0.029 A 
HETATM   31  C   UNL     1     -44.503  57.379 -55.195  1.00  0.00     0.040 A 
ENDBRANCH  24  25
ENDBRANCH  23  24
ENDBRANCH  22  23
ENDBRANCH  21  22
ENDBRANCH  20  21
ENDBRANCH   1  20
TORSDOF 8
ENDMDL
MODEL 9
REMARK VINA RESULT:      -6.9      2.995      4.200
REMARK  8 active torsions:
REMARK  status: ('A' for Active; 'I' for Inactive)
REMARK    1  A    between atoms: C_5  and  O_6 
REMARK    2  A    between atoms: O_6  and  C_7 
REMARK    3  A    between atoms: C_7  and  C_8 
REMARK    4  A    between atoms: C_8  and  C_9 
REMARK    5  A    between atoms: C_9  and  C_10 
REMARK    6  A    between atoms: C_10  and  N_11 
REMARK       I    between atoms: N_11  and  C_12 
REMARK    7  A    between atoms: C_12  and  C_13 
REMARK    8  A    between atoms: C_17  and  C_18 
ROOT
HETATM    1  N   UNL     1     -42.313  58.790 -53.233  1.00  0.00    -0.345 N 
HETATM    2  C   UNL     1     -42.199  58.509 -51.895  1.00  0.00     0.270 C 
HETATM    3  O   UNL     1     -42.450  59.335 -51.023  1.00  0.00    -0.266 OA
HETATM    4  H   UNL     1     -42.182  58.061 -53.916  1.00  0.00     0.163 HD
ENDROOT
BRANCH   2   5
HETATM    5  C   UNL     1     -41.769  57.174 -51.584  1.00  0.00     0.120 A 
HETATM    6  N   UNL     1     -41.578  56.761 -50.295  1.00  0.00    -0.272 N 
HETATM    7  H   UNL     1     -41.714  57.314 -49.455  1.00  0.00     0.189 HD
HETATM    8  N   UNL     1     -41.158  55.493 -50.179  1.00  0.00    -0.174 NA
HETATM    9  C   UNL     1     -41.081  55.042 -51.441  1.00  0.00     0.089 A 
HETATM   10  C   UNL     1     -41.455  56.070 -52.352  1.00  0.00     0.071 A 
BRANCH   9  11
HETATM   11  C   UNL     1     -40.652  53.674 -51.749  1.00  0.00    -0.003 A 
HETATM   12  C   UNL     1     -40.598  53.221 -53.077  1.00  0.00     0.053 A 
HETATM   13  C   UNL     1     -40.175  51.928 -53.310  1.00  0.00     0.106 A 
HETATM   14  C   UNL     1     -39.812  51.085 -52.287  1.00  0.00     0.105 A 
HETATM   15  O   UNL     1     -40.067  51.340 -54.531  1.00  0.00    -0.323 OA
HETATM   16  O   UNL     1     -39.427  49.861 -52.735  1.00  0.00    -0.323 OA
HETATM   17  C   UNL     1     -39.854  51.486 -50.972  1.00  0.00     0.040 A 
HETATM   18  C   UNL     1     -39.595  50.027 -54.158  1.00  0.00     0.352 A 
HETATM   19  C   UNL     1     -40.281  52.793 -50.705  1.00  0.00     0.017 A 
ENDBRANCH   9  11
ENDBRANCH   2   5
BRANCH   1  20
HETATM   20  C   UNL     1     -42.781  60.074 -53.682  1.00  0.00     0.217 C 
BRANCH  20  21
HETATM   21  C   UNL     1     -42.425  60.265 -55.089  1.00  0.00    -0.085 C 
BRANCH  21  22
HETATM   22  C   UNL     1     -42.110  60.415 -56.345  1.00  0.00    -0.078 C 
BRANCH  22  23
HETATM   23  C   UNL     1     -41.742  60.587 -57.809  1.00  0.00     0.269 C 
BRANCH  23  24
HETATM   24  O   UNL     1     -41.277  61.919 -58.011  1.00  0.00    -0.338 OA
BRANCH  24  25
HETATM   25  C   UNL     1     -40.812  62.217 -59.259  1.00  0.00     0.087 A 
HETATM   26  C   UNL     1     -41.350  61.817 -60.475  1.00  0.00     0.153 A 
HETATM   27  N   UNL     1     -40.840  62.156 -61.685  1.00  0.00    -0.263 NA
HETATM   28  C   UNL     1     -39.733  62.934 -61.697  1.00  0.00     0.030 A 
HETATM   29  C   UNL     1     -39.170  63.312 -63.035  1.00  0.00     0.070 C 
HETATM   30  C   UNL     1     -39.122  63.378 -60.530  1.00  0.00     0.029 A 
HETATM   31  C   UNL     1     -39.671  63.013 -59.302  1.00  0.00     0.040 A 
ENDBRANCH  24  25
ENDBRANCH  23  24
ENDBRANCH  22  23
ENDBRANCH  21  22
ENDBRANCH  20  21
ENDBRANCH   1  20
TORSDOF 8
ENDMDL
MODEL 10
REMARK VINA RESULT:      -6.8      2.008      2.645
REMARK  8 active torsions:
REMARK  status: ('A' for Active; 'I' for Inactive)
REMARK    1  A    between atoms: C_5  and  O_6 
REMARK    2  A    between atoms: O_6  and  C_7 
REMARK    3  A    between atoms: C_7  and  C_8 
REMARK    4  A    between atoms: C_8  and  C_9 
REMARK    5  A    between atoms: C_9  and  C_10 
REMARK    6  A    between atoms: C_10  and  N_11 
REMARK       I    between atoms: N_11  and  C_12 
REMARK    7  A    between atoms: C_12  and  C_13 
REMARK    8  A    between atoms: C_17  and  C_18 
ROOT
HETATM    1  N   UNL     1     -43.773  57.953 -52.972  1.00  0.00    -0.345 N 
HETATM    2  C   UNL     1     -42.403  58.007 -52.911  1.00  0.00     0.270 C 
HETATM    3  O   UNL     1     -41.794  59.032 -52.620  1.00  0.00    -0.266 OA
HETATM    4  H   UNL     1     -44.238  57.074 -53.129  1.00  0.00     0.163 HD
ENDROOT
BRANCH   2   5
HETATM    5  C   UNL     1     -41.729  56.774 -53.208  1.00  0.00     0.120 A 
HETATM    6  N   UNL     1     -40.945  56.632 -54.319  1.00  0.00    -0.272 N 
HETATM    7  H   UNL     1     -40.754  57.340 -55.021  1.00  0.00     0.189 HD
HETATM    8  N   UNL     1     -40.403  55.413 -54.460  1.00  0.00    -0.174 NA
HETATM    9  C   UNL     1     -40.834  54.724 -53.391  1.00  0.00     0.089 A 
HETATM   10  C   UNL     1     -41.671  55.543 -52.583  1.00  0.00     0.071 A 
BRANCH   9  11
HETATM   11  C   UNL     1     -40.457  53.324 -53.171  1.00  0.00    -0.003 A 
HETATM   12  C   UNL     1     -40.355  52.804 -51.870  1.00  0.00     0.053 A 
HETATM   13  C   UNL     1     -40.008  51.477 -51.723  1.00  0.00     0.106 A 
HETATM   14  C   UNL     1     -39.763  50.663 -52.803  1.00  0.00     0.105 A 
HETATM   15  O   UNL     1     -39.867  50.823 -50.538  1.00  0.00    -0.323 OA
HETATM   16  O   UNL     1     -39.439  49.394 -52.435  1.00  0.00    -0.323 OA
HETATM   17  C   UNL     1     -39.847  51.132 -54.094  1.00  0.00     0.040 A 
HETATM   18  C   UNL     1     -39.503  49.505 -50.998  1.00  0.00     0.352 A 
HETATM   19  C   UNL     1     -40.196  52.475 -54.274  1.00  0.00     0.017 A 
ENDBRANCH   9  11
ENDBRANCH   2   5
BRANCH   1  20
HETATM   20  C   UNL     1     -44.573  59.104 -52.649  1.00  0.00     0.217 C 
BRANCH  20  21
HETATM   21  C   UNL     1     -45.007  59.765 -53.881  1.00  0.00    -0.085 C 
BRANCH  21  22
HETATM   22  C   UNL     1     -45.414  60.353 -54.971  1.00  0.00    -0.078 C 
BRANCH  22  23
HETATM   23  C   UNL     1     -45.888  61.038 -56.243  1.00  0.00     0.269 C 
BRANCH  23  24
HETATM   24  O   UNL     1     -46.282  60.041 -57.181  1.00  0.00    -0.338 OA
BRANCH  24  25
HETATM   25  C   UNL     1     -45.277  59.405 -57.851  1.00  0.00     0.087 A 
HETATM   26  C   UNL     1     -45.015  58.041 -57.876  1.00  0.00     0.153 A 
HETATM   27  N   UNL     1     -43.998  57.472 -58.570  1.00  0.00    -0.263 NA
HETATM   28  C   UNL     1     -43.193  58.295 -59.280  1.00  0.00     0.030 A 
HETATM   29  C   UNL     1     -42.070  57.665 -60.050  1.00  0.00     0.070 C 
HETATM   30  C   UNL     1     -43.375  59.673 -59.310  1.00  0.00     0.029 A 
HETATM   31  C   UNL     1     -44.430  60.227 -58.586  1.00  0.00     0.040 A 
ENDBRANCH  24  25
ENDBRANCH  23  24
ENDBRANCH  22  23
ENDBRANCH  21  22
ENDBRANCH  20  21
ENDBRANCH   1  20
TORSDOF 8
ENDMDL
