MODEL 1
REMARK VINA RESULT:      -8.6      0.000      0.000
REMARK  5 active torsions:
REMARK  status: ('A' for Active; 'I' for Inactive)
REMARK    1  A    between atoms: N_2  and  C_4 
REMARK    2  A    between atoms: C_4  and  C_5 
REMARK    3  A    between atoms: C_5  and  N_6 
REMARK    4  A    between atoms: C_11  and  C_12 
REMARK    5  A    between atoms: C_15  and  O_16 
ROOT
HETATM    1  N   UNL     1     -43.296  56.727 -54.228  1.00  0.00    -0.332 N 
HETATM    2  C   UNL     1     -42.848  55.747 -55.109  1.00  0.00     0.279 C 
HETATM    3  O   UNL     1     -42.962  55.772 -56.321  1.00  0.00    -0.265 OA
HETATM    4  C   UNL     1     -42.216  54.694 -54.297  1.00  0.00     0.156 C 
HETATM    5  C   UNL     1     -42.258  55.122 -53.038  1.00  0.00     0.060 C 
HETATM    6  C   UNL     1     -42.824  56.480 -52.866  1.00  0.00     0.161 C 
HETATM    7  O   UNL     1     -41.661  53.538 -54.766  1.00  0.00    -0.303 OA
HETATM    8  C   UNL     1     -40.981  52.782 -53.832  1.00  0.00     0.090 A 
HETATM    9  C   UNL     1     -40.974  53.089 -52.460  1.00  0.00     0.051 A 
HETATM   10  C   UNL     1     -41.712  54.278 -51.984  1.00  0.00     0.196 C 
HETATM   11  O   UNL     1     -41.863  54.548 -50.803  1.00  0.00    -0.287 OA
HETATM   12  C   UNL     1     -40.267  51.681 -54.302  1.00  0.00     0.041 A 
HETATM   13  C   UNL     1     -39.542  50.897 -53.401  1.00  0.00     0.045 A 
HETATM   14  C   UNL     1     -39.544  51.215 -52.043  1.00  0.00     0.117 A 
HETATM   15  F   UNL     1     -38.838  50.460 -51.192  1.00  0.00    -0.206 F 
HETATM   16  C   UNL     1     -40.259  52.301 -51.558  1.00  0.00     0.060 A 
ENDROOT
BRANCH   6  17
HETATM   17  C   UNL     1     -41.781  57.478 -52.395  1.00  0.00    -0.030 A 
HETATM   18  C   UNL     1     -40.742  57.930 -53.234  1.00  0.00     0.012 A 
HETATM   19  C   UNL     1     -39.737  58.767 -52.742  1.00  0.00     0.037 A 
HETATM   20  C   UNL     1     -39.766  59.158 -51.409  1.00  0.00     0.065 A 
HETATM   21  C   UNL     1     -40.785  58.736 -50.567  1.00  0.00     0.037 A 
HETATM   22  C   UNL     1     -41.786  57.894 -51.054  1.00  0.00     0.012 A 
BRANCH  20  23
HETATM   23  O   UNL     1     -38.794  59.952 -50.881  1.00  0.00    -0.361 OA
HETATM   24  H   UNL     1     -38.253  60.317 -51.600  1.00  0.00     0.217 HD
ENDBRANCH  20  23
ENDBRANCH   6  17
BRANCH   1  25
HETATM   25  C   UNL     1     -43.818  58.011 -54.672  1.00  0.00     0.155 C 
BRANCH  25  26
HETATM   26  C   UNL     1     -45.254  57.930 -55.232  1.00  0.00     0.254 C 
BRANCH  26  27
HETATM   27  N   UNL     1     -45.272  57.862 -56.753  1.00  0.00    -0.077 N 
HETATM   28  C   UNL     1     -44.285  58.781 -57.415  1.00  0.00     0.269 C 
HETATM   29  H   UNL     1     -45.025  56.896 -57.013  1.00  0.00     0.279 HD
HETATM   30  C   UNL     1     -46.665  58.084 -57.285  1.00  0.00     0.269 C 
ENDBRANCH  26  27
ENDBRANCH  25  26
ENDBRANCH   1  25
TORSDOF 5
ENDMDL
MODEL 2
REMARK VINA RESULT:      -8.4      1.177      1.697
REMARK  5 active torsions:
REMARK  status: ('A' for Active; 'I' for Inactive)
REMARK    1  A    between atoms: N_2  and  C_4 
REMARK    2  A    between atoms: C_4  and  C_5 
REMARK    3  A    between atoms: C_5  and  N_6 
REMARK    4  A    between atoms: C_11  and  C_12 
REMARK    5  A    between atoms: C_15  and  O_16 
ROOT
HETATM    1  N   UNL     1     -43.258  56.867 -54.106  1.00  0.00    -0.332 N 
HETATM    2  C   UNL     1     -42.841  55.899 -55.015  1.00  0.00     0.279 C 
HETATM    3  O   UNL     1     -42.978  55.951 -56.224  1.00  0.00    -0.265 OA
HETATM    4  C   UNL     1     -42.209  54.821 -54.238  1.00  0.00     0.156 C 
HETATM    5  C   UNL     1     -42.220  55.223 -52.969  1.00  0.00     0.060 C 
HETATM    6  C   UNL     1     -42.763  56.586 -52.759  1.00  0.00     0.161 C 
HETATM    7  O   UNL     1     -41.680  53.667 -54.742  1.00  0.00    -0.303 OA
HETATM    8  C   UNL     1     -40.993  52.882 -53.837  1.00  0.00     0.090 A 
HETATM    9  C   UNL     1     -40.955  53.160 -52.459  1.00  0.00     0.051 A 
HETATM   10  C   UNL     1     -41.666  54.350 -51.944  1.00  0.00     0.196 C 
HETATM   11  O   UNL     1     -41.790  54.597 -50.756  1.00  0.00    -0.287 OA
HETATM   12  C   UNL     1     -40.304  51.781 -54.343  1.00  0.00     0.041 A 
HETATM   13  C   UNL     1     -39.573  50.969 -53.473  1.00  0.00     0.045 A 
HETATM   14  C   UNL     1     -39.544  51.258 -52.109  1.00  0.00     0.117 A 
HETATM   15  F   UNL     1     -38.833  50.476 -51.288  1.00  0.00    -0.206 F 
HETATM   16  C   UNL     1     -40.234  52.344 -51.588  1.00  0.00     0.060 A 
ENDROOT
BRANCH   6  17
HETATM   17  C   UNL     1     -41.696  57.558 -52.288  1.00  0.00    -0.030 A 
HETATM   18  C   UNL     1     -40.643  57.981 -53.125  1.00  0.00     0.012 A 
HETATM   19  C   UNL     1     -39.619  58.794 -52.633  1.00  0.00     0.037 A 
HETATM   20  C   UNL     1     -39.642  59.190 -51.302  1.00  0.00     0.065 A 
HETATM   21  C   UNL     1     -40.674  58.797 -50.461  1.00  0.00     0.037 A 
HETATM   22  C   UNL     1     -41.695  57.979 -50.948  1.00  0.00     0.012 A 
BRANCH  20  23
HETATM   23  O   UNL     1     -38.652  59.962 -50.774  1.00  0.00    -0.361 OA
HETATM   24  H   UNL     1     -37.845  59.855 -51.304  1.00  0.00     0.217 HD
ENDBRANCH  20  23
ENDBRANCH   6  17
BRANCH   1  25
HETATM   25  C   UNL     1     -43.769  58.167 -54.512  1.00  0.00     0.155 C 
BRANCH  25  26
HETATM   26  C   UNL     1     -45.110  58.537 -53.843  1.00  0.00     0.254 C 
BRANCH  26  27
HETATM   27  N   UNL     1     -44.976  59.738 -52.918  1.00  0.00    -0.077 N 
HETATM   28  C   UNL     1     -43.702  60.511 -53.104  1.00  0.00     0.269 C 
HETATM   29  H   UNL     1     -45.761  60.370 -53.129  1.00  0.00     0.279 HD
HETATM   30  C   UNL     1     -45.158  59.330 -51.477  1.00  0.00     0.269 C 
ENDBRANCH  26  27
ENDBRANCH  25  26
ENDBRANCH   1  25
TORSDOF 5
ENDMDL
MODEL 3
REMARK VINA RESULT:      -7.6      3.166      6.433
REMARK  5 active torsions:
REMARK  status: ('A' for Active; 'I' for Inactive)
REMARK    1  A    between atoms: N_2  and  C_4 
REMARK    2  A    between atoms: C_4  and  C_5 
REMARK    3  A    between atoms: C_5  and  N_6 
REMARK    4  A    between atoms: C_11  and  C_12 
REMARK    5  A    between atoms: C_15  and  O_16 
ROOT
HETATM    1  N   UNL     1     -41.614  57.360 -52.920  1.00  0.00    -0.332 N 
HETATM    2  C   UNL     1     -41.310  58.276 -53.924  1.00  0.00     0.279 C 
HETATM    3  O   UNL     1     -40.654  59.292 -53.786  1.00  0.00    -0.265 OA
HETATM    4  C   UNL     1     -41.926  57.777 -55.163  1.00  0.00     0.156 C 
HETATM    5  C   UNL     1     -42.478  56.605 -54.858  1.00  0.00     0.060 C 
HETATM    6  C   UNL     1     -42.245  56.159 -53.465  1.00  0.00     0.161 C 
HETATM    7  O   UNL     1     -41.887  58.386 -56.385  1.00  0.00    -0.303 OA
HETATM    8  C   UNL     1     -42.395  57.647 -57.436  1.00  0.00     0.090 A 
HETATM    9  C   UNL     1     -43.044  56.412 -57.258  1.00  0.00     0.051 A 
HETATM   10  C   UNL     1     -43.185  55.862 -55.892  1.00  0.00     0.196 C 
HETATM   11  O   UNL     1     -43.839  54.866 -55.633  1.00  0.00    -0.287 OA
HETATM   12  C   UNL     1     -42.227  58.166 -58.719  1.00  0.00     0.041 A 
HETATM   13  C   UNL     1     -42.701  57.445 -59.818  1.00  0.00     0.045 A 
HETATM   14  C   UNL     1     -43.342  56.222 -59.625  1.00  0.00     0.117 A 
HETATM   15  F   UNL     1     -43.783  55.539 -60.688  1.00  0.00    -0.206 F 
HETATM   16  C   UNL     1     -43.526  55.697 -58.353  1.00  0.00     0.060 A 
ENDROOT
BRANCH   6  17
HETATM   17  C   UNL     1     -41.362  54.925 -53.400  1.00  0.00    -0.030 A 
HETATM   18  C   UNL     1     -40.602  54.489 -54.505  1.00  0.00     0.012 A 
HETATM   19  C   UNL     1     -39.880  53.293 -54.450  1.00  0.00     0.037 A 
HETATM   20  C   UNL     1     -39.913  52.529 -53.290  1.00  0.00     0.065 A 
HETATM   21  C   UNL     1     -40.643  52.944 -52.186  1.00  0.00     0.037 A 
HETATM   22  C   UNL     1     -41.371  54.134 -52.240  1.00  0.00     0.012 A 
BRANCH  20  23
HETATM   23  O   UNL     1     -39.245  51.345 -53.201  1.00  0.00    -0.361 OA
HETATM   24  H   UNL     1     -39.188  51.080 -52.268  1.00  0.00     0.217 HD
ENDBRANCH  20  23
ENDBRANCH   6  17
BRANCH   1  25
HETATM   25  C   UNL     1     -41.029  57.421 -51.590  1.00  0.00     0.155 C 
BRANCH  25  26
HETATM   26  C   UNL     1     -41.969  58.037 -50.532  1.00  0.00     0.254 C 
BRANCH  26  27
HETATM   27  N   UNL     1     -41.563  59.456 -50.163  1.00  0.00    -0.077 N 
HETATM   28  C   UNL     1     -42.339  60.520 -50.885  1.00  0.00     0.269 C 
HETATM   29  H   UNL     1     -41.741  59.567 -49.154  1.00  0.00     0.279 HD
HETATM   30  C   UNL     1     -40.078  59.653 -50.338  1.00  0.00     0.269 C 
ENDBRANCH  26  27
ENDBRANCH  25  26
ENDBRANCH   1  25
TORSDOF 5
ENDMDL
MODEL 4
REMARK VINA RESULT:      -7.4      3.372      6.710
REMARK  5 active torsions:
REMARK  status: ('A' for Active; 'I' for Inactive)
REMARK    1  A    between atoms: N_2  and  C_4 
REMARK    2  A    between atoms: C_4  and  C_5 
REMARK    3  A    between atoms: C_5  and  N_6 
REMARK    4  A    between atoms: C_11  and  C_12 
REMARK    5  A    between atoms: C_15  and  O_16 
ROOT
HETATM    1  N   UNL     1     -41.735  54.196 -53.966  1.00  0.00    -0.332 N 
HETATM    2  C   UNL     1     -42.942  54.685 -54.459  1.00  0.00     0.279 C 
HETATM    3  O   UNL     1     -43.778  54.041 -55.066  1.00  0.00    -0.265 OA
HETATM    4  C   UNL     1     -43.007  56.111 -54.100  1.00  0.00     0.156 C 
HETATM    5  C   UNL     1     -41.915  56.364 -53.383  1.00  0.00     0.060 C 
HETATM    6  C   UNL     1     -41.064  55.180 -53.118  1.00  0.00     0.161 C 
HETATM    7  O   UNL     1     -44.018  56.976 -54.410  1.00  0.00    -0.303 OA
HETATM    8  C   UNL     1     -43.935  58.224 -53.825  1.00  0.00     0.090 A 
HETATM    9  C   UNL     1     -42.822  58.644 -53.076  1.00  0.00     0.051 A 
HETATM   10  C   UNL     1     -41.687  57.715 -52.889  1.00  0.00     0.196 C 
HETATM   11  O   UNL     1     -40.634  58.036 -52.363  1.00  0.00    -0.287 OA
HETATM   12  C   UNL     1     -45.026  59.077 -53.987  1.00  0.00     0.041 A 
HETATM   13  C   UNL     1     -45.003  60.341 -53.394  1.00  0.00     0.045 A 
HETATM   14  C   UNL     1     -43.892  60.743 -52.654  1.00  0.00     0.117 A 
HETATM   15  F   UNL     1     -43.887  61.954 -52.084  1.00  0.00    -0.206 F 
HETATM   16  C   UNL     1     -42.793  59.910 -52.492  1.00  0.00     0.060 A 
ENDROOT
BRANCH   6  17
HETATM   17  C   UNL     1     -41.049  54.805 -51.647  1.00  0.00    -0.030 A 
HETATM   18  C   UNL     1     -42.207  54.869 -50.845  1.00  0.00     0.012 A 
HETATM   19  C   UNL     1     -42.141  54.619 -49.472  1.00  0.00     0.037 A 
HETATM   20  C   UNL     1     -40.919  54.302 -48.893  1.00  0.00     0.065 A 
HETATM   21  C   UNL     1     -39.767  54.221 -49.664  1.00  0.00     0.037 A 
HETATM   22  C   UNL     1     -39.829  54.478 -51.035  1.00  0.00     0.012 A 
BRANCH  20  23
HETATM   23  O   UNL     1     -40.804  54.075 -47.555  1.00  0.00    -0.361 OA
HETATM   24  H   UNL     1     -41.624  54.348 -47.113  1.00  0.00     0.217 HD
ENDBRANCH  20  23
ENDBRANCH   6  17
BRANCH   1  25
HETATM   25  C   UNL     1     -41.394  52.782 -53.971  1.00  0.00     0.155 C 
BRANCH  25  26
HETATM   26  C   UNL     1     -39.915  52.508 -54.318  1.00  0.00     0.254 C 
BRANCH  26  27
HETATM   27  N   UNL     1     -39.436  51.173 -53.766  1.00  0.00    -0.077 N 
HETATM   28  C   UNL     1     -40.130  49.982 -54.365  1.00  0.00     0.269 C 
HETATM   29  H   UNL     1     -38.434  51.097 -53.990  1.00  0.00     0.279 HD
HETATM   30  C   UNL     1     -39.521  51.151 -52.261  1.00  0.00     0.269 C 
ENDBRANCH  26  27
ENDBRANCH  25  26
ENDBRANCH   1  25
TORSDOF 5
ENDMDL
MODEL 5
REMARK VINA RESULT:      -7.2     15.564     18.464
REMARK  5 active torsions:
REMARK  status: ('A' for Active; 'I' for Inactive)
REMARK    1  A    between atoms: N_2  and  C_4 
REMARK    2  A    between atoms: C_4  and  C_5 
REMARK    3  A    between atoms: C_5  and  N_6 
REMARK    4  A    between atoms: C_11  and  C_12 
REMARK    5  A    between atoms: C_15  and  O_16 
ROOT
HETATM    1  N   UNL     1     -34.874  40.847 -53.412  1.00  0.00    -0.332 N 
HETATM    2  C   UNL     1     -35.493  41.912 -54.061  1.00  0.00     0.279 C 
HETATM    3  O   UNL     1     -35.645  43.032 -53.608  1.00  0.00    -0.265 OA
HETATM    4  C   UNL     1     -35.916  41.423 -55.383  1.00  0.00     0.156 C 
HETATM    5  C   UNL     1     -35.480  40.168 -55.472  1.00  0.00     0.060 C 
HETATM    6  C   UNL     1     -34.683  39.709 -54.310  1.00  0.00     0.161 C 
HETATM    7  O   UNL     1     -36.580  42.143 -56.335  1.00  0.00    -0.303 OA
HETATM    8  C   UNL     1     -36.724  41.522 -57.560  1.00  0.00     0.090 A 
HETATM    9  C   UNL     1     -36.348  40.186 -57.787  1.00  0.00     0.051 A 
HETATM   10  C   UNL     1     -35.761  39.403 -56.679  1.00  0.00     0.196 C 
HETATM   11  O   UNL     1     -35.523  38.209 -56.751  1.00  0.00    -0.287 OA
HETATM   12  C   UNL     1     -37.252  42.282 -58.601  1.00  0.00     0.041 A 
HETATM   13  C   UNL     1     -37.394  41.709 -59.867  1.00  0.00     0.045 A 
HETATM   14  C   UNL     1     -37.017  40.383 -60.077  1.00  0.00     0.117 A 
HETATM   15  F   UNL     1     -37.151  39.849 -61.297  1.00  0.00    -0.206 F 
HETATM   16  C   UNL     1     -36.500  39.609 -59.048  1.00  0.00     0.060 A 
ENDROOT
BRANCH   6  17
HETATM   17  C   UNL     1     -33.230  39.461 -54.677  1.00  0.00    -0.030 A 
HETATM   18  C   UNL     1     -32.546  40.262 -55.614  1.00  0.00     0.012 A 
HETATM   19  C   UNL     1     -31.243  39.946 -56.009  1.00  0.00     0.037 A 
HETATM   20  C   UNL     1     -30.617  38.831 -55.468  1.00  0.00     0.065 A 
HETATM   21  C   UNL     1     -31.266  38.034 -54.535  1.00  0.00     0.037 A 
HETATM   22  C   UNL     1     -32.570  38.342 -54.144  1.00  0.00     0.012 A 
BRANCH  20  23
HETATM   23  O   UNL     1     -29.358  38.472 -55.843  1.00  0.00    -0.361 OA
HETATM   24  H   UNL     1     -28.889  39.254 -56.177  1.00  0.00     0.217 HD
ENDBRANCH  20  23
ENDBRANCH   6  17
BRANCH   1  25
HETATM   25  C   UNL     1     -34.167  40.994 -52.149  1.00  0.00     0.155 C 
BRANCH  25  26
HETATM   26  C   UNL     1     -34.473  39.867 -51.139  1.00  0.00     0.254 C 
BRANCH  26  27
HETATM   27  N   UNL     1     -33.204  39.212 -50.611  1.00  0.00    -0.077 N 
HETATM   28  C   UNL     1     -33.244  38.903 -49.141  1.00  0.00     0.269 C 
HETATM   29  H   UNL     1     -33.094  38.321 -51.116  1.00  0.00     0.279 HD
HETATM   30  C   UNL     1     -31.989  40.033 -50.962  1.00  0.00     0.269 C 
ENDBRANCH  26  27
ENDBRANCH  25  26
ENDBRANCH   1  25
TORSDOF 5
ENDMDL
MODEL 6
REMARK VINA RESULT:      -7.1      2.263      4.756
REMARK  5 active torsions:
REMARK  status: ('A' for Active; 'I' for Inactive)
REMARK    1  A    between atoms: N_2  and  C_4 
REMARK    2  A    between atoms: C_4  and  C_5 
REMARK    3  A    between atoms: C_5  and  N_6 
REMARK    4  A    between atoms: C_11  and  C_12 
REMARK    5  A    between atoms: C_15  and  O_16 
ROOT
HETATM    1  N   UNL     1     -41.564  58.237 -52.349  1.00  0.00    -0.332 N 
HETATM    2  C   UNL     1     -41.399  57.278 -51.354  1.00  0.00     0.279 C 
HETATM    3  O   UNL     1     -41.575  57.451 -50.161  1.00  0.00    -0.265 OA
HETATM    4  C   UNL     1     -40.983  56.034 -52.020  1.00  0.00     0.156 C 
HETATM    5  C   UNL     1     -40.992  56.290 -53.326  1.00  0.00     0.060 C 
HETATM    6  C   UNL     1     -41.466  57.648 -53.683  1.00  0.00     0.161 C 
HETATM    7  O   UNL     1     -40.695  54.848 -51.406  1.00  0.00    -0.303 OA
HETATM    8  C   UNL     1     -40.487  53.775 -52.251  1.00  0.00     0.090 A 
HETATM    9  C   UNL     1     -40.427  53.905 -53.650  1.00  0.00     0.051 A 
HETATM   10  C   UNL     1     -40.606  55.241 -54.258  1.00  0.00     0.196 C 
HETATM   11  O   UNL     1     -40.446  55.465 -55.446  1.00  0.00    -0.287 OA
HETATM   12  C   UNL     1     -40.350  52.519 -51.662  1.00  0.00     0.041 A 
HETATM   13  C   UNL     1     -40.163  51.397 -52.474  1.00  0.00     0.045 A 
HETATM   14  C   UNL     1     -40.106  51.542 -53.860  1.00  0.00     0.117 A 
HETATM   15  F   UNL     1     -39.935  50.458 -54.625  1.00  0.00    -0.206 F 
HETATM   16  C   UNL     1     -40.230  52.787 -54.460  1.00  0.00     0.060 A 
ENDROOT
BRANCH   6  17
HETATM   17  C   UNL     1     -42.788  57.611 -54.430  1.00  0.00    -0.030 A 
HETATM   18  C   UNL     1     -43.032  58.413 -55.563  1.00  0.00     0.012 A 
HETATM   19  C   UNL     1     -44.292  58.436 -56.167  1.00  0.00     0.037 A 
HETATM   20  C   UNL     1     -45.314  57.655 -55.643  1.00  0.00     0.065 A 
HETATM   21  C   UNL     1     -45.095  56.848 -54.536  1.00  0.00     0.037 A 
HETATM   22  C   UNL     1     -43.840  56.829 -53.926  1.00  0.00     0.012 A 
BRANCH  20  23
HETATM   23  O   UNL     1     -46.564  57.665 -56.184  1.00  0.00    -0.361 OA
HETATM   24  H   UNL     1     -47.217  57.511 -55.482  1.00  0.00     0.217 HD
ENDBRANCH  20  23
ENDBRANCH   6  17
BRANCH   1  25
HETATM   25  C   UNL     1     -42.142  59.548 -52.096  1.00  0.00     0.155 C 
BRANCH  25  26
HETATM   26  C   UNL     1     -43.625  59.494 -51.671  1.00  0.00     0.254 C 
BRANCH  26  27
HETATM   27  N   UNL     1     -43.823  59.934 -50.228  1.00  0.00    -0.077 N 
HETATM   28  C   UNL     1     -45.235  60.332 -49.900  1.00  0.00     0.269 C 
HETATM   29  H   UNL     1     -43.577  59.131 -49.632  1.00  0.00     0.279 HD
HETATM   30  C   UNL     1     -42.851  61.027 -49.860  1.00  0.00     0.269 C 
ENDBRANCH  26  27
ENDBRANCH  25  26
ENDBRANCH   1  25
TORSDOF 5
ENDMDL
MODEL 7
REMARK VINA RESULT:      -7.0      3.695      6.513
REMARK  5 active torsions:
REMARK  status: ('A' for Active; 'I' for Inactive)
REMARK    1  A    between atoms: N_2  and  C_4 
REMARK    2  A    between atoms: C_4  and  C_5 
REMARK    3  A    between atoms: C_5  and  N_6 
REMARK    4  A    between atoms: C_11  and  C_12 
REMARK    5  A    between atoms: C_15  and  O_16 
ROOT
HETATM    1  N   UNL     1     -41.840  55.595 -52.091  1.00  0.00    -0.332 N 
HETATM    2  C   UNL     1     -42.169  54.766 -53.160  1.00  0.00     0.279 C 
HETATM    3  O   UNL     1     -42.368  53.566 -53.096  1.00  0.00    -0.265 OA
HETATM    4  C   UNL     1     -42.232  55.615 -54.360  1.00  0.00     0.156 C 
HETATM    5  C   UNL     1     -42.017  56.861 -53.945  1.00  0.00     0.060 C 
HETATM    6  C   UNL     1     -41.868  57.005 -52.478  1.00  0.00     0.161 C 
HETATM    7  O   UNL     1     -42.506  55.196 -55.631  1.00  0.00    -0.303 OA
HETATM    8  C   UNL     1     -42.674  56.199 -56.566  1.00  0.00     0.090 A 
HETATM    9  C   UNL     1     -42.439  57.556 -56.281  1.00  0.00     0.051 A 
HETATM   10  C   UNL     1     -42.005  57.942 -54.921  1.00  0.00     0.196 C 
HETATM   11  O   UNL     1     -41.661  59.073 -54.621  1.00  0.00    -0.287 OA
HETATM   12  C   UNL     1     -43.111  55.820 -57.834  1.00  0.00     0.041 A 
HETATM   13  C   UNL     1     -43.320  56.799 -58.809  1.00  0.00     0.045 A 
HETATM   14  C   UNL     1     -43.083  58.141 -58.511  1.00  0.00     0.117 A 
HETATM   15  F   UNL     1     -43.296  59.068 -59.452  1.00  0.00    -0.206 F 
HETATM   16  C   UNL     1     -42.637  58.533 -57.256  1.00  0.00     0.060 A 
ENDROOT
BRANCH   6  17
HETATM   17  C   UNL     1     -43.017  57.782 -51.861  1.00  0.00    -0.030 A 
HETATM   18  C   UNL     1     -44.345  57.309 -51.892  1.00  0.00     0.012 A 
HETATM   19  C   UNL     1     -45.396  58.093 -51.409  1.00  0.00     0.037 A 
HETATM   20  C   UNL     1     -45.125  59.353 -50.891  1.00  0.00     0.065 A 
HETATM   21  C   UNL     1     -43.825  59.836 -50.838  1.00  0.00     0.037 A 
HETATM   22  C   UNL     1     -42.774  59.058 -51.327  1.00  0.00     0.012 A 
BRANCH  20  23
HETATM   23  O   UNL     1     -46.121  60.161 -50.432  1.00  0.00    -0.361 OA
HETATM   24  H   UNL     1     -46.931  59.989 -50.939  1.00  0.00     0.217 HD
ENDBRANCH  20  23
ENDBRANCH   6  17
BRANCH   1  25
HETATM   25  C   UNL     1     -41.859  55.147 -50.707  1.00  0.00     0.155 C 
BRANCH  25  26
HETATM   26  C   UNL     1     -40.521  55.369 -49.971  1.00  0.00     0.254 C 
BRANCH  26  27
HETATM   27  N   UNL     1     -39.947  54.071 -49.421  1.00  0.00    -0.077 N 
HETATM   28  C   UNL     1     -40.304  52.856 -50.231  1.00  0.00     0.269 C 
HETATM   29  H   UNL     1     -38.922  54.166 -49.433  1.00  0.00     0.279 HD
HETATM   30  C   UNL     1     -40.323  53.888 -47.972  1.00  0.00     0.269 C 
ENDBRANCH  26  27
ENDBRANCH  25  26
ENDBRANCH   1  25
TORSDOF 5
ENDMDL
MODEL 8
REMARK VINA RESULT:      -6.7     15.757     18.712
REMARK  5 active torsions:
REMARK  status: ('A' for Active; 'I' for Inactive)
REMARK    1  A    between atoms: N_2  and  C_4 
REMARK    2  A    between atoms: C_4  and  C_5 
REMARK    3  A    between atoms: C_5  and  N_6 
REMARK    4  A    between atoms: C_11  and  C_12 
REMARK    5  A    between atoms: C_15  and  O_16 
ROOT
HETATM    1  N   UNL     1     -34.553  39.893 -55.094  1.00  0.00    -0.332 N 
HETATM    2  C   UNL     1     -35.310  39.234 -54.129  1.00  0.00     0.279 C 
HETATM    3  O   UNL     1     -36.355  38.640 -54.327  1.00  0.00    -0.265 OA
HETATM    4  C   UNL     1     -34.606  39.392 -52.847  1.00  0.00     0.156 C 
HETATM    5  C   UNL     1     -33.480  40.047 -53.120  1.00  0.00     0.060 C 
HETATM    6  C   UNL     1     -33.264  40.327 -54.559  1.00  0.00     0.161 C 
HETATM    7  O   UNL     1     -35.018  38.913 -51.636  1.00  0.00    -0.303 OA
HETATM    8  C   UNL     1     -34.110  39.042 -50.604  1.00  0.00     0.090 A 
HETATM    9  C   UNL     1     -32.899  39.745 -50.735  1.00  0.00     0.051 A 
HETATM   10  C   UNL     1     -32.565  40.368 -52.034  1.00  0.00     0.196 C 
HETATM   11  O   UNL     1     -31.602  41.098 -52.202  1.00  0.00    -0.287 OA
HETATM   12  C   UNL     1     -34.427  38.423 -49.395  1.00  0.00     0.041 A 
HETATM   13  C   UNL     1     -33.530  38.503 -48.327  1.00  0.00     0.045 A 
HETATM   14  C   UNL     1     -32.334  39.203 -48.473  1.00  0.00     0.117 A 
HETATM   15  F   UNL     1     -31.480  39.264 -47.444  1.00  0.00    -0.206 F 
HETATM   16  C   UNL     1     -32.008  39.834 -49.667  1.00  0.00     0.060 A 
ENDROOT
BRANCH   6  17
HETATM   17  C   UNL     1     -32.082  39.555 -55.119  1.00  0.00    -0.030 A 
HETATM   18  C   UNL     1     -31.657  38.329 -54.567  1.00  0.00     0.012 A 
HETATM   19  C   UNL     1     -30.505  37.693 -55.036  1.00  0.00     0.037 A 
HETATM   20  C   UNL     1     -29.772  38.278 -56.061  1.00  0.00     0.065 A 
HETATM   21  C   UNL     1     -30.177  39.479 -56.629  1.00  0.00     0.037 A 
HETATM   22  C   UNL     1     -31.324  40.119 -56.157  1.00  0.00     0.012 A 
BRANCH  20  23
HETATM   23  O   UNL     1     -28.629  37.707 -56.533  1.00  0.00    -0.361 OA
HETATM   24  H   UNL     1     -28.632  37.740 -57.503  1.00  0.00     0.217 HD
ENDBRANCH  20  23
ENDBRANCH   6  17
BRANCH   1  25
HETATM   25  C   UNL     1     -34.838  39.807 -56.518  1.00  0.00     0.155 C 
BRANCH  25  26
HETATM   26  C   UNL     1     -35.137  41.175 -57.168  1.00  0.00     0.254 C 
BRANCH  26  27
HETATM   27  N   UNL     1     -36.627  41.384 -57.402  1.00  0.00    -0.077 N 
HETATM   28  C   UNL     1     -36.949  42.076 -58.696  1.00  0.00     0.269 C 
HETATM   29  H   UNL     1     -37.061  40.450 -57.429  1.00  0.00     0.279 HD
HETATM   30  C   UNL     1     -37.261  42.094 -56.233  1.00  0.00     0.269 C 
ENDBRANCH  26  27
ENDBRANCH  25  26
ENDBRANCH   1  25
TORSDOF 5
ENDMDL
MODEL 9
REMARK VINA RESULT:      -6.7      3.557      6.822
REMARK  5 active torsions:
REMARK  status: ('A' for Active; 'I' for Inactive)
REMARK    1  A    between atoms: N_2  and  C_4 
REMARK    2  A    between atoms: C_4  and  C_5 
REMARK    3  A    between atoms: C_5  and  N_6 
REMARK    4  A    between atoms: C_11  and  C_12 
REMARK    5  A    between atoms: C_15  and  O_16 
ROOT
HETATM    1  N   UNL     1     -42.105  55.346 -53.992  1.00  0.00    -0.332 N 
HETATM    2  C   UNL     1     -42.761  54.981 -55.164  1.00  0.00     0.279 C 
HETATM    3  O   UNL     1     -43.199  53.874 -55.420  1.00  0.00    -0.265 OA
HETATM    4  C   UNL     1     -42.823  56.181 -56.014  1.00  0.00     0.156 C 
HETATM    5  C   UNL     1     -42.287  57.169 -55.302  1.00  0.00     0.060 C 
HETATM    6  C   UNL     1     -41.890  56.791 -53.925  1.00  0.00     0.161 C 
HETATM    7  O   UNL     1     -43.370  56.256 -57.263  1.00  0.00    -0.303 OA
HETATM    8  C   UNL     1     -43.460  57.526 -57.799  1.00  0.00     0.090 A 
HETATM    9  C   UNL     1     -42.901  58.658 -57.179  1.00  0.00     0.051 A 
HETATM   10  C   UNL     1     -42.194  58.498 -55.890  1.00  0.00     0.196 C 
HETATM   11  O   UNL     1     -41.575  59.397 -55.347  1.00  0.00    -0.287 OA
HETATM   12  C   UNL     1     -44.155  57.663 -59.000  1.00  0.00     0.041 A 
HETATM   13  C   UNL     1     -44.296  58.931 -59.570  1.00  0.00     0.045 A 
HETATM   14  C   UNL     1     -43.737  60.043 -58.943  1.00  0.00     0.117 A 
HETATM   15  F   UNL     1     -43.887  61.252 -59.497  1.00  0.00    -0.206 F 
HETATM   16  C   UNL     1     -43.032  59.922 -57.753  1.00  0.00     0.060 A 
ENDROOT
BRANCH   6  17
HETATM   17  C   UNL     1     -42.740  57.485 -52.875  1.00  0.00    -0.030 A 
HETATM   18  C   UNL     1     -44.140  57.328 -52.821  1.00  0.00     0.012 A 
HETATM   19  C   UNL     1     -44.907  58.060 -51.911  1.00  0.00     0.037 A 
HETATM   20  C   UNL     1     -44.279  58.949 -51.048  1.00  0.00     0.065 A 
HETATM   21  C   UNL     1     -42.901  59.111 -51.075  1.00  0.00     0.037 A 
HETATM   22  C   UNL     1     -42.133  58.388 -51.988  1.00  0.00     0.012 A 
BRANCH  20  23
HETATM   23  O   UNL     1     -44.990  59.701 -50.162  1.00  0.00    -0.361 OA
HETATM   24  H   UNL     1     -45.150  59.180 -49.358  1.00  0.00     0.217 HD
ENDBRANCH  20  23
ENDBRANCH   6  17
BRANCH   1  25
HETATM   25  C   UNL     1     -42.008  54.471 -52.833  1.00  0.00     0.155 C 
BRANCH  25  26
HETATM   26  C   UNL     1     -40.581  53.942 -52.580  1.00  0.00     0.254 C 
BRANCH  26  27
HETATM   27  N   UNL     1     -40.469  52.447 -52.841  1.00  0.00    -0.077 N 
HETATM   28  C   UNL     1     -39.439  51.756 -51.993  1.00  0.00     0.269 C 
HETATM   29  H   UNL     1     -41.386  52.034 -52.620  1.00  0.00     0.279 HD
HETATM   30  C   UNL     1     -40.241  52.172 -54.306  1.00  0.00     0.269 C 
ENDBRANCH  26  27
ENDBRANCH  25  26
ENDBRANCH   1  25
TORSDOF 5
ENDMDL
MODEL 10
REMARK VINA RESULT:      -6.6      3.074      5.596
REMARK  5 active torsions:
REMARK  status: ('A' for Active; 'I' for Inactive)
REMARK    1  A    between atoms: N_2  and  C_4 
REMARK    2  A    between atoms: C_4  and  C_5 
REMARK    3  A    between atoms: C_5  and  N_6 
REMARK    4  A    between atoms: C_11  and  C_12 
REMARK    5  A    between atoms: C_15  and  O_16 
ROOT
HETATM    1  N   UNL     1     -44.771  59.042 -52.068  1.00  0.00    -0.332 N 
HETATM    2  C   UNL     1     -44.741  57.767 -51.509  1.00  0.00     0.279 C 
HETATM    3  O   UNL     1     -45.487  57.352 -50.641  1.00  0.00    -0.265 OA
HETATM    4  C   UNL     1     -43.649  57.034 -52.169  1.00  0.00     0.156 C 
HETATM    5  C   UNL     1     -43.157  57.854 -53.094  1.00  0.00     0.060 C 
HETATM    6  C   UNL     1     -43.873  59.145 -53.217  1.00  0.00     0.161 C 
HETATM    7  O   UNL     1     -43.263  55.751 -51.903  1.00  0.00    -0.303 OA
HETATM    8  C   UNL     1     -42.322  55.221 -52.764  1.00  0.00     0.090 A 
HETATM    9  C   UNL     1     -41.686  55.981 -53.761  1.00  0.00     0.051 A 
HETATM   10  C   UNL     1     -42.039  57.409 -53.915  1.00  0.00     0.196 C 
HETATM   11  O   UNL     1     -41.451  58.170 -54.666  1.00  0.00    -0.287 OA
HETATM   12  C   UNL     1     -42.022  53.867 -52.624  1.00  0.00     0.041 A 
HETATM   13  C   UNL     1     -41.096  53.276 -53.487  1.00  0.00     0.045 A 
HETATM   14  C   UNL     1     -40.473  54.043 -54.471  1.00  0.00     0.117 A 
HETATM   15  F   UNL     1     -39.594  53.462 -55.296  1.00  0.00    -0.206 F 
HETATM   16  C   UNL     1     -40.753  55.395 -54.616  1.00  0.00     0.060 A 
ENDROOT
BRANCH   6  17
HETATM   17  C   UNL     1     -44.597  59.272 -54.546  1.00  0.00    -0.030 A 
HETATM   18  C   UNL     1     -45.273  58.186 -55.138  1.00  0.00     0.012 A 
HETATM   19  C   UNL     1     -45.842  58.303 -56.409  1.00  0.00     0.037 A 
HETATM   20  C   UNL     1     -45.739  59.507 -57.094  1.00  0.00     0.065 A 
HETATM   21  C   UNL     1     -45.088  60.595 -56.526  1.00  0.00     0.037 A 
HETATM   22  C   UNL     1     -44.513  60.478 -55.260  1.00  0.00     0.012 A 
BRANCH  20  23
HETATM   23  O   UNL     1     -46.256  59.659 -58.345  1.00  0.00    -0.361 OA
HETATM   24  H   UNL     1     -46.052  58.870 -58.873  1.00  0.00     0.217 HD
ENDBRANCH  20  23
ENDBRANCH   6  17
BRANCH   1  25
HETATM   25  C   UNL     1     -45.831  60.000 -51.795  1.00  0.00     0.155 C 
BRANCH  25  26
HETATM   26  C   UNL     1     -45.331  61.296 -51.122  1.00  0.00     0.254 C 
BRANCH  26  27
HETATM   27  N   UNL     1     -44.306  61.015 -50.032  1.00  0.00    -0.077 N 
HETATM   28  C   UNL     1     -44.745  61.438 -48.659  1.00  0.00     0.269 C 
HETATM   29  H   UNL     1     -44.157  59.996 -50.014  1.00  0.00     0.279 HD
HETATM   30  C   UNL     1     -42.968  61.615 -50.384  1.00  0.00     0.269 C 
ENDBRANCH  26  27
ENDBRANCH  25  26
ENDBRANCH   1  25
TORSDOF 5
ENDMDL
