MODEL 1
REMARK VINA RESULT:      -8.2      0.000      0.000
REMARK  7 active torsions:
REMARK  status: ('A' for Active; 'I' for Inactive)
REMARK    1  A    between atoms: C_2  and  C_3 
REMARK    2  A    between atoms: C_3  and  C_4 
REMARK       I    between atoms: C_4  and  N_5 
REMARK    3  A    between atoms: N_8  and  C_9 
REMARK    4  A    between atoms: C_12  and  N_13 
REMARK    5  A    between atoms: N_13  and  C_14 
REMARK    6  A    between atoms: C_14  and  N_15 
REMARK       I    between atoms: N_15  and  C_16 
REMARK    7  A    between atoms: C_16  and  C_17 
ROOT
HETATM    1  N   UNL     1     -41.659  59.801 -51.519  1.00  0.00    -0.333 N 
HETATM    2  H   UNL     1     -41.777  60.670 -50.996  1.00  0.00     0.168 HD
ENDROOT
BRANCH   1   3
HETATM    3  C   UNL     1     -42.437  59.690 -52.694  1.00  0.00     0.034 C 
HETATM    4  C   UNL     1     -43.773  59.307 -52.693  1.00  0.00     0.032 C 
HETATM    5  C   UNL     1     -44.430  59.011 -53.891  1.00  0.00     0.031 C 
HETATM    6  C   UNL     1     -43.782  59.100 -55.127  1.00  0.00     0.030 C 
HETATM    7  C   UNL     1     -42.490  59.644 -55.122  1.00  0.00     0.031 C 
HETATM    8  C   UNL     1     -41.826  59.950 -53.921  1.00  0.00     0.032 C 
BRANCH   6   9
HETATM    9  N   UNL     1     -44.322  58.566 -56.295  1.00  0.00    -0.378 N 
HETATM   10  C   UNL     1     -45.763  58.251 -56.325  1.00  0.00     0.143 C 
HETATM   11  C   UNL     1     -46.263  58.162 -57.786  1.00  0.00     0.145 C 
HETATM   12  N   UNL     1     -45.407  57.355 -58.672  1.00  0.00    -0.349 N 
HETATM   13  C   UNL     1     -45.969  56.899 -59.866  1.00  0.00     0.219 C 
HETATM   14  C   UNL     1     -43.965  57.584 -58.525  1.00  0.00     0.145 C 
HETATM   15  O   UNL     1     -47.177  56.966 -60.088  1.00  0.00    -0.273 OA
HETATM   16  C   UNL     1     -43.508  57.609 -57.062  1.00  0.00     0.143 C 
BRANCH  13  17
HETATM   17  C   UNL     1     -45.001  56.293 -60.878  1.00  0.00     0.103 C 
BRANCH  17  18
HETATM   18  C   UNL     1     -45.087  54.771 -60.957  1.00  0.00     0.005 C 
HETATM   19  C   UNL     1     -44.591  54.128 -59.670  1.00  0.00     0.005 C 
ENDBRANCH  17  18
ENDBRANCH  13  17
ENDBRANCH   6   9
ENDBRANCH   1   3
BRANCH   1  20
HETATM   20  C   UNL     1     -40.552  59.067 -51.150  1.00  0.00     0.179 C 
HETATM   21  S   UNL     1     -39.194  59.536 -50.285  1.00  0.00    -0.040 SA
BRANCH  20  22
HETATM   22  N   UNL     1     -40.572  57.729 -51.490  1.00  0.00    -0.299 N 
HETATM   23  C   UNL     1     -41.432  56.702 -51.119  1.00  0.00     0.266 C 
HETATM   24  O   UNL     1     -42.419  56.918 -50.416  1.00  0.00    -0.267 OA
HETATM   25  H   UNL     1     -39.773  57.476 -52.055  1.00  0.00     0.171 HD
BRANCH  23  26
HETATM   26  C   UNL     1     -41.067  55.392 -51.646  1.00  0.00     0.096 A 
HETATM   27  S   UNL     1     -41.255  55.107 -53.323  1.00  0.00    -0.082 SA
HETATM   28  C   UNL     1     -40.617  53.514 -53.225  1.00  0.00     0.017 A 
HETATM   29  C   UNL     1     -40.291  53.176 -51.910  1.00  0.00     0.004 A 
HETATM   30  C   UNL     1     -40.425  52.612 -54.289  1.00  0.00     0.020 A 
HETATM   31  C   UNL     1     -40.569  54.267 -51.012  1.00  0.00     0.068 A 
HETATM   32  C   UNL     1     -39.762  51.878 -51.672  1.00  0.00     0.014 A 
HETATM   33 CL   UNL     1     -40.289  54.109 -49.319  1.00  0.00    -0.082 Cl
HETATM   34  C   UNL     1     -39.570  50.981 -52.725  1.00  0.00     0.001 A 
HETATM   35  C   UNL     1     -39.896  51.347 -54.021  1.00  0.00     0.001 A 
ENDBRANCH  23  26
ENDBRANCH  20  22
ENDBRANCH   1  20
TORSDOF 7
ENDMDL
MODEL 2
REMARK VINA RESULT:      -8.1      2.615      3.829
REMARK  7 active torsions:
REMARK  status: ('A' for Active; 'I' for Inactive)
REMARK    1  A    between atoms: C_2  and  C_3 
REMARK    2  A    between atoms: C_3  and  C_4 
REMARK       I    between atoms: C_4  and  N_5 
REMARK    3  A    between atoms: N_8  and  C_9 
REMARK    4  A    between atoms: C_12  and  N_13 
REMARK    5  A    between atoms: N_13  and  C_14 
REMARK    6  A    between atoms: C_14  and  N_15 
REMARK       I    between atoms: N_15  and  C_16 
REMARK    7  A    between atoms: C_16  and  C_17 
ROOT
HETATM    1  N   UNL     1     -42.432  57.754 -54.615  1.00  0.00    -0.333 N 
HETATM    2  H   UNL     1     -41.441  57.999 -54.614  1.00  0.00     0.168 HD
ENDROOT
BRANCH   1   3
HETATM    3  C   UNL     1     -43.089  57.890 -55.859  1.00  0.00     0.034 C 
HETATM    4  C   UNL     1     -43.915  58.963 -56.174  1.00  0.00     0.032 C 
HETATM    5  C   UNL     1     -44.701  58.942 -57.329  1.00  0.00     0.031 C 
HETATM    6  C   UNL     1     -44.680  57.858 -58.214  1.00  0.00     0.030 C 
HETATM    7  C   UNL     1     -43.723  56.864 -57.967  1.00  0.00     0.031 C 
HETATM    8  C   UNL     1     -42.925  56.883 -56.810  1.00  0.00     0.032 C 
BRANCH   6   9
HETATM    9  N   UNL     1     -45.632  57.693 -59.218  1.00  0.00    -0.378 N 
HETATM   10  C   UNL     1     -45.711  56.392 -59.907  1.00  0.00     0.143 C 
HETATM   11  C   UNL     1     -47.090  56.228 -60.589  1.00  0.00     0.145 C 
HETATM   12  N   UNL     1     -47.524  57.399 -61.369  1.00  0.00    -0.349 N 
HETATM   13  C   UNL     1     -48.530  57.202 -62.317  1.00  0.00     0.219 C 
HETATM   14  C   UNL     1     -47.305  58.697 -60.720  1.00  0.00     0.145 C 
HETATM   15  O   UNL     1     -48.897  56.079 -62.657  1.00  0.00    -0.273 OA
HETATM   16  C   UNL     1     -45.907  58.834 -60.107  1.00  0.00     0.143 C 
BRANCH  13  17
HETATM   17  C   UNL     1     -49.139  58.462 -62.924  1.00  0.00     0.103 C 
BRANCH  17  18
HETATM   18  C   UNL     1     -50.614  58.648 -62.573  1.00  0.00     0.005 C 
HETATM   19  C   UNL     1     -50.814  59.858 -61.674  1.00  0.00     0.005 C 
ENDBRANCH  17  18
ENDBRANCH  13  17
ENDBRANCH   6   9
ENDBRANCH   1   3
BRANCH   1  20
HETATM   20  C   UNL     1     -42.840  57.052 -53.501  1.00  0.00     0.179 C 
HETATM   21  S   UNL     1     -44.069  57.392 -52.411  1.00  0.00    -0.040 SA
BRANCH  20  22
HETATM   22  N   UNL     1     -42.185  55.861 -53.263  1.00  0.00    -0.299 N 
HETATM   23  C   UNL     1     -40.974  55.370 -53.734  1.00  0.00     0.266 C 
HETATM   24  O   UNL     1     -40.242  56.054 -54.449  1.00  0.00    -0.267 OA
HETATM   25  H   UNL     1     -42.742  55.237 -52.694  1.00  0.00     0.171 HD
BRANCH  23  26
HETATM   26  C   UNL     1     -40.661  54.014 -53.296  1.00  0.00     0.096 A 
HETATM   27  S   UNL     1     -40.479  52.796 -54.485  1.00  0.00    -0.082 SA
HETATM   28  C   UNL     1     -40.087  51.587 -53.327  1.00  0.00     0.017 A 
HETATM   29  C   UNL     1     -40.127  52.094 -52.028  1.00  0.00     0.004 A 
HETATM   30  C   UNL     1     -39.762  50.241 -53.586  1.00  0.00     0.020 A 
HETATM   31  C   UNL     1     -40.472  53.492 -52.029  1.00  0.00     0.068 A 
HETATM   32  C   UNL     1     -39.835  51.203 -50.960  1.00  0.00     0.014 A 
HETATM   33 CL   UNL     1     -40.623  54.365 -50.550  1.00  0.00    -0.082 Cl
HETATM   34  C   UNL     1     -39.512  49.867 -51.212  1.00  0.00     0.001 A 
HETATM   35  C   UNL     1     -39.474  49.393 -52.514  1.00  0.00     0.001 A 
ENDBRANCH  23  26
ENDBRANCH  20  22
ENDBRANCH   1  20
TORSDOF 7
ENDMDL
MODEL 3
REMARK VINA RESULT:      -8.1      1.691      2.330
REMARK  7 active torsions:
REMARK  status: ('A' for Active; 'I' for Inactive)
REMARK    1  A    between atoms: C_2  and  C_3 
REMARK    2  A    between atoms: C_3  and  C_4 
REMARK       I    between atoms: C_4  and  N_5 
REMARK    3  A    between atoms: N_8  and  C_9 
REMARK    4  A    between atoms: C_12  and  N_13 
REMARK    5  A    between atoms: N_13  and  C_14 
REMARK    6  A    between atoms: C_14  and  N_15 
REMARK       I    between atoms: N_15  and  C_16 
REMARK    7  A    between atoms: C_16  and  C_17 
ROOT
HETATM    1  N   UNL     1     -41.426  59.784 -52.615  1.00  0.00    -0.333 N 
HETATM    2  H   UNL     1     -40.783  60.570 -52.716  1.00  0.00     0.168 HD
ENDROOT
BRANCH   1   3
HETATM    3  C   UNL     1     -42.270  59.543 -53.723  1.00  0.00     0.034 C 
HETATM    4  C   UNL     1     -43.573  59.076 -53.604  1.00  0.00     0.032 C 
HETATM    5  C   UNL     1     -44.286  58.656 -54.732  1.00  0.00     0.031 C 
HETATM    6  C   UNL     1     -43.728  58.702 -56.014  1.00  0.00     0.030 C 
HETATM    7  C   UNL     1     -42.479  59.328 -56.134  1.00  0.00     0.031 C 
HETATM    8  C   UNL     1     -41.761  59.757 -55.004  1.00  0.00     0.032 C 
BRANCH   6   9
HETATM    9  N   UNL     1     -44.305  58.056 -57.104  1.00  0.00    -0.378 N 
HETATM   10  C   UNL     1     -43.420  57.510 -58.150  1.00  0.00     0.143 C 
HETATM   11  C   UNL     1     -44.162  56.431 -58.973  1.00  0.00     0.145 C 
HETATM   12  N   UNL     1     -45.512  56.824 -59.411  1.00  0.00    -0.349 N 
HETATM   13  C   UNL     1     -46.081  56.103 -60.462  1.00  0.00     0.219 C 
HETATM   14  C   UNL     1     -46.328  57.495 -58.392  1.00  0.00     0.145 C 
HETATM   15  O   UNL     1     -45.426  55.323 -61.150  1.00  0.00    -0.273 OA
HETATM   16  C   UNL     1     -45.567  58.593 -57.640  1.00  0.00     0.143 C 
BRANCH  13  17
HETATM   17  C   UNL     1     -47.563  56.353 -60.725  1.00  0.00     0.103 C 
BRANCH  17  18
HETATM   18  C   UNL     1     -47.817  57.475 -61.728  1.00  0.00     0.005 C 
HETATM   19  C   UNL     1     -48.616  56.972 -62.921  1.00  0.00     0.005 C 
ENDBRANCH  17  18
ENDBRANCH  13  17
ENDBRANCH   6   9
ENDBRANCH   1   3
BRANCH   1  20
HETATM   20  C   UNL     1     -41.125  58.941 -51.566  1.00  0.00     0.179 C 
HETATM   21  S   UNL     1     -40.953  59.281 -49.933  1.00  0.00    -0.040 SA
BRANCH  20  22
HETATM   22  N   UNL     1     -40.996  57.604 -51.883  1.00  0.00    -0.299 N 
HETATM   23  C   UNL     1     -41.807  56.512 -51.599  1.00  0.00     0.266 C 
HETATM   24  O   UNL     1     -42.885  56.650 -51.021  1.00  0.00    -0.267 OA
HETATM   25  H   UNL     1     -40.117  57.414 -52.345  1.00  0.00     0.171 HD
BRANCH  23  26
HETATM   26  C   UNL     1     -41.276  55.232 -52.056  1.00  0.00     0.096 A 
HETATM   27  S   UNL     1     -40.639  54.152 -50.891  1.00  0.00    -0.082 SA
HETATM   28  C   UNL     1     -40.297  52.939 -52.060  1.00  0.00     0.017 A 
HETATM   29  C   UNL     1     -40.630  53.362 -53.347  1.00  0.00     0.004 A 
HETATM   30  C   UNL     1     -39.746  51.664 -51.820  1.00  0.00     0.020 A 
HETATM   31  C   UNL     1     -41.182  54.692 -53.326  1.00  0.00     0.068 A 
HETATM   32  C   UNL     1     -40.390  52.465 -54.423  1.00  0.00     0.014 A 
HETATM   33 CL   UNL     1     -41.653  55.475 -54.788  1.00  0.00    -0.082 Cl
HETATM   34  C   UNL     1     -39.845  51.199 -54.190  1.00  0.00     0.001 A 
HETATM   35  C   UNL     1     -39.529  50.804 -52.899  1.00  0.00     0.001 A 
ENDBRANCH  23  26
ENDBRANCH  20  22
ENDBRANCH   1  20
TORSDOF 7
ENDMDL
MODEL 4
REMARK VINA RESULT:      -8.1      3.341      7.407
REMARK  7 active torsions:
REMARK  status: ('A' for Active; 'I' for Inactive)
REMARK    1  A    between atoms: C_2  and  C_3 
REMARK    2  A    between atoms: C_3  and  C_4 
REMARK       I    between atoms: C_4  and  N_5 
REMARK    3  A    between atoms: N_8  and  C_9 
REMARK    4  A    between atoms: C_12  and  N_13 
REMARK    5  A    between atoms: N_13  and  C_14 
REMARK    6  A    between atoms: C_14  and  N_15 
REMARK       I    between atoms: N_15  and  C_16 
REMARK    7  A    between atoms: C_16  and  C_17 
ROOT
HETATM    1  N   UNL     1     -43.773  60.056 -51.706  1.00  0.00    -0.333 N 
HETATM    2  H   UNL     1     -44.514  60.352 -51.069  1.00  0.00     0.168 HD
ENDROOT
BRANCH   1   3
HETATM    3  C   UNL     1     -43.184  58.805 -51.413  1.00  0.00     0.034 C 
HETATM    4  C   UNL     1     -41.850  58.655 -51.052  1.00  0.00     0.032 C 
HETATM    5  C   UNL     1     -41.271  57.385 -50.979  1.00  0.00     0.031 C 
HETATM    6  C   UNL     1     -42.004  56.224 -51.249  1.00  0.00     0.030 C 
HETATM    7  C   UNL     1     -43.383  56.385 -51.448  1.00  0.00     0.031 C 
HETATM    8  C   UNL     1     -43.972  57.659 -51.516  1.00  0.00     0.032 C 
BRANCH   6   9
HETATM    9  N   UNL     1     -41.399  54.984 -51.439  1.00  0.00    -0.378 N 
HETATM   10  C   UNL     1     -40.900  54.255 -50.259  1.00  0.00     0.143 C 
HETATM   11  C   UNL     1     -40.740  52.751 -50.584  1.00  0.00     0.145 C 
HETATM   12  N   UNL     1     -40.047  52.476 -51.854  1.00  0.00    -0.349 N 
HETATM   13  C   UNL     1     -39.515  51.197 -52.031  1.00  0.00     0.219 C 
HETATM   14  C   UNL     1     -40.461  53.313 -52.985  1.00  0.00     0.145 C 
HETATM   15  O   UNL     1     -39.424  50.393 -51.105  1.00  0.00    -0.273 OA
HETATM   16  C   UNL     1     -40.553  54.801 -52.630  1.00  0.00     0.143 C 
BRANCH  13  17
HETATM   17  C   UNL     1     -39.035  50.856 -53.438  1.00  0.00     0.103 C 
BRANCH  17  18
HETATM   18  C   UNL     1     -39.811  49.706 -54.077  1.00  0.00     0.005 C 
HETATM   19  C   UNL     1     -41.188  50.164 -54.535  1.00  0.00     0.005 C 
ENDBRANCH  17  18
ENDBRANCH  13  17
ENDBRANCH   6   9
ENDBRANCH   1   3
BRANCH   1  20
HETATM   20  C   UNL     1     -43.721  60.775 -52.882  1.00  0.00     0.179 C 
HETATM   21  S   UNL     1     -43.896  62.423 -53.140  1.00  0.00    -0.040 SA
BRANCH  20  22
HETATM   22  N   UNL     1     -43.426  60.051 -54.020  1.00  0.00    -0.299 N 
HETATM   23  C   UNL     1     -42.212  59.721 -54.609  1.00  0.00     0.266 C 
HETATM   24  O   UNL     1     -41.142  60.021 -54.078  1.00  0.00    -0.267 OA
HETATM   25  H   UNL     1     -44.264  59.787 -54.521  1.00  0.00     0.171 HD
BRANCH  23  26
HETATM   26  C   UNL     1     -42.330  58.991 -55.866  1.00  0.00     0.096 A 
HETATM   27  S   UNL     1     -41.950  59.810 -57.321  1.00  0.00    -0.082 SA
HETATM   28  C   UNL     1     -42.231  58.420 -58.292  1.00  0.00     0.017 A 
HETATM   29  C   UNL     1     -42.650  57.335 -57.520  1.00  0.00     0.004 A 
HETATM   30  C   UNL     1     -42.083  58.319 -59.689  1.00  0.00     0.020 A 
HETATM   31  C   UNL     1     -42.712  57.687 -56.125  1.00  0.00     0.068 A 
HETATM   32  C   UNL     1     -42.932  56.114 -58.191  1.00  0.00     0.014 A 
HETATM   33 CL   UNL     1     -43.231  56.540 -54.948  1.00  0.00    -0.082 Cl
HETATM   34  C   UNL     1     -42.786  56.010 -59.576  1.00  0.00     0.001 A 
HETATM   35  C   UNL     1     -42.362  57.103 -60.317  1.00  0.00     0.001 A 
ENDBRANCH  23  26
ENDBRANCH  20  22
ENDBRANCH   1  20
TORSDOF 7
ENDMDL
MODEL 5
REMARK VINA RESULT:      -8.1      2.475      3.654
REMARK  7 active torsions:
REMARK  status: ('A' for Active; 'I' for Inactive)
REMARK    1  A    between atoms: C_2  and  C_3 
REMARK    2  A    between atoms: C_3  and  C_4 
REMARK       I    between atoms: C_4  and  N_5 
REMARK    3  A    between atoms: N_8  and  C_9 
REMARK    4  A    between atoms: C_12  and  N_13 
REMARK    5  A    between atoms: N_13  and  C_14 
REMARK    6  A    between atoms: C_14  and  N_15 
REMARK       I    between atoms: N_15  and  C_16 
REMARK    7  A    between atoms: C_16  and  C_17 
ROOT
HETATM    1  N   UNL     1     -42.016  59.010 -55.288  1.00  0.00    -0.333 N 
HETATM    2  H   UNL     1     -41.324  59.630 -55.709  1.00  0.00     0.168 HD
ENDROOT
BRANCH   1   3
HETATM    3  C   UNL     1     -42.942  58.433 -56.188  1.00  0.00     0.034 C 
HETATM    4  C   UNL     1     -42.566  57.745 -57.335  1.00  0.00     0.032 C 
HETATM    5  C   UNL     1     -43.518  57.381 -58.292  1.00  0.00     0.031 C 
HETATM    6  C   UNL     1     -44.876  57.679 -58.130  1.00  0.00     0.030 C 
HETATM    7  C   UNL     1     -45.256  58.224 -56.895  1.00  0.00     0.031 C 
HETATM    8  C   UNL     1     -44.304  58.586 -55.927  1.00  0.00     0.032 C 
BRANCH   6   9
HETATM    9  N   UNL     1     -45.795  57.566 -59.170  1.00  0.00    -0.378 N 
HETATM   10  C   UNL     1     -45.835  56.311 -59.943  1.00  0.00     0.143 C 
HETATM   11  C   UNL     1     -47.191  56.173 -60.674  1.00  0.00     0.145 C 
HETATM   12  N   UNL     1     -47.619  57.386 -61.392  1.00  0.00    -0.349 N 
HETATM   13  C   UNL     1     -48.594  57.237 -62.379  1.00  0.00     0.219 C 
HETATM   14  C   UNL     1     -47.438  58.642 -60.655  1.00  0.00     0.145 C 
HETATM   15  O   UNL     1     -48.935  56.133 -62.801  1.00  0.00    -0.273 OA
HETATM   16  C   UNL     1     -46.060  58.758 -59.994  1.00  0.00     0.143 C 
BRANCH  13  17
HETATM   17  C   UNL     1     -49.204  58.525 -62.923  1.00  0.00     0.103 C 
BRANCH  17  18
HETATM   18  C   UNL     1     -50.658  58.728 -62.504  1.00  0.00     0.005 C 
HETATM   19  C   UNL     1     -50.882  60.137 -61.973  1.00  0.00     0.005 C 
ENDBRANCH  17  18
ENDBRANCH  13  17
ENDBRANCH   6   9
ENDBRANCH   1   3
BRANCH   1  20
HETATM   20  C   UNL     1     -41.715  58.619 -54.001  1.00  0.00     0.179 C 
HETATM   21  S   UNL     1     -41.621  59.533 -52.597  1.00  0.00    -0.040 SA
BRANCH  20  22
HETATM   22  N   UNL     1     -41.508  57.268 -53.811  1.00  0.00    -0.299 N 
HETATM   23  C   UNL     1     -42.357  56.265 -53.359  1.00  0.00     0.266 C 
HETATM   24  O   UNL     1     -43.541  56.494 -53.110  1.00  0.00    -0.267 OA
HETATM   25  H   UNL     1     -40.545  57.010 -53.979  1.00  0.00     0.171 HD
BRANCH  23  26
HETATM   26  C   UNL     1     -41.728  54.955 -53.230  1.00  0.00     0.096 A 
HETATM   27  S   UNL     1     -41.724  53.916 -54.591  1.00  0.00    -0.082 SA
HETATM   28  C   UNL     1     -40.829  52.694 -53.779  1.00  0.00     0.017 A 
HETATM   29  C   UNL     1     -40.560  53.052 -52.458  1.00  0.00     0.004 A 
HETATM   30  C   UNL     1     -40.397  51.465 -54.315  1.00  0.00     0.020 A 
HETATM   31  C   UNL     1     -41.096  54.354 -52.156  1.00  0.00     0.068 A 
HETATM   32  C   UNL     1     -39.835  52.130 -51.656  1.00  0.00     0.014 A 
HETATM   33 CL   UNL     1     -40.933  55.032 -50.579  1.00  0.00    -0.082 Cl
HETATM   34  C   UNL     1     -39.403  50.910 -52.183  1.00  0.00     0.001 A 
HETATM   35  C   UNL     1     -39.680  50.584 -53.502  1.00  0.00     0.001 A 
ENDBRANCH  23  26
ENDBRANCH  20  22
ENDBRANCH   1  20
TORSDOF 7
ENDMDL
MODEL 6
REMARK VINA RESULT:      -8.0      2.797      4.030
REMARK  7 active torsions:
REMARK  status: ('A' for Active; 'I' for Inactive)
REMARK    1  A    between atoms: C_2  and  C_3 
REMARK    2  A    between atoms: C_3  and  C_4 
REMARK       I    between atoms: C_4  and  N_5 
REMARK    3  A    between atoms: N_8  and  C_9 
REMARK    4  A    between atoms: C_12  and  N_13 
REMARK    5  A    between atoms: N_13  and  C_14 
REMARK    6  A    between atoms: C_14  and  N_15 
REMARK       I    between atoms: N_15  and  C_16 
REMARK    7  A    between atoms: C_16  and  C_17 
ROOT
HETATM    1  N   UNL     1     -42.606  57.892 -54.607  1.00  0.00    -0.333 N 
HETATM    2  H   UNL     1     -41.625  58.174 -54.579  1.00  0.00     0.168 HD
ENDROOT
BRANCH   1   3
HETATM    3  C   UNL     1     -43.232  57.996 -55.870  1.00  0.00     0.034 C 
HETATM    4  C   UNL     1     -43.998  59.090 -56.256  1.00  0.00     0.032 C 
HETATM    5  C   UNL     1     -44.762  59.047 -57.426  1.00  0.00     0.031 C 
HETATM    6  C   UNL     1     -44.775  57.920 -58.255  1.00  0.00     0.030 C 
HETATM    7  C   UNL     1     -43.872  56.896 -57.939  1.00  0.00     0.031 C 
HETATM    8  C   UNL     1     -43.097  56.936 -56.767  1.00  0.00     0.032 C 
BRANCH   6   9
HETATM    9  N   UNL     1     -45.714  57.750 -59.270  1.00  0.00    -0.378 N 
HETATM   10  C   UNL     1     -45.706  56.488 -60.033  1.00  0.00     0.143 C 
HETATM   11  C   UNL     1     -47.071  56.272 -60.728  1.00  0.00     0.145 C 
HETATM   12  N   UNL     1     -47.582  57.454 -61.442  1.00  0.00    -0.349 N 
HETATM   13  C   UNL     1     -48.573  57.245 -62.403  1.00  0.00     0.219 C 
HETATM   14  C   UNL     1     -47.450  58.725 -60.719  1.00  0.00     0.145 C 
HETATM   15  O   UNL     1     -48.865  56.121 -62.808  1.00  0.00    -0.273 OA
HETATM   16  C   UNL     1     -46.064  58.919 -60.094  1.00  0.00     0.143 C 
BRANCH  13  17
HETATM   17  C   UNL     1     -49.265  58.495 -62.939  1.00  0.00     0.103 C 
BRANCH  17  18
HETATM   18  C   UNL     1     -50.735  58.588 -62.539  1.00  0.00     0.005 C 
HETATM   19  C   UNL     1     -51.521  59.427 -63.536  1.00  0.00     0.005 C 
ENDBRANCH  17  18
ENDBRANCH  13  17
ENDBRANCH   6   9
ENDBRANCH   1   3
BRANCH   1  20
HETATM   20  C   UNL     1     -43.020  57.182 -53.500  1.00  0.00     0.179 C 
HETATM   21  S   UNL     1     -44.255  57.512 -52.415  1.00  0.00    -0.040 SA
BRANCH  20  22
HETATM   22  N   UNL     1     -42.365  55.990 -53.267  1.00  0.00    -0.299 N 
HETATM   23  C   UNL     1     -41.340  55.663 -52.387  1.00  0.00     0.266 C 
HETATM   24  O   UNL     1     -40.901  56.486 -51.584  1.00  0.00    -0.267 OA
HETATM   25  H   UNL     1     -42.664  55.268 -53.909  1.00  0.00     0.171 HD
BRANCH  23  26
HETATM   26  C   UNL     1     -40.867  54.287 -52.495  1.00  0.00     0.096 A 
HETATM   27  S   UNL     1     -40.551  53.419 -51.055  1.00  0.00    -0.082 SA
HETATM   28  C   UNL     1     -40.133  51.980 -51.897  1.00  0.00     0.017 A 
HETATM   29  C   UNL     1     -40.196  52.162 -53.280  1.00  0.00     0.004 A 
HETATM   30  C   UNL     1     -39.760  50.745 -51.331  1.00  0.00     0.020 A 
HETATM   31  C   UNL     1     -40.609  53.503 -53.605  1.00  0.00     0.068 A 
HETATM   32  C   UNL     1     -39.863  51.058 -54.110  1.00  0.00     0.014 A 
HETATM   33 CL   UNL     1     -40.741  54.011 -55.247  1.00  0.00    -0.082 Cl
HETATM   34  C   UNL     1     -39.494  49.831 -53.552  1.00  0.00     0.001 A 
HETATM   35  C   UNL     1     -39.445  49.677 -52.175  1.00  0.00     0.001 A 
ENDBRANCH  23  26
ENDBRANCH  20  22
ENDBRANCH   1  20
TORSDOF 7
ENDMDL
MODEL 7
REMARK VINA RESULT:      -7.6      3.564      7.438
REMARK  7 active torsions:
REMARK  status: ('A' for Active; 'I' for Inactive)
REMARK    1  A    between atoms: C_2  and  C_3 
REMARK    2  A    between atoms: C_3  and  C_4 
REMARK       I    between atoms: C_4  and  N_5 
REMARK    3  A    between atoms: N_8  and  C_9 
REMARK    4  A    between atoms: C_12  and  N_13 
REMARK    5  A    between atoms: N_13  and  C_14 
REMARK    6  A    between atoms: C_14  and  N_15 
REMARK       I    between atoms: N_15  and  C_16 
REMARK    7  A    between atoms: C_16  and  C_17 
ROOT
HETATM    1  N   UNL     1     -42.200  58.851 -56.699  1.00  0.00    -0.333 N 
HETATM    2  H   UNL     1     -41.931  59.475 -57.460  1.00  0.00     0.168 HD
ENDROOT
BRANCH   1   3
HETATM    3  C   UNL     1     -42.568  59.487 -55.491  1.00  0.00     0.034 C 
HETATM    4  C   UNL     1     -41.691  59.679 -54.430  1.00  0.00     0.032 C 
HETATM    5  C   UNL     1     -42.160  60.121 -53.190  1.00  0.00     0.031 C 
HETATM    6  C   UNL     1     -43.514  60.399 -52.971  1.00  0.00     0.030 C 
HETATM    7  C   UNL     1     -44.353  60.359 -54.094  1.00  0.00     0.031 C 
HETATM    8  C   UNL     1     -43.886  59.921 -55.345  1.00  0.00     0.032 C 
BRANCH   6   9
HETATM    9  N   UNL     1     -44.043  60.584 -51.696  1.00  0.00    -0.378 N 
HETATM   10  C   UNL     1     -45.382  60.039 -51.402  1.00  0.00     0.143 C 
HETATM   11  C   UNL     1     -45.578  59.889 -49.876  1.00  0.00     0.145 C 
HETATM   12  N   UNL     1     -45.177  61.070 -49.094  1.00  0.00    -0.349 N 
HETATM   13  C   UNL     1     -45.675  61.180 -47.794  1.00  0.00     0.219 C 
HETATM   14  C   UNL     1     -43.905  61.683 -49.497  1.00  0.00     0.145 C 
HETATM   15  O   UNL     1     -46.578  60.457 -47.377  1.00  0.00    -0.273 OA
HETATM   16  C   UNL     1     -43.779  61.861 -51.014  1.00  0.00     0.143 C 
BRANCH  13  17
HETATM   17  C   UNL     1     -45.049  62.263 -46.921  1.00  0.00     0.103 C 
BRANCH  17  18
HETATM   18  C   UNL     1     -45.302  62.057 -45.430  1.00  0.00     0.005 C 
HETATM   19  C   UNL     1     -44.298  61.081 -44.835  1.00  0.00     0.005 C 
ENDBRANCH  17  18
ENDBRANCH  13  17
ENDBRANCH   6   9
ENDBRANCH   1   3
BRANCH   1  20
HETATM   20  C   UNL     1     -42.450  57.554 -57.096  1.00  0.00     0.179 C 
HETATM   21  S   UNL     1     -43.013  56.972 -58.564  1.00  0.00    -0.040 SA
BRANCH  20  22
HETATM   22  N   UNL     1     -42.144  56.570 -56.177  1.00  0.00    -0.299 N 
HETATM   23  C   UNL     1     -42.888  56.023 -55.138  1.00  0.00     0.266 C 
HETATM   24  O   UNL     1     -44.058  56.354 -54.947  1.00  0.00    -0.267 OA
HETATM   25  H   UNL     1     -41.185  56.264 -56.264  1.00  0.00     0.171 HD
BRANCH  23  26
HETATM   26  C   UNL     1     -42.170  55.038 -54.337  1.00  0.00     0.096 A 
HETATM   27  S   UNL     1     -41.289  53.814 -55.149  1.00  0.00    -0.082 SA
HETATM   28  C   UNL     1     -40.705  53.128 -53.685  1.00  0.00     0.017 A 
HETATM   29  C   UNL     1     -41.205  53.801 -52.570  1.00  0.00     0.004 A 
HETATM   30  C   UNL     1     -39.837  52.025 -53.554  1.00  0.00     0.020 A 
HETATM   31  C   UNL     1     -42.058  54.892 -52.966  1.00  0.00     0.068 A 
HETATM   32  C   UNL     1     -40.817  53.336 -51.285  1.00  0.00     0.014 A 
HETATM   33 CL   UNL     1     -42.837  55.877 -51.785  1.00  0.00    -0.082 Cl
HETATM   34  C   UNL     1     -39.955  52.244 -51.151  1.00  0.00     0.001 A 
HETATM   35  C   UNL     1     -39.469  51.597 -52.277  1.00  0.00     0.001 A 
ENDBRANCH  23  26
ENDBRANCH  20  22
ENDBRANCH   1  20
TORSDOF 7
ENDMDL
MODEL 8
REMARK VINA RESULT:      -7.4      3.543      7.778
REMARK  7 active torsions:
REMARK  status: ('A' for Active; 'I' for Inactive)
REMARK    1  A    between atoms: C_2  and  C_3 
REMARK    2  A    between atoms: C_3  and  C_4 
REMARK       I    between atoms: C_4  and  N_5 
REMARK    3  A    between atoms: N_8  and  C_9 
REMARK    4  A    between atoms: C_12  and  N_13 
REMARK    5  A    between atoms: N_13  and  C_14 
REMARK    6  A    between atoms: C_14  and  N_15 
REMARK       I    between atoms: N_15  and  C_16 
REMARK    7  A    between atoms: C_16  and  C_17 
ROOT
HETATM    1  N   UNL     1     -44.317  61.774 -54.397  1.00  0.00    -0.333 N 
HETATM    2  H   UNL     1     -44.745  62.393 -53.708  1.00  0.00     0.168 HD
ENDROOT
BRANCH   1   3
HETATM    3  C   UNL     1     -43.619  60.665 -53.867  1.00  0.00     0.034 C 
HETATM    4  C   UNL     1     -42.254  60.467 -54.042  1.00  0.00     0.032 C 
HETATM    5  C   UNL     1     -41.658  59.255 -53.679  1.00  0.00     0.031 C 
HETATM    6  C   UNL     1     -42.400  58.208 -53.120  1.00  0.00     0.030 C 
HETATM    7  C   UNL     1     -43.737  58.486 -52.800  1.00  0.00     0.031 C 
HETATM    8  C   UNL     1     -44.339  59.705 -53.157  1.00  0.00     0.032 C 
BRANCH   6   9
HETATM    9  N   UNL     1     -41.894  56.916 -52.995  1.00  0.00    -0.378 N 
HETATM   10  C   UNL     1     -41.541  56.424 -51.651  1.00  0.00     0.143 C 
HETATM   11  C   UNL     1     -41.492  54.879 -51.640  1.00  0.00     0.145 C 
HETATM   12  N   UNL     1     -40.742  54.288 -52.761  1.00  0.00    -0.349 N 
HETATM   13  C   UNL     1     -40.314  52.966 -52.622  1.00  0.00     0.219 C 
HETATM   14  C   UNL     1     -41.005  54.890 -54.074  1.00  0.00     0.145 C 
HETATM   15  O   UNL     1     -40.355  52.376 -51.544  1.00  0.00    -0.273 OA
HETATM   16  C   UNL     1     -40.989  56.422 -54.046  1.00  0.00     0.143 C 
BRANCH  13  17
HETATM   17  C   UNL     1     -39.772  52.297 -53.881  1.00  0.00     0.103 C 
BRANCH  17  18
HETATM   18  C   UNL     1     -40.556  51.052 -54.287  1.00  0.00     0.005 C 
HETATM   19  C   UNL     1     -39.633  49.852 -54.444  1.00  0.00     0.005 C 
ENDBRANCH  17  18
ENDBRANCH  13  17
ENDBRANCH   6   9
ENDBRANCH   1   3
BRANCH   1  20
HETATM   20  C   UNL     1     -44.768  61.968 -55.686  1.00  0.00     0.179 C 
HETATM   21  S   UNL     1     -45.286  63.374 -56.440  1.00  0.00    -0.040 SA
BRANCH  20  22
HETATM   22  N   UNL     1     -44.745  60.860 -56.508  1.00  0.00    -0.299 N 
HETATM   23  C   UNL     1     -43.877  60.493 -57.529  1.00  0.00     0.266 C 
HETATM   24  O   UNL     1     -42.883  61.169 -57.796  1.00  0.00    -0.267 OA
HETATM   25  H   UNL     1     -45.549  60.266 -56.356  1.00  0.00     0.171 HD
BRANCH  23  26
HETATM   26  C   UNL     1     -44.241  59.259 -58.216  1.00  0.00     0.096 A 
HETATM   27  S   UNL     1     -45.903  58.900 -58.418  1.00  0.00    -0.082 SA
HETATM   28  C   UNL     1     -45.585  57.456 -59.295  1.00  0.00     0.017 A 
HETATM   29  C   UNL     1     -44.215  57.219 -59.408  1.00  0.00     0.004 A 
HETATM   30  C   UNL     1     -46.535  56.576 -59.849  1.00  0.00     0.020 A 
HETATM   31  C   UNL     1     -43.456  58.264 -58.769  1.00  0.00     0.068 A 
HETATM   32  C   UNL     1     -43.799  56.049 -60.100  1.00  0.00     0.014 A 
HETATM   33 CL   UNL     1     -41.733  58.207 -58.732  1.00  0.00    -0.082 Cl
HETATM   34  C   UNL     1     -44.738  55.175 -60.652  1.00  0.00     0.001 A 
HETATM   35  C   UNL     1     -46.093  55.439 -60.529  1.00  0.00     0.001 A 
ENDBRANCH  23  26
ENDBRANCH  20  22
ENDBRANCH   1  20
TORSDOF 7
ENDMDL
MODEL 9
REMARK VINA RESULT:      -7.2      4.885      9.038
REMARK  7 active torsions:
REMARK  status: ('A' for Active; 'I' for Inactive)
REMARK    1  A    between atoms: C_2  and  C_3 
REMARK    2  A    between atoms: C_3  and  C_4 
REMARK       I    between atoms: C_4  and  N_5 
REMARK    3  A    between atoms: N_8  and  C_9 
REMARK    4  A    between atoms: C_12  and  N_13 
REMARK    5  A    between atoms: N_13  and  C_14 
REMARK    6  A    between atoms: C_14  and  N_15 
REMARK       I    between atoms: N_15  and  C_16 
REMARK    7  A    between atoms: C_16  and  C_17 
ROOT
HETATM    1  N   UNL     1     -44.428  60.714 -54.252  1.00  0.00    -0.333 N 
HETATM    2  H   UNL     1     -44.383  60.686 -55.272  1.00  0.00     0.168 HD
ENDROOT
BRANCH   1   3
HETATM    3  C   UNL     1     -43.837  59.615 -53.588  1.00  0.00     0.034 C 
HETATM    4  C   UNL     1     -42.523  59.612 -53.136  1.00  0.00     0.032 C 
HETATM    5  C   UNL     1     -41.929  58.432 -52.678  1.00  0.00     0.031 C 
HETATM    6  C   UNL     1     -42.630  57.221 -52.643  1.00  0.00     0.030 C 
HETATM    7  C   UNL     1     -43.998  57.278 -52.945  1.00  0.00     0.031 C 
HETATM    8  C   UNL     1     -44.601  58.463 -53.401  1.00  0.00     0.032 C 
BRANCH   6   9
HETATM    9  N   UNL     1     -41.997  55.997 -52.445  1.00  0.00    -0.378 N 
HETATM   10  C   UNL     1     -41.641  55.602 -51.069  1.00  0.00     0.143 C 
HETATM   11  C   UNL     1     -41.431  54.071 -50.986  1.00  0.00     0.145 C 
HETATM   12  N   UNL     1     -40.585  53.517 -52.056  1.00  0.00    -0.349 N 
HETATM   13  C   UNL     1     -40.026  52.255 -51.844  1.00  0.00     0.219 C 
HETATM   14  C   UNL     1     -40.863  54.032 -53.402  1.00  0.00     0.145 C 
HETATM   15  O   UNL     1     -40.043  51.709 -50.742  1.00  0.00    -0.273 OA
HETATM   16  C   UNL     1     -41.008  55.557 -53.443  1.00  0.00     0.143 C 
BRANCH  13  17
HETATM   17  C   UNL     1     -39.374  51.595 -53.055  1.00  0.00     0.103 C 
BRANCH  17  18
HETATM   18  C   UNL     1     -39.799  50.142 -53.251  1.00  0.00     0.005 C 
HETATM   19  C   UNL     1     -39.824  49.775 -54.728  1.00  0.00     0.005 C 
ENDBRANCH  17  18
ENDBRANCH  13  17
ENDBRANCH   6   9
ENDBRANCH   1   3
BRANCH   1  20
HETATM   20  C   UNL     1     -44.769  61.946 -53.736  1.00  0.00     0.179 C 
HETATM   21  S   UNL     1     -44.934  63.425 -54.511  1.00  0.00    -0.040 SA
BRANCH  20  22
HETATM   22  N   UNL     1     -45.075  61.975 -52.390  1.00  0.00    -0.299 N 
HETATM   23  C   UNL     1     -46.199  61.544 -51.696  1.00  0.00     0.266 C 
HETATM   24  O   UNL     1     -47.122  60.967 -52.271  1.00  0.00    -0.267 OA
HETATM   25  H   UNL     1     -44.364  62.456 -51.856  1.00  0.00     0.171 HD
BRANCH  23  26
HETATM   26  C   UNL     1     -46.167  61.821 -50.265  1.00  0.00     0.096 A 
HETATM   27  S   UNL     1     -45.049  60.961 -49.294  1.00  0.00    -0.082 SA
HETATM   28  C   UNL     1     -45.503  61.794 -47.861  1.00  0.00     0.017 A 
HETATM   29  C   UNL     1     -46.532  62.705 -48.104  1.00  0.00     0.004 A 
HETATM   30  C   UNL     1     -44.955  61.625 -46.574  1.00  0.00     0.020 A 
HETATM   31  C   UNL     1     -46.910  62.698 -49.494  1.00  0.00     0.068 A 
HETATM   32  C   UNL     1     -47.022  63.460 -47.005  1.00  0.00     0.014 A 
HETATM   33 CL   UNL     1     -48.182  63.709 -50.068  1.00  0.00    -0.082 Cl
HETATM   34  C   UNL     1     -46.480  63.297 -45.727  1.00  0.00     0.001 A 
HETATM   35  C   UNL     1     -45.454  62.389 -45.516  1.00  0.00     0.001 A 
ENDBRANCH  23  26
ENDBRANCH  20  22
ENDBRANCH   1  20
TORSDOF 7
ENDMDL
MODEL 10
REMARK VINA RESULT:      -7.2     16.439     18.591
REMARK  7 active torsions:
REMARK  status: ('A' for Active; 'I' for Inactive)
REMARK    1  A    between atoms: C_2  and  C_3 
REMARK    2  A    between atoms: C_3  and  C_4 
REMARK       I    between atoms: C_4  and  N_5 
REMARK    3  A    between atoms: N_8  and  C_9 
REMARK    4  A    between atoms: C_12  and  N_13 
REMARK    5  A    between atoms: N_13  and  C_14 
REMARK    6  A    between atoms: C_14  and  N_15 
REMARK       I    between atoms: N_15  and  C_16 
REMARK    7  A    between atoms: C_16  and  C_17 
ROOT
HETATM    1  N   UNL     1     -37.113  41.930 -53.995  1.00  0.00    -0.333 N 
HETATM    2  H   UNL     1     -36.568  42.771 -53.799  1.00  0.00     0.168 HD
ENDROOT
BRANCH   1   3
HETATM    3  C   UNL     1     -37.002  41.426 -55.311  1.00  0.00     0.034 C 
HETATM    4  C   UNL     1     -37.128  42.218 -56.446  1.00  0.00     0.032 C 
HETATM    5  C   UNL     1     -37.218  41.636 -57.714  1.00  0.00     0.031 C 
HETATM    6  C   UNL     1     -37.172  40.249 -57.892  1.00  0.00     0.030 C 
HETATM    7  C   UNL     1     -36.879  39.479 -56.758  1.00  0.00     0.031 C 
HETATM    8  C   UNL     1     -36.781  40.059 -55.481  1.00  0.00     0.032 C 
BRANCH   6   9
HETATM    9  N   UNL     1     -37.519  39.638 -59.095  1.00  0.00    -0.378 N 
HETATM   10  C   UNL     1     -36.880  40.113 -60.337  1.00  0.00     0.143 C 
HETATM   11  C   UNL     1     -36.985  39.035 -61.441  1.00  0.00     0.145 C 
HETATM   12  N   UNL     1     -38.328  38.448 -61.589  1.00  0.00    -0.349 N 
HETATM   13  C   UNL     1     -38.609  37.784 -62.785  1.00  0.00     0.219 C 
HETATM   14  C   UNL     1     -39.005  38.113 -60.331  1.00  0.00     0.145 C 
HETATM   15  O   UNL     1     -37.871  37.860 -63.765  1.00  0.00    -0.273 OA
HETATM   16  C   UNL     1     -38.921  39.232 -59.288  1.00  0.00     0.143 C 
BRANCH  13  17
HETATM   17  C   UNL     1     -39.899  36.969 -62.815  1.00  0.00     0.103 C 
BRANCH  17  18
HETATM   18  C   UNL     1     -41.078  37.728 -63.418  1.00  0.00     0.005 C 
HETATM   19  C   UNL     1     -42.071  38.140 -62.342  1.00  0.00     0.005 C 
ENDBRANCH  17  18
ENDBRANCH  13  17
ENDBRANCH   6   9
ENDBRANCH   1   3
BRANCH   1  20
HETATM   20  C   UNL     1     -37.586  41.290 -52.868  1.00  0.00     0.179 C 
HETATM   21  S   UNL     1     -39.165  40.980 -52.395  1.00  0.00    -0.040 SA
BRANCH  20  22
HETATM   22  N   UNL     1     -36.629  40.775 -52.018  1.00  0.00    -0.299 N 
HETATM   23  C   UNL     1     -36.219  39.469 -51.782  1.00  0.00     0.266 C 
HETATM   24  O   UNL     1     -36.678  38.528 -52.430  1.00  0.00    -0.267 OA
HETATM   25  H   UNL     1     -36.220  41.495 -51.436  1.00  0.00     0.171 HD
BRANCH  23  26
HETATM   26  C   UNL     1     -35.210  39.332 -50.737  1.00  0.00     0.096 A 
HETATM   27  S   UNL     1     -35.515  38.247 -49.449  1.00  0.00    -0.082 SA
HETATM   28  C   UNL     1     -33.992  38.543 -48.709  1.00  0.00     0.017 A 
HETATM   29  C   UNL     1     -33.257  39.496 -49.417  1.00  0.00     0.004 A 
HETATM   30  C   UNL     1     -33.488  37.943 -47.538  1.00  0.00     0.020 A 
HETATM   31  C   UNL     1     -33.982  39.948 -50.577  1.00  0.00     0.068 A 
HETATM   32  C   UNL     1     -31.977  39.853 -48.915  1.00  0.00     0.014 A 
HETATM   33 CL   UNL     1     -33.319  41.152 -51.618  1.00  0.00    -0.082 Cl
HETATM   34  C   UNL     1     -31.473  39.260 -47.755  1.00  0.00     0.001 A 
HETATM   35  C   UNL     1     -32.222  38.312 -47.076  1.00  0.00     0.001 A 
ENDBRANCH  23  26
ENDBRANCH  20  22
ENDBRANCH   1  20
TORSDOF 7
ENDMDL
