MODEL 1
REMARK VINA RESULT:      -8.3      0.000      0.000
REMARK  6 active torsions:
REMARK  status: ('A' for Active; 'I' for Inactive)
REMARK    1  A    between atoms: O_2  and  C_3 
REMARK    2  A    between atoms: C_4  and  C_5 
REMARK    3  A    between atoms: C_5  and  N_6 
REMARK    4  A    between atoms: N_6  and  C_7 
REMARK    5  A    between atoms: C_9  and  N_10 
REMARK    6  A    between atoms: N_10  and  C_11 
ROOT
HETATM    1  C   UNL     1     -42.364  55.176 -53.729  1.00  0.00     0.135 A 
HETATM    2  N   UNL     1     -41.999  55.471 -54.988  1.00  0.00    -0.052 NA
HETATM    3  C   UNL     1     -42.436  56.622 -55.528  1.00  0.00     0.702 A 
HETATM    4  N   UNL     1     -43.228  57.458 -54.860  1.00  0.00    -0.189 N 
HETATM    5  H   UNL     1     -43.493  58.317 -55.318  1.00  0.00     0.184 HD
HETATM    6  C   UNL     1     -43.617  57.209 -53.604  1.00  0.00     0.062 A 
HETATM    7  C   UNL     1     -43.177  56.036 -52.964  1.00  0.00     0.032 A 
HETATM    8  C   UNL     1     -44.436  58.135 -52.935  1.00  0.00     0.031 A 
HETATM    9  C   UNL     1     -44.814  57.912 -51.613  1.00  0.00     0.002 A 
HETATM   10  C   UNL     1     -44.364  56.776 -50.948  1.00  0.00     0.001 A 
HETATM   11  C   UNL     1     -43.548  55.855 -51.608  1.00  0.00     0.017 A 
ENDROOT
BRANCH   1  12
HETATM   12  N   UNL     1     -41.788  54.014 -53.241  1.00  0.00    -0.272 NA
HETATM   13  H   UNL     1     -41.723  54.117 -52.228  1.00  0.00     0.129 HD
BRANCH  12  14
HETATM   14  C   UNL     1     -40.477  53.604 -53.762  1.00  0.00     0.135 C 
BRANCH  14  15
HETATM   15  C   UNL     1     -40.146  52.170 -53.389  1.00  0.00    -0.012 A 
HETATM   16  C   UNL     1     -39.784  51.869 -52.059  1.00  0.00     0.075 A 
HETATM   17  C   UNL     1     -39.471  50.552 -51.704  1.00  0.00     0.037 A 
HETATM   18  C   UNL     1     -39.527  49.529 -52.652  1.00  0.00     0.003 A 
HETATM   19  C   UNL     1     -39.899  49.812 -53.961  1.00  0.00     0.001 A 
HETATM   20  C   UNL     1     -40.210  51.122 -54.325  1.00  0.00     0.011 A 
BRANCH  16  21
HETATM   21  O   UNL     1     -39.758  52.934 -51.193  1.00  0.00    -0.355 OA
HETATM   22  C   UNL     1     -40.422  52.768 -49.943  1.00  0.00     0.210 C 
ENDBRANCH  16  21
ENDBRANCH  14  15
ENDBRANCH  12  14
ENDBRANCH   1  12
BRANCH   3  23
HETATM   23  N   UNL     1     -42.039  57.012 -56.788  1.00  0.00    -0.220 N 
HETATM   24  H   UNL     1     -41.232  57.605 -56.916  1.00  0.00     0.178 HD
BRANCH  23  25
HETATM   25  C   UNL     1     -43.030  57.093 -57.856  1.00  0.00     0.099 C 
HETATM   26  C   UNL     1     -42.457  57.833 -59.066  1.00  0.00     0.026 C 
HETATM   27  C   UNL     1     -43.216  57.236 -60.237  1.00  0.00     0.002 C 
HETATM   28  C   UNL     1     -43.262  55.754 -59.901  1.00  0.00     0.002 C 
HETATM   29  C   UNL     1     -43.375  55.689 -58.378  1.00  0.00     0.026 C 
ENDBRANCH  23  25
ENDBRANCH   3  23
TORSDOF 6
ENDMDL
MODEL 2
REMARK VINA RESULT:      -8.1      2.447      6.184
REMARK  6 active torsions:
REMARK  status: ('A' for Active; 'I' for Inactive)
REMARK    1  A    between atoms: O_2  and  C_3 
REMARK    2  A    between atoms: C_4  and  C_5 
REMARK    3  A    between atoms: C_5  and  N_6 
REMARK    4  A    between atoms: N_6  and  C_7 
REMARK    5  A    between atoms: C_9  and  N_10 
REMARK    6  A    between atoms: N_10  and  C_11 
ROOT
HETATM    1  C   UNL     1     -40.370  53.496 -51.903  1.00  0.00     0.135 A 
HETATM    2  N   UNL     1     -40.528  54.258 -52.999  1.00  0.00    -0.052 NA
HETATM    3  C   UNL     1     -40.391  53.680 -54.204  1.00  0.00     0.702 A 
HETATM    4  N   UNL     1     -40.087  52.391 -54.338  1.00  0.00    -0.189 N 
HETATM    5  H   UNL     1     -40.028  52.020 -55.274  1.00  0.00     0.184 HD
HETATM    6  C   UNL     1     -39.921  51.592 -53.277  1.00  0.00     0.062 A 
HETATM    7  C   UNL     1     -40.076  52.121 -51.983  1.00  0.00     0.032 A 
HETATM    8  C   UNL     1     -39.623  50.233 -53.473  1.00  0.00     0.031 A 
HETATM    9  C   UNL     1     -39.490  49.378 -52.382  1.00  0.00     0.002 A 
HETATM   10  C   UNL     1     -39.671  49.870 -51.094  1.00  0.00     0.001 A 
HETATM   11  C   UNL     1     -39.971  51.219 -50.894  1.00  0.00     0.017 A 
ENDROOT
BRANCH   1  12
HETATM   12  N   UNL     1     -40.620  54.169 -50.717  1.00  0.00    -0.272 NA
HETATM   13  H   UNL     1     -41.563  53.914 -50.424  1.00  0.00     0.129 HD
BRANCH  12  14
HETATM   14  C   UNL     1     -40.496  55.633 -50.698  1.00  0.00     0.135 C 
BRANCH  14  15
HETATM   15  C   UNL     1     -41.840  56.313 -50.892  1.00  0.00    -0.012 A 
HETATM   16  C   UNL     1     -41.879  57.651 -51.340  1.00  0.00     0.075 A 
HETATM   17  C   UNL     1     -43.111  58.291 -51.516  1.00  0.00     0.037 A 
HETATM   18  C   UNL     1     -44.305  57.612 -51.267  1.00  0.00     0.003 A 
HETATM   19  C   UNL     1     -44.278  56.288 -50.843  1.00  0.00     0.001 A 
HETATM   20  C   UNL     1     -43.056  55.644 -50.661  1.00  0.00     0.011 A 
BRANCH  16  21
HETATM   21  O   UNL     1     -40.659  58.239 -51.563  1.00  0.00    -0.355 OA
HETATM   22  C   UNL     1     -40.423  58.765 -52.865  1.00  0.00     0.210 C 
ENDBRANCH  16  21
ENDBRANCH  14  15
ENDBRANCH  12  14
ENDBRANCH   1  12
BRANCH   3  23
HETATM   23  N   UNL     1     -40.609  54.393 -55.363  1.00  0.00    -0.220 N 
HETATM   24  H   UNL     1     -39.865  54.922 -55.793  1.00  0.00     0.178 HD
BRANCH  23  25
HETATM   25  C   UNL     1     -41.953  54.878 -55.662  1.00  0.00     0.099 C 
HETATM   26  C   UNL     1     -42.941  54.419 -54.588  1.00  0.00     0.026 C 
HETATM   27  C   UNL     1     -44.002  55.504 -54.597  1.00  0.00     0.002 C 
HETATM   28  C   UNL     1     -43.189  56.783 -54.728  1.00  0.00     0.002 C 
HETATM   29  C   UNL     1     -41.995  56.413 -55.607  1.00  0.00     0.026 C 
ENDBRANCH  23  25
ENDBRANCH   3  23
TORSDOF 6
ENDMDL
MODEL 3
REMARK VINA RESULT:      -8.0      2.437      7.144
REMARK  6 active torsions:
REMARK  status: ('A' for Active; 'I' for Inactive)
REMARK    1  A    between atoms: O_2  and  C_3 
REMARK    2  A    between atoms: C_4  and  C_5 
REMARK    3  A    between atoms: C_5  and  N_6 
REMARK    4  A    between atoms: N_6  and  C_7 
REMARK    5  A    between atoms: C_9  and  N_10 
REMARK    6  A    between atoms: N_10  and  C_11 
ROOT
HETATM    1  C   UNL     1     -41.201  54.563 -54.141  1.00  0.00     0.135 A 
HETATM    2  N   UNL     1     -41.503  55.594 -53.332  1.00  0.00    -0.052 NA
HETATM    3  C   UNL     1     -41.269  55.463 -52.015  1.00  0.00     0.702 A 
HETATM    4  N   UNL     1     -40.768  54.344 -51.496  1.00  0.00    -0.189 N 
HETATM    5  H   UNL     1     -40.592  54.328 -50.502  1.00  0.00     0.184 HD
HETATM    6  C   UNL     1     -40.450  53.292 -52.260  1.00  0.00     0.062 A 
HETATM    7  C   UNL     1     -40.641  53.366 -53.651  1.00  0.00     0.032 A 
HETATM    8  C   UNL     1     -39.903  52.143 -51.664  1.00  0.00     0.031 A 
HETATM    9  C   UNL     1     -39.525  51.056 -52.450  1.00  0.00     0.002 A 
HETATM   10  C   UNL     1     -39.675  51.118 -53.831  1.00  0.00     0.001 A 
HETATM   11  C   UNL     1     -40.215  52.260 -54.427  1.00  0.00     0.017 A 
ENDROOT
BRANCH   1  12
HETATM   12  N   UNL     1     -41.398  54.836 -55.485  1.00  0.00    -0.272 NA
HETATM   13  H   UNL     1     -40.795  55.625 -55.720  1.00  0.00     0.129 HD
BRANCH  12  14
HETATM   14  C   UNL     1     -42.761  55.122 -55.954  1.00  0.00     0.135 C 
BRANCH  14  15
HETATM   15  C   UNL     1     -42.759  56.063 -57.145  1.00  0.00    -0.012 A 
HETATM   16  C   UNL     1     -42.431  57.422 -56.952  1.00  0.00     0.075 A 
HETATM   17  C   UNL     1     -42.433  58.300 -58.042  1.00  0.00     0.037 A 
HETATM   18  C   UNL     1     -42.742  57.841 -59.323  1.00  0.00     0.003 A 
HETATM   19  C   UNL     1     -43.049  56.501 -59.528  1.00  0.00     0.001 A 
HETATM   20  C   UNL     1     -43.054  55.619 -58.448  1.00  0.00     0.011 A 
BRANCH  16  21
HETATM   21  O   UNL     1     -42.137  57.785 -55.661  1.00  0.00    -0.355 OA
HETATM   22  C   UNL     1     -42.168  59.177 -55.359  1.00  0.00     0.210 C 
ENDBRANCH  16  21
ENDBRANCH  14  15
ENDBRANCH  12  14
ENDBRANCH   1  12
BRANCH   3  23
HETATM   23  N   UNL     1     -41.493  56.508 -51.145  1.00  0.00    -0.220 N 
HETATM   24  H   UNL     1     -42.103  56.396 -50.349  1.00  0.00     0.178 HD
BRANCH  23  25
HETATM   25  C   UNL     1     -41.364  57.879 -51.628  1.00  0.00     0.099 C 
HETATM   26  C   UNL     1     -42.712  58.599 -51.565  1.00  0.00     0.026 C 
HETATM   27  C   UNL     1     -42.325  60.055 -51.376  1.00  0.00     0.002 C 
HETATM   28  C   UNL     1     -41.182  59.984 -50.377  1.00  0.00     0.002 C 
HETATM   29  C   UNL     1     -40.439  58.689 -50.706  1.00  0.00     0.026 C 
ENDBRANCH  23  25
ENDBRANCH   3  23
TORSDOF 6
ENDMDL
MODEL 4
REMARK VINA RESULT:      -7.9      2.285      7.441
REMARK  6 active torsions:
REMARK  status: ('A' for Active; 'I' for Inactive)
REMARK    1  A    between atoms: O_2  and  C_3 
REMARK    2  A    between atoms: C_4  and  C_5 
REMARK    3  A    between atoms: C_5  and  N_6 
REMARK    4  A    between atoms: N_6  and  C_7 
REMARK    5  A    between atoms: C_9  and  N_10 
REMARK    6  A    between atoms: N_10  and  C_11 
ROOT
HETATM    1  C   UNL     1     -40.498  53.448 -53.536  1.00  0.00     0.135 A 
HETATM    2  N   UNL     1     -40.560  54.313 -52.509  1.00  0.00    -0.052 NA
HETATM    3  C   UNL     1     -40.306  53.856 -51.271  1.00  0.00     0.702 A 
HETATM    4  N   UNL     1     -40.015  52.578 -51.038  1.00  0.00    -0.189 N 
HETATM    5  H   UNL     1     -39.808  52.312 -50.087  1.00  0.00     0.184 HD
HETATM    6  C   UNL     1     -39.940  51.679 -52.027  1.00  0.00     0.062 A 
HETATM    7  C   UNL     1     -40.167  52.091 -53.352  1.00  0.00     0.032 A 
HETATM    8  C   UNL     1     -39.608  50.347 -51.729  1.00  0.00     0.031 A 
HETATM    9  C   UNL     1     -39.482  49.409 -52.751  1.00  0.00     0.002 A 
HETATM   10  C   UNL     1     -39.669  49.799 -54.073  1.00  0.00     0.001 A 
HETATM   11  C   UNL     1     -39.996  51.123 -54.374  1.00  0.00     0.017 A 
ENDROOT
BRANCH   1  12
HETATM   12  N   UNL     1     -40.689  54.041 -54.774  1.00  0.00    -0.272 NA
HETATM   13  H   UNL     1     -40.097  54.872 -54.800  1.00  0.00     0.129 HD
BRANCH  12  14
HETATM   14  C   UNL     1     -42.052  54.416 -55.173  1.00  0.00     0.135 C 
BRANCH  14  15
HETATM   15  C   UNL     1     -42.176  55.909 -55.417  1.00  0.00    -0.012 A 
HETATM   16  C   UNL     1     -42.661  56.368 -56.660  1.00  0.00     0.075 A 
HETATM   17  C   UNL     1     -42.773  57.743 -56.898  1.00  0.00     0.037 A 
HETATM   18  C   UNL     1     -42.424  58.666 -55.911  1.00  0.00     0.003 A 
HETATM   19  C   UNL     1     -41.962  58.223 -54.676  1.00  0.00     0.001 A 
HETATM   20  C   UNL     1     -41.843  56.856 -54.431  1.00  0.00     0.011 A 
BRANCH  16  21
HETATM   21  O   UNL     1     -42.983  55.393 -57.570  1.00  0.00    -0.355 OA
HETATM   22  C   UNL     1     -43.288  55.820 -58.895  1.00  0.00     0.210 C 
ENDBRANCH  16  21
ENDBRANCH  14  15
ENDBRANCH  12  14
ENDBRANCH   1  12
BRANCH   3  23
HETATM   23  N   UNL     1     -40.286  54.707 -50.188  1.00  0.00    -0.220 N 
HETATM   24  H   UNL     1     -39.688  54.523 -49.396  1.00  0.00     0.178 HD
BRANCH  23  25
HETATM   25  C   UNL     1     -41.470  55.505 -49.885  1.00  0.00     0.099 C 
HETATM   26  C   UNL     1     -41.495  56.774 -50.738  1.00  0.00     0.026 C 
HETATM   27  C   UNL     1     -42.977  57.078 -50.873  1.00  0.00     0.002 C 
HETATM   28  C   UNL     1     -43.593  55.707 -51.101  1.00  0.00     0.002 C 
HETATM   29  C   UNL     1     -42.747  54.742 -50.272  1.00  0.00     0.026 C 
ENDBRANCH  23  25
ENDBRANCH   3  23
TORSDOF 6
ENDMDL
MODEL 5
REMARK VINA RESULT:      -7.9      2.152      6.011
REMARK  6 active torsions:
REMARK  status: ('A' for Active; 'I' for Inactive)
REMARK    1  A    between atoms: O_2  and  C_3 
REMARK    2  A    between atoms: C_4  and  C_5 
REMARK    3  A    between atoms: C_5  and  N_6 
REMARK    4  A    between atoms: N_6  and  C_7 
REMARK    5  A    between atoms: C_9  and  N_10 
REMARK    6  A    between atoms: N_10  and  C_11 
ROOT
HETATM    1  C   UNL     1     -40.513  53.928 -52.267  1.00  0.00     0.135 A 
HETATM    2  N   UNL     1     -40.767  54.668 -53.360  1.00  0.00    -0.052 NA
HETATM    3  C   UNL     1     -40.681  54.079 -54.565  1.00  0.00     0.702 A 
HETATM    4  N   UNL     1     -40.336  52.800 -54.701  1.00  0.00    -0.189 N 
HETATM    5  H   UNL     1     -40.320  52.418 -55.635  1.00  0.00     0.184 HD
HETATM    6  C   UNL     1     -40.075  52.023 -53.644  1.00  0.00     0.062 A 
HETATM    7  C   UNL     1     -40.172  52.563 -52.349  1.00  0.00     0.032 A 
HETATM    8  C   UNL     1     -39.738  50.673 -53.842  1.00  0.00     0.031 A 
HETATM    9  C   UNL     1     -39.507  49.839 -52.750  1.00  0.00     0.002 A 
HETATM   10  C   UNL     1     -39.628  50.342 -51.460  1.00  0.00     0.001 A 
HETATM   11  C   UNL     1     -39.967  51.682 -51.258  1.00  0.00     0.017 A 
ENDROOT
BRANCH   1  12
HETATM   12  N   UNL     1     -40.717  54.608 -51.076  1.00  0.00    -0.272 NA
HETATM   13  H   UNL     1     -40.627  53.924 -50.325  1.00  0.00     0.129 HD
BRANCH  12  14
HETATM   14  C   UNL     1     -41.970  55.352 -50.895  1.00  0.00     0.135 C 
BRANCH  14  15
HETATM   15  C   UNL     1     -41.765  56.847 -51.061  1.00  0.00    -0.012 A 
HETATM   16  C   UNL     1     -42.590  57.562 -51.955  1.00  0.00     0.075 A 
HETATM   17  C   UNL     1     -42.405  58.940 -52.121  1.00  0.00     0.037 A 
HETATM   18  C   UNL     1     -41.422  59.617 -51.398  1.00  0.00     0.003 A 
HETATM   19  C   UNL     1     -40.616  58.925 -50.501  1.00  0.00     0.001 A 
HETATM   20  C   UNL     1     -40.790  57.552 -50.332  1.00  0.00     0.011 A 
BRANCH  16  21
HETATM   21  O   UNL     1     -43.531  56.818 -52.621  1.00  0.00    -0.355 OA
HETATM   22  C   UNL     1     -44.662  57.516 -53.135  1.00  0.00     0.210 C 
ENDBRANCH  16  21
ENDBRANCH  14  15
ENDBRANCH  12  14
ENDBRANCH   1  12
BRANCH   3  23
HETATM   23  N   UNL     1     -40.996  54.766 -55.717  1.00  0.00    -0.220 N 
HETATM   24  H   UNL     1     -40.271  55.127 -56.318  1.00  0.00     0.178 HD
BRANCH  23  25
HETATM   25  C   UNL     1     -42.267  55.479 -55.799  1.00  0.00     0.099 C 
HETATM   26  C   UNL     1     -42.037  56.991 -55.790  1.00  0.00     0.026 C 
HETATM   27  C   UNL     1     -43.221  57.532 -56.570  1.00  0.00     0.002 C 
HETATM   28  C   UNL     1     -43.358  56.547 -57.720  1.00  0.00     0.002 C 
HETATM   29  C   UNL     1     -42.960  55.191 -57.140  1.00  0.00     0.026 C 
ENDBRANCH  23  25
ENDBRANCH   3  23
TORSDOF 6
ENDMDL
MODEL 6
REMARK VINA RESULT:      -7.9      2.107      4.969
REMARK  6 active torsions:
REMARK  status: ('A' for Active; 'I' for Inactive)
REMARK    1  A    between atoms: O_2  and  C_3 
REMARK    2  A    between atoms: C_4  and  C_5 
REMARK    3  A    between atoms: C_5  and  N_6 
REMARK    4  A    between atoms: N_6  and  C_7 
REMARK    5  A    between atoms: C_9  and  N_10 
REMARK    6  A    between atoms: N_10  and  C_11 
ROOT
HETATM    1  C   UNL     1     -43.194  55.408 -53.743  1.00  0.00     0.135 A 
HETATM    2  N   UNL     1     -43.634  56.052 -54.839  1.00  0.00    -0.052 NA
HETATM    3  C   UNL     1     -43.004  55.831 -56.006  1.00  0.00     0.702 A 
HETATM    4  N   UNL     1     -41.956  55.015 -56.098  1.00  0.00    -0.189 N 
HETATM    5  H   UNL     1     -41.552  54.875 -57.012  1.00  0.00     0.184 HD
HETATM    6  C   UNL     1     -41.483  54.351 -55.036  1.00  0.00     0.062 A 
HETATM    7  C   UNL     1     -42.109  54.511 -53.787  1.00  0.00     0.032 A 
HETATM    8  C   UNL     1     -40.388  53.484 -55.192  1.00  0.00     0.031 A 
HETATM    9  C   UNL     1     -39.911  52.752 -54.107  1.00  0.00     0.002 A 
HETATM   10  C   UNL     1     -40.534  52.869 -52.869  1.00  0.00     0.001 A 
HETATM   11  C   UNL     1     -41.624  53.727 -52.710  1.00  0.00     0.017 A 
ENDROOT
BRANCH   1  12
HETATM   12  N   UNL     1     -43.967  55.639 -52.617  1.00  0.00    -0.272 NA
HETATM   13  H   UNL     1     -44.893  55.256 -52.808  1.00  0.00     0.129 HD
BRANCH  12  14
HETATM   14  C   UNL     1     -44.114  57.018 -52.132  1.00  0.00     0.135 C 
BRANCH  14  15
HETATM   15  C   UNL     1     -42.767  57.687 -51.924  1.00  0.00    -0.012 A 
HETATM   16  C   UNL     1     -41.889  57.181 -50.943  1.00  0.00     0.075 A 
HETATM   17  C   UNL     1     -40.647  57.793 -50.737  1.00  0.00     0.037 A 
HETATM   18  C   UNL     1     -40.263  58.893 -51.506  1.00  0.00     0.003 A 
HETATM   19  C   UNL     1     -41.114  59.390 -52.487  1.00  0.00     0.001 A 
HETATM   20  C   UNL     1     -42.354  58.788 -52.696  1.00  0.00     0.011 A 
BRANCH  16  21
HETATM   21  O   UNL     1     -42.346  56.096 -50.238  1.00  0.00    -0.355 OA
HETATM   22  C   UNL     1     -41.397  55.400 -49.434  1.00  0.00     0.210 C 
ENDBRANCH  16  21
ENDBRANCH  14  15
ENDBRANCH  12  14
ENDBRANCH   1  12
BRANCH   3  23
HETATM   23  N   UNL     1     -43.451  56.407 -57.175  1.00  0.00    -0.220 N 
HETATM   24  H   UNL     1     -44.356  56.173 -57.553  1.00  0.00     0.178 HD
BRANCH  23  25
HETATM   25  C   UNL     1     -42.479  56.868 -58.161  1.00  0.00     0.099 C 
HETATM   26  C   UNL     1     -43.007  56.648 -59.580  1.00  0.00     0.026 C 
HETATM   27  C   UNL     1     -42.329  57.744 -60.382  1.00  0.00     0.002 C 
HETATM   28  C   UNL     1     -42.412  58.950 -59.460  1.00  0.00     0.002 C 
HETATM   29  C   UNL     1     -42.275  58.387 -58.046  1.00  0.00     0.026 C 
ENDBRANCH  23  25
ENDBRANCH   3  23
TORSDOF 6
ENDMDL
MODEL 7
REMARK VINA RESULT:      -7.9      2.426      5.300
REMARK  6 active torsions:
REMARK  status: ('A' for Active; 'I' for Inactive)
REMARK    1  A    between atoms: O_2  and  C_3 
REMARK    2  A    between atoms: C_4  and  C_5 
REMARK    3  A    between atoms: C_5  and  N_6 
REMARK    4  A    between atoms: N_6  and  C_7 
REMARK    5  A    between atoms: C_9  and  N_10 
REMARK    6  A    between atoms: N_10  and  C_11 
ROOT
HETATM    1  C   UNL     1     -43.146  55.709 -54.208  1.00  0.00     0.135 A 
HETATM    2  N   UNL     1     -43.267  56.307 -55.405  1.00  0.00    -0.052 NA
HETATM    3  C   UNL     1     -42.422  55.950 -56.387  1.00  0.00     0.702 A 
HETATM    4  N   UNL     1     -41.466  55.043 -56.199  1.00  0.00    -0.189 N 
HETATM    5  H   UNL     1     -40.886  54.805 -56.990  1.00  0.00     0.184 HD
HETATM    6  C   UNL     1     -41.306  54.419 -55.026  1.00  0.00     0.062 A 
HETATM    7  C   UNL     1     -42.172  54.721 -53.960  1.00  0.00     0.032 A 
HETATM    8  C   UNL     1     -40.295  53.453 -54.887  1.00  0.00     0.031 A 
HETATM    9  C   UNL     1     -40.143  52.762 -53.687  1.00  0.00     0.002 A 
HETATM   10  C   UNL     1     -41.008  53.020 -52.628  1.00  0.00     0.001 A 
HETATM   11  C   UNL     1     -42.016  53.977 -52.763  1.00  0.00     0.017 A 
ENDROOT
BRANCH   1  12
HETATM   12  N   UNL     1     -44.121  56.084 -53.297  1.00  0.00    -0.272 NA
HETATM   13  H   UNL     1     -45.023  55.918 -53.743  1.00  0.00     0.129 HD
BRANCH  12  14
HETATM   14  C   UNL     1     -44.098  57.453 -52.764  1.00  0.00     0.135 C 
BRANCH  14  15
HETATM   15  C   UNL     1     -42.763  57.785 -52.123  1.00  0.00    -0.012 A 
HETATM   16  C   UNL     1     -41.961  58.802 -52.683  1.00  0.00     0.075 A 
HETATM   17  C   UNL     1     -40.725  59.112 -52.104  1.00  0.00     0.037 A 
HETATM   18  C   UNL     1     -40.283  58.433 -50.967  1.00  0.00     0.003 A 
HETATM   19  C   UNL     1     -41.073  57.441 -50.398  1.00  0.00     0.001 A 
HETATM   20  C   UNL     1     -42.304  57.123 -50.969  1.00  0.00     0.011 A 
BRANCH  16  21
HETATM   21  O   UNL     1     -42.474  59.419 -53.796  1.00  0.00    -0.355 OA
HETATM   22  C   UNL     1     -42.640  60.833 -53.734  1.00  0.00     0.210 C 
ENDBRANCH  16  21
ENDBRANCH  14  15
ENDBRANCH  12  14
ENDBRANCH   1  12
BRANCH   3  23
HETATM   23  N   UNL     1     -42.541  56.477 -57.655  1.00  0.00    -0.220 N 
HETATM   24  H   UNL     1     -41.925  57.211 -57.969  1.00  0.00     0.178 HD
BRANCH  23  25
HETATM   25  C   UNL     1     -43.837  56.439 -58.325  1.00  0.00     0.099 C 
HETATM   26  C   UNL     1     -43.969  57.607 -59.304  1.00  0.00     0.026 C 
HETATM   27  C   UNL     1     -44.913  57.071 -60.366  1.00  0.00     0.002 C 
HETATM   28  C   UNL     1     -44.431  55.644 -60.570  1.00  0.00     0.002 C 
HETATM   29  C   UNL     1     -43.956  55.178 -59.195  1.00  0.00     0.026 C 
ENDBRANCH  23  25
ENDBRANCH   3  23
TORSDOF 6
ENDMDL
MODEL 8
REMARK VINA RESULT:      -7.7      2.131      5.231
REMARK  6 active torsions:
REMARK  status: ('A' for Active; 'I' for Inactive)
REMARK    1  A    between atoms: O_2  and  C_3 
REMARK    2  A    between atoms: C_4  and  C_5 
REMARK    3  A    between atoms: C_5  and  N_6 
REMARK    4  A    between atoms: N_6  and  C_7 
REMARK    5  A    between atoms: C_9  and  N_10 
REMARK    6  A    between atoms: N_10  and  C_11 
ROOT
HETATM    1  C   UNL     1     -42.971  56.161 -55.503  1.00  0.00     0.135 A 
HETATM    2  N   UNL     1     -42.750  57.031 -54.502  1.00  0.00    -0.052 NA
HETATM    3  C   UNL     1     -42.337  58.271 -54.813  1.00  0.00     0.702 A 
HETATM    4  N   UNL     1     -42.126  58.649 -56.072  1.00  0.00    -0.189 N 
HETATM    5  H   UNL     1     -41.844  59.605 -56.231  1.00  0.00     0.184 HD
HETATM    6  C   UNL     1     -42.334  57.820 -57.102  1.00  0.00     0.062 A 
HETATM    7  C   UNL     1     -42.793  56.514 -56.855  1.00  0.00     0.032 A 
HETATM    8  C   UNL     1     -42.117  58.276 -58.413  1.00  0.00     0.031 A 
HETATM    9  C   UNL     1     -42.370  57.441 -59.498  1.00  0.00     0.002 A 
HETATM   10  C   UNL     1     -42.856  56.156 -59.281  1.00  0.00     0.001 A 
HETATM   11  C   UNL     1     -43.076  55.699 -57.980  1.00  0.00     0.017 A 
ENDROOT
BRANCH   1  12
HETATM   12  N   UNL     1     -43.478  54.943 -55.078  1.00  0.00    -0.272 NA
HETATM   13  H   UNL     1     -44.466  54.927 -55.333  1.00  0.00     0.129 HD
BRANCH  12  14
HETATM   14  C   UNL     1     -43.347  54.580 -53.661  1.00  0.00     0.135 C 
BRANCH  14  15
HETATM   15  C   UNL     1     -42.125  53.714 -53.413  1.00  0.00    -0.012 A 
HETATM   16  C   UNL     1     -41.529  53.710 -52.134  1.00  0.00     0.075 A 
HETATM   17  C   UNL     1     -40.398  52.920 -51.896  1.00  0.00     0.037 A 
HETATM   18  C   UNL     1     -39.862  52.124 -52.909  1.00  0.00     0.003 A 
HETATM   19  C   UNL     1     -40.452  52.107 -54.168  1.00  0.00     0.001 A 
HETATM   20  C   UNL     1     -41.576  52.892 -54.415  1.00  0.00     0.011 A 
BRANCH  16  21
HETATM   21  O   UNL     1     -42.123  54.519 -51.198  1.00  0.00    -0.355 OA
HETATM   22  C   UNL     1     -41.316  55.542 -50.623  1.00  0.00     0.210 C 
ENDBRANCH  16  21
ENDBRANCH  14  15
ENDBRANCH  12  14
ENDBRANCH   1  12
BRANCH   3  23
HETATM   23  N   UNL     1     -42.160  59.227 -53.837  1.00  0.00    -0.220 N 
HETATM   24  H   UNL     1     -41.851  60.158 -54.074  1.00  0.00     0.178 HD
BRANCH  23  25
HETATM   25  C   UNL     1     -41.842  58.808 -52.475  1.00  0.00     0.099 C 
HETATM   26  C   UNL     1     -40.344  58.953 -52.205  1.00  0.00     0.026 C 
HETATM   27  C   UNL     1     -40.278  59.199 -50.708  1.00  0.00     0.002 C 
HETATM   28  C   UNL     1     -41.435  60.154 -50.463  1.00  0.00     0.002 C 
HETATM   29  C   UNL     1     -42.520  59.736 -51.455  1.00  0.00     0.026 C 
ENDBRANCH  23  25
ENDBRANCH   3  23
TORSDOF 6
ENDMDL
MODEL 9
REMARK VINA RESULT:      -7.6      2.583      7.491
REMARK  6 active torsions:
REMARK  status: ('A' for Active; 'I' for Inactive)
REMARK    1  A    between atoms: O_2  and  C_3 
REMARK    2  A    between atoms: C_4  and  C_5 
REMARK    3  A    between atoms: C_5  and  N_6 
REMARK    4  A    between atoms: N_6  and  C_7 
REMARK    5  A    between atoms: C_9  and  N_10 
REMARK    6  A    between atoms: N_10  and  C_11 
ROOT
HETATM    1  C   UNL     1     -42.345  55.160 -55.463  1.00  0.00     0.135 A 
HETATM    2  N   UNL     1     -43.365  55.930 -55.045  1.00  0.00    -0.052 NA
HETATM    3  C   UNL     1     -43.720  55.872 -53.750  1.00  0.00     0.702 A 
HETATM    4  N   UNL     1     -43.106  55.066 -52.886  1.00  0.00    -0.189 N 
HETATM    5  H   UNL     1     -43.408  55.097 -51.923  1.00  0.00     0.184 HD
HETATM    6  C   UNL     1     -42.085  54.283 -53.254  1.00  0.00     0.062 A 
HETATM    7  C   UNL     1     -41.640  54.311 -54.587  1.00  0.00     0.032 A 
HETATM    8  C   UNL     1     -41.457  53.468 -52.297  1.00  0.00     0.031 A 
HETATM    9  C   UNL     1     -40.365  52.680 -52.654  1.00  0.00     0.002 A 
HETATM   10  C   UNL     1     -39.886  52.715 -53.959  1.00  0.00     0.001 A 
HETATM   11  C   UNL     1     -40.505  53.526 -54.912  1.00  0.00     0.017 A 
ENDROOT
BRANCH   1  12
HETATM   12  N   UNL     1     -42.005  55.363 -56.791  1.00  0.00    -0.272 NA
HETATM   13  H   UNL     1     -41.289  56.090 -56.807  1.00  0.00     0.129 HD
BRANCH  12  14
HETATM   14  C   UNL     1     -43.064  55.719 -57.744  1.00  0.00     0.135 C 
BRANCH  14  15
HETATM   15  C   UNL     1     -42.743  57.003 -58.489  1.00  0.00    -0.012 A 
HETATM   16  C   UNL     1     -42.924  57.055 -59.887  1.00  0.00     0.075 A 
HETATM   17  C   UNL     1     -42.624  58.230 -60.585  1.00  0.00     0.037 A 
HETATM   18  C   UNL     1     -42.161  59.359 -59.907  1.00  0.00     0.003 A 
HETATM   19  C   UNL     1     -41.995  59.325 -58.527  1.00  0.00     0.001 A 
HETATM   20  C   UNL     1     -42.288  58.157 -57.824  1.00  0.00     0.011 A 
BRANCH  16  21
HETATM   21  O   UNL     1     -43.386  55.901 -60.470  1.00  0.00    -0.355 OA
HETATM   22  C   UNL     1     -44.769  55.858 -60.811  1.00  0.00     0.210 C 
ENDBRANCH  16  21
ENDBRANCH  14  15
ENDBRANCH  12  14
ENDBRANCH   1  12
BRANCH   3  23
HETATM   23  N   UNL     1     -44.711  56.686 -53.247  1.00  0.00    -0.220 N 
HETATM   24  H   UNL     1     -45.616  56.733 -53.691  1.00  0.00     0.178 HD
BRANCH  23  25
HETATM   25  C   UNL     1     -44.341  57.877 -52.488  1.00  0.00     0.099 C 
HETATM   26  C   UNL     1     -44.928  59.131 -53.137  1.00  0.00     0.026 C 
HETATM   27  C   UNL     1     -45.105  60.083 -51.968  1.00  0.00     0.002 C 
HETATM   28  C   UNL     1     -45.640  59.184 -50.866  1.00  0.00     0.002 C 
HETATM   29  C   UNL     1     -44.959  57.833 -51.082  1.00  0.00     0.026 C 
ENDBRANCH  23  25
ENDBRANCH   3  23
TORSDOF 6
ENDMDL
MODEL 10
REMARK VINA RESULT:      -7.5      1.433      2.075
REMARK  6 active torsions:
REMARK  status: ('A' for Active; 'I' for Inactive)
REMARK    1  A    between atoms: O_2  and  C_3 
REMARK    2  A    between atoms: C_4  and  C_5 
REMARK    3  A    between atoms: C_5  and  N_6 
REMARK    4  A    between atoms: N_6  and  C_7 
REMARK    5  A    between atoms: C_9  and  N_10 
REMARK    6  A    between atoms: N_10  and  C_11 
ROOT
HETATM    1  C   UNL     1     -43.388  56.747 -53.447  1.00  0.00     0.135 A 
HETATM    2  N   UNL     1     -43.492  56.493 -54.763  1.00  0.00    -0.052 NA
HETATM    3  C   UNL     1     -44.241  57.317 -55.517  1.00  0.00     0.702 A 
HETATM    4  N   UNL     1     -44.889  58.355 -54.994  1.00  0.00    -0.189 N 
HETATM    5  H   UNL     1     -45.408  58.947 -55.625  1.00  0.00     0.184 HD
HETATM    6  C   UNL     1     -44.815  58.650 -53.690  1.00  0.00     0.062 A 
HETATM    7  C   UNL     1     -44.028  57.848 -52.845  1.00  0.00     0.032 A 
HETATM    8  C   UNL     1     -45.500  59.771 -53.193  1.00  0.00     0.031 A 
HETATM    9  C   UNL     1     -45.399  60.118 -51.848  1.00  0.00     0.002 A 
HETATM   10  C   UNL     1     -44.601  59.359 -50.998  1.00  0.00     0.001 A 
HETATM   11  C   UNL     1     -43.915  58.246 -51.489  1.00  0.00     0.017 A 
ENDROOT
BRANCH   1  12
HETATM   12  N   UNL     1     -42.524  55.891 -52.783  1.00  0.00    -0.272 NA
HETATM   13  H   UNL     1     -41.634  55.922 -53.280  1.00  0.00     0.129 HD
BRANCH  12  14
HETATM   14  C   UNL     1     -42.920  54.487 -52.606  1.00  0.00     0.135 C 
BRANCH  14  15
HETATM   15  C   UNL     1     -41.759  53.540 -52.850  1.00  0.00    -0.012 A 
HETATM   16  C   UNL     1     -40.873  53.245 -51.793  1.00  0.00     0.075 A 
HETATM   17  C   UNL     1     -39.795  52.379 -52.008  1.00  0.00     0.037 A 
HETATM   18  C   UNL     1     -39.596  51.791 -53.259  1.00  0.00     0.003 A 
HETATM   19  C   UNL     1     -40.473  52.062 -54.303  1.00  0.00     0.001 A 
HETATM   20  C   UNL     1     -41.547  52.926 -54.099  1.00  0.00     0.011 A 
BRANCH  16  21
HETATM   21  O   UNL     1     -41.146  53.864 -50.598  1.00  0.00    -0.355 OA
HETATM   22  C   UNL     1     -40.036  54.159 -49.755  1.00  0.00     0.210 C 
ENDBRANCH  16  21
ENDBRANCH  14  15
ENDBRANCH  12  14
ENDBRANCH   1  12
BRANCH   3  23
HETATM   23  N   UNL     1     -44.330  57.149 -56.881  1.00  0.00    -0.220 N 
HETATM   24  H   UNL     1     -45.213  56.933 -57.319  1.00  0.00     0.178 HD
BRANCH  23  25
HETATM   25  C   UNL     1     -43.156  56.702 -57.624  1.00  0.00     0.099 C 
HETATM   26  C   UNL     1     -43.573  55.864 -58.834  1.00  0.00     0.026 C 
HETATM   27  C   UNL     1     -42.448  56.095 -59.827  1.00  0.00     0.002 C 
HETATM   28  C   UNL     1     -42.165  57.582 -59.691  1.00  0.00     0.002 C 
HETATM   29  C   UNL     1     -42.404  57.904 -58.216  1.00  0.00     0.026 C 
ENDBRANCH  23  25
ENDBRANCH   3  23
TORSDOF 6
ENDMDL
