MODEL 1
REMARK VINA RESULT:      -8.5      0.000      0.000
REMARK  7 active torsions:
REMARK  status: ('A' for Active; 'I' for Inactive)
REMARK    1  A    between atoms: C_5  and  C_6 
REMARK       I    between atoms: C_6  and  N_7 
REMARK    2  A    between atoms: N_7  and  C_8 
REMARK    3  A    between atoms: C_8  and  C_9 
REMARK    4  A    between atoms: C_9  and  C_10 
REMARK    5  A    between atoms: N_15  and  C_17 
REMARK    6  A    between atoms: C_17  and  C_18 
REMARK    7  A    between atoms: C_21  and  C_22 
ROOT
HETATM    1  C   UNL     1     -44.179  61.365 -53.422  1.00  0.00     0.131 A 
HETATM    2  N   UNL     1     -43.733  60.290 -52.688  1.00  0.00    -0.319 N 
HETATM    3  C   UNL     1     -44.826  59.480 -52.509  1.00  0.00     0.131 A 
HETATM    4  C   UNL     1     -44.828  58.120 -51.906  1.00  0.00     0.108 C 
HETATM    5  C   UNL     1     -43.788  57.232 -52.578  1.00  0.00     0.243 C 
HETATM    6  N   UNL     1     -42.355  57.504 -52.108  1.00  0.00    -0.065 N 
HETATM    7  H   UNL     1     -42.187  56.792 -51.383  1.00  0.00     0.280 HD
HETATM    8  C   UNL     1     -42.094  58.833 -51.421  1.00  0.00     0.255 C 
HETATM    9  C   UNL     1     -42.363  60.057 -52.295  1.00  0.00     0.159 C 
HETATM   10  N   UNL     1     -45.874  60.060 -53.045  1.00  0.00    -0.135 NA
HETATM   11  N   UNL     1     -45.471  61.235 -53.615  1.00  0.00    -0.135 NA
ENDROOT
BRANCH   1  12
HETATM   12  C   UNL     1     -43.330  62.448 -53.992  1.00  0.00     0.100 C 
BRANCH  12  13
HETATM   13  C   UNL     1     -43.148  62.230 -55.496  1.00  0.00     0.130 C 
BRANCH  13  14
HETATM   14  N   UNL     1     -43.096  60.826 -55.872  1.00  0.00    -0.360 N 
HETATM   15  C   UNL     1     -42.149  60.340 -56.741  1.00  0.00     0.223 C 
HETATM   16  O   UNL     1     -41.338  61.063 -57.314  1.00  0.00    -0.273 OA
HETATM   17  H   UNL     1     -43.710  60.195 -55.367  1.00  0.00     0.162 HD
BRANCH  15  18
HETATM   18  C   UNL     1     -42.148  58.824 -56.902  1.00  0.00     0.103 C 
HETATM   19  C   UNL     1     -42.191  58.483 -58.392  1.00  0.00     0.248 C 
HETATM   20  N   UNL     1     -42.222  56.979 -58.589  1.00  0.00    -0.074 N 
HETATM   21  C   UNL     1     -42.168  56.610 -60.051  1.00  0.00     0.269 C 
HETATM   22  H   UNL     1     -41.370  56.584 -58.168  1.00  0.00     0.279 HD
HETATM   23  C   UNL     1     -43.404  56.334 -57.905  1.00  0.00     0.234 C 
HETATM   24  C   UNL     1     -43.362  56.662 -56.420  1.00  0.00     0.029 C 
HETATM   25  C   UNL     1     -43.319  58.167 -56.163  1.00  0.00     0.017 C 
ENDBRANCH  15  18
ENDBRANCH  13  14
ENDBRANCH  12  13
ENDBRANCH   1  12
BRANCH   6  26
HETATM   26  C   UNL     1     -41.327  57.189 -53.185  1.00  0.00     0.273 C 
BRANCH  26  27
HETATM   27  C   UNL     1     -40.988  55.729 -53.282  1.00  0.00    -0.033 A 
HETATM   28  C   UNL     1     -41.020  54.914 -52.144  1.00  0.00     0.010 A 
HETATM   29  C   UNL     1     -40.696  53.557 -52.234  1.00  0.00     0.015 A 
HETATM   30  C   UNL     1     -40.336  52.977 -53.459  1.00  0.00    -0.002 A 
HETATM   31  C   UNL     1     -40.307  53.798 -54.594  1.00  0.00     0.015 A 
HETATM   32  C   UNL     1     -40.625  55.158 -54.510  1.00  0.00     0.010 A 
BRANCH  30  33
HETATM   33  C   UNL     1     -40.012  51.556 -53.553  1.00  0.00     0.085 A 
HETATM   34  O   UNL     1     -39.811  50.905 -52.367  1.00  0.00    -0.322 OA
HETATM   35  C   UNL     1     -39.521  49.610 -52.656  1.00  0.00     0.142 A 
HETATM   36  C   UNL     1     -39.532  49.410 -54.014  1.00  0.00     0.027 A 
HETATM   37  C   UNL     1     -39.846  50.663 -54.596  1.00  0.00     0.040 A 
ENDBRANCH  30  33
ENDBRANCH  26  27
ENDBRANCH   6  26
TORSDOF 7
ENDMDL
MODEL 2
REMARK VINA RESULT:      -8.4      2.115      2.848
REMARK  7 active torsions:
REMARK  status: ('A' for Active; 'I' for Inactive)
REMARK    1  A    between atoms: C_5  and  C_6 
REMARK       I    between atoms: C_6  and  N_7 
REMARK    2  A    between atoms: N_7  and  C_8 
REMARK    3  A    between atoms: C_8  and  C_9 
REMARK    4  A    between atoms: C_9  and  C_10 
REMARK    5  A    between atoms: N_15  and  C_17 
REMARK    6  A    between atoms: C_17  and  C_18 
REMARK    7  A    between atoms: C_21  and  C_22 
ROOT
HETATM    1  C   UNL     1     -43.202  58.076 -55.014  1.00  0.00     0.131 A 
HETATM    2  N   UNL     1     -43.278  58.204 -53.646  1.00  0.00    -0.319 N 
HETATM    3  C   UNL     1     -44.337  57.424 -53.254  1.00  0.00     0.131 A 
HETATM    4  C   UNL     1     -44.734  57.111 -51.856  1.00  0.00     0.108 C 
HETATM    5  C   UNL     1     -43.545  56.582 -51.064  1.00  0.00     0.243 C 
HETATM    6  N   UNL     1     -42.576  57.679 -50.608  1.00  0.00    -0.065 N 
HETATM    7  H   UNL     1     -42.862  57.881 -49.639  1.00  0.00     0.280 HD
HETATM    8  C   UNL     1     -42.655  59.013 -51.328  1.00  0.00     0.255 C 
HETATM    9  C   UNL     1     -42.347  58.941 -52.823  1.00  0.00     0.159 C 
HETATM   10  N   UNL     1     -44.901  56.911 -54.324  1.00  0.00    -0.135 NA
HETATM   11  N   UNL     1     -44.194  57.317 -55.420  1.00  0.00    -0.135 NA
ENDROOT
BRANCH   1  12
HETATM   12  C   UNL     1     -42.124  58.620 -55.886  1.00  0.00     0.100 C 
BRANCH  12  13
HETATM   13  C   UNL     1     -42.738  59.459 -57.010  1.00  0.00     0.130 C 
BRANCH  13  14
HETATM   14  N   UNL     1     -43.411  58.661 -58.022  1.00  0.00    -0.360 N 
HETATM   15  C   UNL     1     -42.727  58.076 -59.061  1.00  0.00     0.223 C 
HETATM   16  O   UNL     1     -41.525  58.249 -59.248  1.00  0.00    -0.273 OA
HETATM   17  H   UNL     1     -44.390  58.447 -57.859  1.00  0.00     0.162 HD
BRANCH  15  18
HETATM   18  C   UNL     1     -43.565  57.153 -59.938  1.00  0.00     0.103 C 
HETATM   19  C   UNL     1     -45.005  57.670 -59.968  1.00  0.00     0.248 C 
HETATM   20  N   UNL     1     -45.875  56.756 -60.810  1.00  0.00    -0.074 N 
HETATM   21  C   UNL     1     -47.280  57.292 -60.937  1.00  0.00     0.269 C 
HETATM   22  H   UNL     1     -45.493  56.742 -61.766  1.00  0.00     0.279 HD
HETATM   23  C   UNL     1     -45.875  55.334 -60.303  1.00  0.00     0.234 C 
HETATM   24  C   UNL     1     -44.447  54.811 -60.279  1.00  0.00     0.029 C 
HETATM   25  C   UNL     1     -43.521  55.701 -59.452  1.00  0.00     0.017 C 
ENDBRANCH  15  18
ENDBRANCH  13  14
ENDBRANCH  12  13
ENDBRANCH   1  12
BRANCH   6  26
HETATM   26  C   UNL     1     -41.149  57.167 -50.476  1.00  0.00     0.273 C 
BRANCH  26  27
HETATM   27  C   UNL     1     -40.924  55.839 -51.141  1.00  0.00    -0.033 A 
HETATM   28  C   UNL     1     -40.643  54.700 -50.377  1.00  0.00     0.010 A 
HETATM   29  C   UNL     1     -40.425  53.466 -50.997  1.00  0.00     0.015 A 
HETATM   30  C   UNL     1     -40.486  53.335 -52.391  1.00  0.00    -0.002 A 
HETATM   31  C   UNL     1     -40.769  54.478 -53.150  1.00  0.00     0.015 A 
HETATM   32  C   UNL     1     -40.981  55.718 -52.536  1.00  0.00     0.010 A 
BRANCH  30  33
HETATM   33  C   UNL     1     -40.272  52.041 -53.036  1.00  0.00     0.085 A 
HETATM   34  O   UNL     1     -39.718  51.064 -52.255  1.00  0.00    -0.322 OA
HETATM   35  C   UNL     1     -39.597  49.950 -53.022  1.00  0.00     0.142 A 
HETATM   36  C   UNL     1     -40.064  50.188 -54.290  1.00  0.00     0.027 A 
HETATM   37  C   UNL     1     -40.498  51.537 -54.303  1.00  0.00     0.040 A 
ENDBRANCH  30  33
ENDBRANCH  26  27
ENDBRANCH   6  26
TORSDOF 7
ENDMDL
MODEL 3
REMARK VINA RESULT:      -8.2      2.176      3.032
REMARK  7 active torsions:
REMARK  status: ('A' for Active; 'I' for Inactive)
REMARK    1  A    between atoms: C_5  and  C_6 
REMARK       I    between atoms: C_6  and  N_7 
REMARK    2  A    between atoms: N_7  and  C_8 
REMARK    3  A    between atoms: C_8  and  C_9 
REMARK    4  A    between atoms: C_9  and  C_10 
REMARK    5  A    between atoms: N_15  and  C_17 
REMARK    6  A    between atoms: C_17  and  C_18 
REMARK    7  A    between atoms: C_21  and  C_22 
ROOT
HETATM    1  C   UNL     1     -43.704  60.575 -56.959  1.00  0.00     0.131 A 
HETATM    2  N   UNL     1     -43.535  59.761 -55.861  1.00  0.00    -0.319 N 
HETATM    3  C   UNL     1     -44.733  59.116 -55.686  1.00  0.00     0.131 A 
HETATM    4  C   UNL     1     -45.012  58.018 -54.722  1.00  0.00     0.108 C 
HETATM    5  C   UNL     1     -43.983  56.903 -54.863  1.00  0.00     0.243 C 
HETATM    6  N   UNL     1     -42.637  57.224 -54.202  1.00  0.00    -0.065 N 
HETATM    7  H   UNL     1     -42.694  56.768 -53.280  1.00  0.00     0.280 HD
HETATM    8  C   UNL     1     -42.346  58.684 -53.902  1.00  0.00     0.255 C 
HETATM    9  C   UNL     1     -42.299  59.584 -55.136  1.00  0.00     0.159 C 
HETATM   10  N   UNL     1     -45.586  59.559 -56.580  1.00  0.00    -0.135 NA
HETATM   11  N   UNL     1     -44.945  60.467 -57.374  1.00  0.00    -0.135 NA
ENDROOT
BRANCH   1  12
HETATM   12  C   UNL     1     -42.639  61.370 -57.631  1.00  0.00     0.100 C 
BRANCH  12  13
HETATM   13  C   UNL     1     -41.743  60.445 -58.459  1.00  0.00     0.130 C 
BRANCH  13  14
HETATM   14  N   UNL     1     -42.488  59.553 -59.333  1.00  0.00    -0.360 N 
HETATM   15  C   UNL     1     -42.589  58.206 -59.082  1.00  0.00     0.223 C 
HETATM   16  O   UNL     1     -41.999  57.654 -58.156  1.00  0.00    -0.273 OA
HETATM   17  H   UNL     1     -43.038  59.987 -60.067  1.00  0.00     0.162 HD
BRANCH  15  18
HETATM   18  C   UNL     1     -43.531  57.452 -60.015  1.00  0.00     0.103 C 
HETATM   19  C   UNL     1     -44.930  58.059 -59.904  1.00  0.00     0.248 C 
HETATM   20  N   UNL     1     -45.901  57.311 -60.798  1.00  0.00    -0.074 N 
HETATM   21  C   UNL     1     -47.269  57.946 -60.783  1.00  0.00     0.269 C 
HETATM   22  H   UNL     1     -45.566  57.389 -61.769  1.00  0.00     0.279 HD
HETATM   23  C   UNL     1     -45.976  55.841 -60.463  1.00  0.00     0.234 C 
HETATM   24  C   UNL     1     -44.588  55.229 -60.581  1.00  0.00     0.029 C 
HETATM   25  C   UNL     1     -43.565  55.951 -59.707  1.00  0.00     0.017 C 
ENDBRANCH  15  18
ENDBRANCH  13  14
ENDBRANCH  12  13
ENDBRANCH   1  12
BRANCH   6  26
HETATM   26  C   UNL     1     -41.476  56.525 -54.894  1.00  0.00     0.273 C 
BRANCH  26  27
HETATM   27  C   UNL     1     -41.090  55.224 -54.250  1.00  0.00    -0.033 A 
HETATM   28  C   UNL     1     -41.233  55.044 -52.868  1.00  0.00     0.010 A 
HETATM   29  C   UNL     1     -40.865  53.835 -52.269  1.00  0.00     0.015 A 
HETATM   30  C   UNL     1     -40.351  52.776 -53.030  1.00  0.00    -0.002 A 
HETATM   31  C   UNL     1     -40.211  52.962 -54.411  1.00  0.00     0.015 A 
HETATM   32  C   UNL     1     -40.571  54.171 -55.017  1.00  0.00     0.010 A 
BRANCH  30  33
HETATM   33  C   UNL     1     -39.980  51.509 -52.403  1.00  0.00     0.085 A 
HETATM   34  O   UNL     1     -39.772  50.456 -53.252  1.00  0.00    -0.322 OA
HETATM   35  C   UNL     1     -39.443  49.379 -52.494  1.00  0.00     0.142 A 
HETATM   36  C   UNL     1     -39.434  49.717 -51.163  1.00  0.00     0.027 A 
HETATM   37  C   UNL     1     -39.782  51.089 -51.101  1.00  0.00     0.040 A 
ENDBRANCH  30  33
ENDBRANCH  26  27
ENDBRANCH   6  26
TORSDOF 7
ENDMDL
MODEL 4
REMARK VINA RESULT:      -8.2      1.656      1.848
REMARK  7 active torsions:
REMARK  status: ('A' for Active; 'I' for Inactive)
REMARK    1  A    between atoms: C_5  and  C_6 
REMARK       I    between atoms: C_6  and  N_7 
REMARK    2  A    between atoms: N_7  and  C_8 
REMARK    3  A    between atoms: C_8  and  C_9 
REMARK    4  A    between atoms: C_9  and  C_10 
REMARK    5  A    between atoms: N_15  and  C_17 
REMARK    6  A    between atoms: C_17  and  C_18 
REMARK    7  A    between atoms: C_21  and  C_22 
ROOT
HETATM    1  C   UNL     1     -44.079  61.288 -54.985  1.00  0.00     0.131 A 
HETATM    2  N   UNL     1     -43.530  60.401 -54.088  1.00  0.00    -0.319 N 
HETATM    3  C   UNL     1     -44.589  59.731 -53.528  1.00  0.00     0.131 A 
HETATM    4  C   UNL     1     -44.509  58.565 -52.608  1.00  0.00     0.108 C 
HETATM    5  C   UNL     1     -43.623  57.475 -53.197  1.00  0.00     0.243 C 
HETATM    6  N   UNL     1     -42.124  57.763 -53.059  1.00  0.00    -0.065 N 
HETATM    7  H   UNL     1     -41.843  57.243 -52.215  1.00  0.00     0.280 HD
HETATM    8  C   UNL     1     -41.719  59.201 -52.786  1.00  0.00     0.255 C 
HETATM    9  C   UNL     1     -42.116  60.186 -53.885  1.00  0.00     0.159 C 
HETATM   10  N   UNL     1     -45.704  60.227 -54.011  1.00  0.00    -0.135 NA
HETATM   11  N   UNL     1     -45.387  61.196 -54.919  1.00  0.00    -0.135 NA
ENDROOT
BRANCH   1  12
HETATM   12  C   UNL     1     -43.325  62.141 -55.946  1.00  0.00     0.100 C 
BRANCH  12  13
HETATM   13  C   UNL     1     -42.818  61.287 -57.112  1.00  0.00     0.130 C 
BRANCH  13  14
HETATM   14  N   UNL     1     -43.744  60.236 -57.501  1.00  0.00    -0.360 N 
HETATM   15  C   UNL     1     -43.349  58.924 -57.613  1.00  0.00     0.223 C 
HETATM   16  O   UNL     1     -42.184  58.564 -57.470  1.00  0.00    -0.273 OA
HETATM   17  H   UNL     1     -44.724  60.490 -57.564  1.00  0.00     0.162 HD
BRANCH  15  18
HETATM   18  C   UNL     1     -44.481  57.938 -57.883  1.00  0.00     0.103 C 
HETATM   19  C   UNL     1     -43.992  56.879 -58.872  1.00  0.00     0.248 C 
HETATM   20  N   UNL     1     -45.105  55.897 -59.186  1.00  0.00    -0.074 N 
HETATM   21  C   UNL     1     -44.626  54.785 -60.086  1.00  0.00     0.269 C 
HETATM   22  H   UNL     1     -45.389  55.444 -58.306  1.00  0.00     0.279 HD
HETATM   23  C   UNL     1     -46.327  56.577 -59.759  1.00  0.00     0.234 C 
HETATM   24  C   UNL     1     -46.824  57.625 -58.775  1.00  0.00     0.029 C 
HETATM   25  C   UNL     1     -45.737  58.637 -58.414  1.00  0.00     0.017 C 
ENDBRANCH  15  18
ENDBRANCH  13  14
ENDBRANCH  12  13
ENDBRANCH   1  12
BRANCH   6  26
HETATM   26  C   UNL     1     -41.310  57.127 -54.177  1.00  0.00     0.273 C 
BRANCH  26  27
HETATM   27  C   UNL     1     -40.967  55.687 -53.925  1.00  0.00    -0.033 A 
HETATM   28  C   UNL     1     -41.035  55.155 -52.631  1.00  0.00     0.010 A 
HETATM   29  C   UNL     1     -40.706  53.817 -52.396  1.00  0.00     0.015 A 
HETATM   30  C   UNL     1     -40.307  52.974 -53.443  1.00  0.00    -0.002 A 
HETATM   31  C   UNL     1     -40.242  53.511 -54.735  1.00  0.00     0.015 A 
HETATM   32  C   UNL     1     -40.564  54.852 -54.976  1.00  0.00     0.010 A 
BRANCH  30  33
HETATM   33  C   UNL     1     -39.978  51.572 -53.197  1.00  0.00     0.085 A 
HETATM   34  O   UNL     1     -39.777  51.221 -51.890  1.00  0.00    -0.322 OA
HETATM   35  C   UNL     1     -39.483  49.896 -51.864  1.00  0.00     0.142 A 
HETATM   36  C   UNL     1     -39.491  49.379 -53.135  1.00  0.00     0.027 A 
HETATM   37  C   UNL     1     -39.808  50.458 -53.998  1.00  0.00     0.040 A 
ENDBRANCH  30  33
ENDBRANCH  26  27
ENDBRANCH   6  26
TORSDOF 7
ENDMDL
MODEL 5
REMARK VINA RESULT:      -8.0      1.879      2.600
REMARK  7 active torsions:
REMARK  status: ('A' for Active; 'I' for Inactive)
REMARK    1  A    between atoms: C_5  and  C_6 
REMARK       I    between atoms: C_6  and  N_7 
REMARK    2  A    between atoms: N_7  and  C_8 
REMARK    3  A    between atoms: C_8  and  C_9 
REMARK    4  A    between atoms: C_9  and  C_10 
REMARK    5  A    between atoms: N_15  and  C_17 
REMARK    6  A    between atoms: C_17  and  C_18 
REMARK    7  A    between atoms: C_21  and  C_22 
ROOT
HETATM    1  C   UNL     1     -43.701  61.446 -52.021  1.00  0.00     0.131 A 
HETATM    2  N   UNL     1     -42.624  60.606 -52.182  1.00  0.00    -0.319 N 
HETATM    3  C   UNL     1     -42.239  60.241 -50.917  1.00  0.00     0.131 A 
HETATM    4  C   UNL     1     -41.212  59.225 -50.564  1.00  0.00     0.108 C 
HETATM    5  C   UNL     1     -41.487  57.910 -51.284  1.00  0.00     0.243 C 
HETATM    6  N   UNL     1     -41.061  57.917 -52.757  1.00  0.00    -0.065 N 
HETATM    7  H   UNL     1     -40.129  57.478 -52.752  1.00  0.00     0.280 HD
HETATM    8  C   UNL     1     -40.852  59.273 -53.408  1.00  0.00     0.255 C 
HETATM    9  C   UNL     1     -42.103  60.151 -53.451  1.00  0.00     0.159 C 
HETATM   10  N   UNL     1     -42.996  60.871 -50.048  1.00  0.00    -0.135 NA
HETATM   11  N   UNL     1     -43.907  61.621 -50.736  1.00  0.00    -0.135 NA
ENDROOT
BRANCH   1  12
HETATM   12  C   UNL     1     -44.559  61.990 -53.110  1.00  0.00     0.100 C 
BRANCH  12  13
HETATM   13  C   UNL     1     -45.721  61.033 -53.385  1.00  0.00     0.130 C 
BRANCH  13  14
HETATM   14  N   UNL     1     -45.618  60.355 -54.667  1.00  0.00    -0.360 N 
HETATM   15  C   UNL     1     -45.338  59.013 -54.761  1.00  0.00     0.223 C 
HETATM   16  O   UNL     1     -45.080  58.317 -53.782  1.00  0.00    -0.273 OA
HETATM   17  H   UNL     1     -45.889  60.887 -55.488  1.00  0.00     0.162 HD
BRANCH  15  18
HETATM   18  C   UNL     1     -45.419  58.440 -56.171  1.00  0.00     0.103 C 
HETATM   19  C   UNL     1     -44.243  57.486 -56.388  1.00  0.00     0.248 C 
HETATM   20  N   UNL     1     -44.276  56.920 -57.795  1.00  0.00    -0.074 N 
HETATM   21  C   UNL     1     -43.183  55.902 -58.009  1.00  0.00     0.269 C 
HETATM   22  H   UNL     1     -45.162  56.410 -57.914  1.00  0.00     0.279 HD
HETATM   23  C   UNL     1     -44.232  58.000 -58.850  1.00  0.00     0.234 C 
HETATM   24  C   UNL     1     -45.405  58.947 -58.646  1.00  0.00     0.029 C 
HETATM   25  C   UNL     1     -45.427  59.540 -57.238  1.00  0.00     0.017 C 
ENDBRANCH  15  18
ENDBRANCH  13  14
ENDBRANCH  12  13
ENDBRANCH   1  12
BRANCH   6  26
HETATM   26  C   UNL     1     -41.911  56.983 -53.605  1.00  0.00     0.273 C 
BRANCH  26  27
HETATM   27  C   UNL     1     -41.437  55.559 -53.587  1.00  0.00    -0.033 A 
HETATM   28  C   UNL     1     -40.605  55.072 -54.604  1.00  0.00     0.010 A 
HETATM   29  C   UNL     1     -40.171  53.743 -54.591  1.00  0.00     0.015 A 
HETATM   30  C   UNL     1     -40.551  52.867 -53.565  1.00  0.00    -0.002 A 
HETATM   31  C   UNL     1     -41.383  53.359 -52.550  1.00  0.00     0.015 A 
HETATM   32  C   UNL     1     -41.826  54.687 -52.561  1.00  0.00     0.010 A 
BRANCH  30  33
HETATM   33  C   UNL     1     -40.086  51.482 -53.545  1.00  0.00     0.085 A 
HETATM   34  O   UNL     1     -39.810  50.958 -52.312  1.00  0.00    -0.322 OA
HETATM   35  C   UNL     1     -39.394  49.679 -52.497  1.00  0.00     0.142 A 
HETATM   36  C   UNL     1     -39.396  49.363 -53.833  1.00  0.00     0.027 A 
HETATM   37  C   UNL     1     -39.840  50.525 -54.512  1.00  0.00     0.040 A 
ENDBRANCH  30  33
ENDBRANCH  26  27
ENDBRANCH   6  26
TORSDOF 7
ENDMDL
MODEL 6
REMARK VINA RESULT:      -8.0      3.579      7.287
REMARK  7 active torsions:
REMARK  status: ('A' for Active; 'I' for Inactive)
REMARK    1  A    between atoms: C_5  and  C_6 
REMARK       I    between atoms: C_6  and  N_7 
REMARK    2  A    between atoms: N_7  and  C_8 
REMARK    3  A    between atoms: C_8  and  C_9 
REMARK    4  A    between atoms: C_9  and  C_10 
REMARK    5  A    between atoms: N_15  and  C_17 
REMARK    6  A    between atoms: C_17  and  C_18 
REMARK    7  A    between atoms: C_21  and  C_22 
ROOT
HETATM    1  C   UNL     1     -43.119  58.235 -51.327  1.00  0.00     0.131 A 
HETATM    2  N   UNL     1     -42.699  56.990 -50.917  1.00  0.00    -0.319 N 
HETATM    3  C   UNL     1     -43.836  56.235 -50.784  1.00  0.00     0.131 A 
HETATM    4  C   UNL     1     -43.900  54.776 -50.507  1.00  0.00     0.108 C 
HETATM    5  C   UNL     1     -43.030  54.002 -51.490  1.00  0.00     0.243 C 
HETATM    6  N   UNL     1     -41.534  54.061 -51.161  1.00  0.00    -0.065 N 
HETATM    7  H   UNL     1     -41.355  53.190 -50.641  1.00  0.00     0.280 HD
HETATM    8  C   UNL     1     -41.074  55.172 -50.233  1.00  0.00     0.255 C 
HETATM    9  C   UNL     1     -41.321  56.582 -50.767  1.00  0.00     0.159 C 
HETATM   10  N   UNL     1     -44.878  56.994 -51.036  1.00  0.00    -0.135 NA
HETATM   11  N   UNL     1     -44.432  58.240 -51.375  1.00  0.00    -0.135 NA
ENDROOT
BRANCH   1  12
HETATM   12  C   UNL     1     -42.240  59.363 -51.745  1.00  0.00     0.100 C 
BRANCH  12  13
HETATM   13  C   UNL     1     -42.041  60.328 -50.573  1.00  0.00     0.130 C 
BRANCH  13  14
HETATM   14  N   UNL     1     -43.192  60.405 -49.688  1.00  0.00    -0.360 N 
HETATM   15  C   UNL     1     -43.903  61.568 -49.517  1.00  0.00     0.223 C 
HETATM   16  O   UNL     1     -43.573  62.632 -50.035  1.00  0.00    -0.273 OA
HETATM   17  H   UNL     1     -43.527  59.530 -49.298  1.00  0.00     0.162 HD
BRANCH  15  18
HETATM   18  C   UNL     1     -45.165  61.427 -48.673  1.00  0.00     0.103 C 
HETATM   19  C   UNL     1     -46.016  62.688 -48.838  1.00  0.00     0.248 C 
HETATM   20  N   UNL     1     -47.267  62.594 -47.986  1.00  0.00    -0.074 N 
HETATM   21  C   UNL     1     -48.174  63.781 -48.200  1.00  0.00     0.269 C 
HETATM   22  H   UNL     1     -47.804  61.772 -48.296  1.00  0.00     0.279 HD
HETATM   23  C   UNL     1     -46.953  62.402 -46.521  1.00  0.00     0.234 C 
HETATM   24  C   UNL     1     -46.115  61.144 -46.350  1.00  0.00     0.029 C 
HETATM   25  C   UNL     1     -44.844  61.180 -47.195  1.00  0.00     0.017 C 
ENDBRANCH  15  18
ENDBRANCH  13  14
ENDBRANCH  12  13
ENDBRANCH   1  12
BRANCH   6  26
HETATM   26  C   UNL     1     -40.666  53.940 -52.405  1.00  0.00     0.273 C 
BRANCH  26  27
HETATM   27  C   UNL     1     -41.312  54.492 -53.643  1.00  0.00    -0.033 A 
HETATM   28  C   UNL     1     -42.114  53.677 -54.451  1.00  0.00     0.010 A 
HETATM   29  C   UNL     1     -42.708  54.190 -55.608  1.00  0.00     0.015 A 
HETATM   30  C   UNL     1     -42.522  55.527 -55.987  1.00  0.00    -0.002 A 
HETATM   31  C   UNL     1     -41.719  56.338 -55.174  1.00  0.00     0.015 A 
HETATM   32  C   UNL     1     -41.116  55.829 -54.017  1.00  0.00     0.010 A 
BRANCH  30  33
HETATM   33  C   UNL     1     -43.154  56.065 -57.189  1.00  0.00     0.085 A 
HETATM   34  O   UNL     1     -43.832  57.244 -57.036  1.00  0.00    -0.322 OA
HETATM   35  C   UNL     1     -44.347  57.578 -58.247  1.00  0.00     0.142 A 
HETATM   36  C   UNL     1     -44.013  56.634 -59.186  1.00  0.00     0.027 A 
HETATM   37  C   UNL     1     -43.246  55.656 -58.506  1.00  0.00     0.040 A 
ENDBRANCH  30  33
ENDBRANCH  26  27
ENDBRANCH   6  26
TORSDOF 7
ENDMDL
MODEL 7
REMARK VINA RESULT:      -7.6      1.665      4.597
REMARK  7 active torsions:
REMARK  status: ('A' for Active; 'I' for Inactive)
REMARK    1  A    between atoms: C_5  and  C_6 
REMARK       I    between atoms: C_6  and  N_7 
REMARK    2  A    between atoms: N_7  and  C_8 
REMARK    3  A    between atoms: C_8  and  C_9 
REMARK    4  A    between atoms: C_9  and  C_10 
REMARK    5  A    between atoms: N_15  and  C_17 
REMARK    6  A    between atoms: C_17  and  C_18 
REMARK    7  A    between atoms: C_21  and  C_22 
ROOT
HETATM    1  C   UNL     1     -43.011  61.406 -56.576  1.00  0.00     0.131 A 
HETATM    2  N   UNL     1     -43.364  60.122 -56.924  1.00  0.00    -0.319 N 
HETATM    3  C   UNL     1     -42.327  59.641 -57.682  1.00  0.00     0.131 A 
HETATM    4  C   UNL     1     -42.164  58.246 -58.171  1.00  0.00     0.108 C 
HETATM    5  C   UNL     1     -42.306  57.253 -57.024  1.00  0.00     0.243 C 
HETATM    6  N   UNL     1     -43.759  57.001 -56.607  1.00  0.00    -0.065 N 
HETATM    7  H   UNL     1     -44.020  56.139 -57.108  1.00  0.00     0.280 HD
HETATM    8  C   UNL     1     -44.789  58.031 -57.038  1.00  0.00     0.255 C 
HETATM    9  C   UNL     1     -44.552  59.432 -56.475  1.00  0.00     0.159 C 
HETATM   10  N   UNL     1     -41.437  60.594 -57.832  1.00  0.00    -0.135 NA
HETATM   11  N   UNL     1     -41.863  61.694 -57.143  1.00  0.00    -0.135 NA
ENDROOT
BRANCH   1  12
HETATM   12  C   UNL     1     -43.751  62.293 -55.634  1.00  0.00     0.100 C 
BRANCH  12  13
HETATM   13  C   UNL     1     -43.029  62.335 -54.285  1.00  0.00     0.130 C 
BRANCH  13  14
HETATM   14  N   UNL     1     -43.446  61.280 -53.375  1.00  0.00    -0.360 N 
HETATM   15  C   UNL     1     -42.606  60.252 -53.020  1.00  0.00     0.223 C 
HETATM   16  O   UNL     1     -41.485  60.111 -53.502  1.00  0.00    -0.273 OA
HETATM   17  H   UNL     1     -44.340  61.404 -52.912  1.00  0.00     0.162 HD
BRANCH  15  18
HETATM   18  C   UNL     1     -43.155  59.323 -51.943  1.00  0.00     0.103 C 
HETATM   19  C   UNL     1     -42.094  58.274 -51.605  1.00  0.00     0.248 C 
HETATM   20  N   UNL     1     -42.619  57.312 -50.556  1.00  0.00    -0.074 N 
HETATM   21  C   UNL     1     -41.563  56.323 -50.132  1.00  0.00     0.269 C 
HETATM   22  H   UNL     1     -42.850  57.855 -49.712  1.00  0.00     0.279 HD
HETATM   23  C   UNL     1     -43.881  56.610 -50.999  1.00  0.00     0.234 C 
HETATM   24  C   UNL     1     -44.943  57.648 -51.328  1.00  0.00     0.029 C 
HETATM   25  C   UNL     1     -44.463  58.651 -52.375  1.00  0.00     0.017 C 
ENDBRANCH  15  18
ENDBRANCH  13  14
ENDBRANCH  12  13
ENDBRANCH   1  12
BRANCH   6  26
HETATM   26  C   UNL     1     -43.880  56.631 -55.136  1.00  0.00     0.273 C 
BRANCH  26  27
HETATM   27  C   UNL     1     -43.004  55.478 -54.734  1.00  0.00    -0.033 A 
HETATM   28  C   UNL     1     -43.259  54.188 -55.218  1.00  0.00     0.010 A 
HETATM   29  C   UNL     1     -42.449  53.115 -54.836  1.00  0.00     0.015 A 
HETATM   30  C   UNL     1     -41.364  53.299 -53.968  1.00  0.00    -0.002 A 
HETATM   31  C   UNL     1     -41.113  54.591 -53.489  1.00  0.00     0.015 A 
HETATM   32  C   UNL     1     -41.924  55.670 -53.862  1.00  0.00     0.010 A 
BRANCH  30  33
HETATM   33  C   UNL     1     -40.510  52.178 -53.582  1.00  0.00     0.085 A 
HETATM   34  O   UNL     1     -40.355  51.190 -54.515  1.00  0.00    -0.322 OA
HETATM   35  C   UNL     1     -39.540  50.246 -53.979  1.00  0.00     0.142 A 
HETATM   36  C   UNL     1     -39.162  50.606 -52.709  1.00  0.00     0.027 A 
HETATM   37  C   UNL     1     -39.787  51.851 -52.449  1.00  0.00     0.040 A 
ENDBRANCH  30  33
ENDBRANCH  26  27
ENDBRANCH   6  26
TORSDOF 7
ENDMDL
MODEL 8
REMARK VINA RESULT:      -7.4     16.921     19.077
REMARK  7 active torsions:
REMARK  status: ('A' for Active; 'I' for Inactive)
REMARK    1  A    between atoms: C_5  and  C_6 
REMARK       I    between atoms: C_6  and  N_7 
REMARK    2  A    between atoms: N_7  and  C_8 
REMARK    3  A    between atoms: C_8  and  C_9 
REMARK    4  A    between atoms: C_9  and  C_10 
REMARK    5  A    between atoms: N_15  and  C_17 
REMARK    6  A    between atoms: C_17  and  C_18 
REMARK    7  A    between atoms: C_21  and  C_22 
ROOT
HETATM    1  C   UNL     1     -36.370  41.692 -55.092  1.00  0.00     0.131 A 
HETATM    2  N   UNL     1     -36.412  41.464 -53.735  1.00  0.00    -0.319 N 
HETATM    3  C   UNL     1     -37.700  41.083 -53.459  1.00  0.00     0.131 A 
HETATM    4  C   UNL     1     -38.213  40.583 -52.156  1.00  0.00     0.108 C 
HETATM    5  C   UNL     1     -37.346  39.441 -51.638  1.00  0.00     0.243 C 
HETATM    6  N   UNL     1     -36.029  39.908 -51.010  1.00  0.00    -0.065 N 
HETATM    7  H   UNL     1     -36.227  39.936 -49.999  1.00  0.00     0.280 HD
HETATM    8  C   UNL     1     -35.557  41.310 -51.356  1.00  0.00     0.255 C 
HETATM    9  C   UNL     1     -35.278  41.531 -52.842  1.00  0.00     0.159 C 
HETATM   10  N   UNL     1     -38.403  41.138 -54.567  1.00  0.00    -0.135 NA
HETATM   11  N   UNL     1     -37.574  41.518 -55.584  1.00  0.00    -0.135 NA
ENDROOT
BRANCH   1  12
HETATM   12  C   UNL     1     -35.149  41.989 -55.893  1.00  0.00     0.100 C 
BRANCH  12  13
HETATM   13  C   UNL     1     -35.526  42.176 -57.365  1.00  0.00     0.130 C 
BRANCH  13  14
HETATM   14  N   UNL     1     -36.068  40.974 -57.978  1.00  0.00    -0.360 N 
HETATM   15  C   UNL     1     -36.927  41.028 -59.049  1.00  0.00     0.223 C 
HETATM   16  O   UNL     1     -37.353  42.085 -59.509  1.00  0.00    -0.273 OA
HETATM   17  H   UNL     1     -35.686  40.088 -57.663  1.00  0.00     0.162 HD
BRANCH  15  18
HETATM   18  C   UNL     1     -37.275  39.674 -59.657  1.00  0.00     0.103 C 
HETATM   19  C   UNL     1     -37.203  39.781 -61.181  1.00  0.00     0.248 C 
HETATM   20  N   UNL     1     -37.573  38.456 -61.821  1.00  0.00    -0.074 N 
HETATM   21  C   UNL     1     -37.419  38.502 -63.321  1.00  0.00     0.269 C 
HETATM   22  H   UNL     1     -36.905  37.745 -61.492  1.00  0.00     0.279 HD
HETATM   23  C   UNL     1     -38.956  37.993 -61.426  1.00  0.00     0.234 C 
HETATM   24  C   UNL     1     -39.031  37.876 -59.911  1.00  0.00     0.029 C 
HETATM   25  C   UNL     1     -38.657  39.182 -59.214  1.00  0.00     0.017 C 
ENDBRANCH  15  18
ENDBRANCH  13  14
ENDBRANCH  12  13
ENDBRANCH   1  12
BRANCH   6  26
HETATM   26  C   UNL     1     -34.926  38.868 -51.146  1.00  0.00     0.273 C 
BRANCH  26  27
HETATM   27  C   UNL     1     -33.832  39.018 -50.128  1.00  0.00    -0.033 A 
HETATM   28  C   UNL     1     -33.957  38.438 -48.859  1.00  0.00     0.010 A 
HETATM   29  C   UNL     1     -32.942  38.585 -47.909  1.00  0.00     0.015 A 
HETATM   30  C   UNL     1     -31.776  39.308 -48.199  1.00  0.00    -0.002 A 
HETATM   31  C   UNL     1     -31.657  39.884 -49.471  1.00  0.00     0.015 A 
HETATM   32  C   UNL     1     -32.672  39.747 -50.425  1.00  0.00     0.010 A 
BRANCH  30  33
HETATM   33  C   UNL     1     -30.711  39.448 -47.210  1.00  0.00     0.085 A 
HETATM   34  O   UNL     1     -29.445  39.603 -47.707  1.00  0.00    -0.322 OA
HETATM   35  C   UNL     1     -28.602  39.713 -46.648  1.00  0.00     0.142 A 
HETATM   36  C   UNL     1     -29.301  39.634 -45.470  1.00  0.00     0.027 A 
HETATM   37  C   UNL     1     -30.661  39.461 -45.829  1.00  0.00     0.040 A 
ENDBRANCH  30  33
ENDBRANCH  26  27
ENDBRANCH   6  26
TORSDOF 7
ENDMDL
MODEL 9
REMARK VINA RESULT:      -7.3      2.603      7.890
REMARK  7 active torsions:
REMARK  status: ('A' for Active; 'I' for Inactive)
REMARK    1  A    between atoms: C_5  and  C_6 
REMARK       I    between atoms: C_6  and  N_7 
REMARK    2  A    between atoms: N_7  and  C_8 
REMARK    3  A    between atoms: C_8  and  C_9 
REMARK    4  A    between atoms: C_9  and  C_10 
REMARK    5  A    between atoms: N_15  and  C_17 
REMARK    6  A    between atoms: C_17  and  C_18 
REMARK    7  A    between atoms: C_21  and  C_22 
ROOT
HETATM    1  C   UNL     1     -40.558  54.246 -50.792  1.00  0.00     0.131 A 
HETATM    2  N   UNL     1     -40.439  54.113 -52.157  1.00  0.00    -0.319 N 
HETATM    3  C   UNL     1     -40.258  52.773 -52.388  1.00  0.00     0.131 A 
HETATM    4  C   UNL     1     -40.228  52.102 -53.714  1.00  0.00     0.108 C 
HETATM    5  C   UNL     1     -41.455  52.478 -54.536  1.00  0.00     0.243 C 
HETATM    6  N   UNL     1     -41.363  53.871 -55.171  1.00  0.00    -0.065 N 
HETATM    7  H   UNL     1     -41.036  53.690 -56.131  1.00  0.00     0.280 HD
HETATM    8  C   UNL     1     -40.344  54.831 -54.583  1.00  0.00     0.255 C 
HETATM    9  C   UNL     1     -40.583  55.183 -53.115  1.00  0.00     0.159 C 
HETATM   10  N   UNL     1     -40.207  52.148 -51.234  1.00  0.00    -0.135 NA
HETATM   11  N   UNL     1     -40.394  53.066 -50.240  1.00  0.00    -0.135 NA
ENDROOT
BRANCH   1  12
HETATM   12  C   UNL     1     -40.911  55.495 -50.061  1.00  0.00     0.100 C 
BRANCH  12  13
HETATM   13  C   UNL     1     -42.423  55.726 -50.127  1.00  0.00     0.130 C 
BRANCH  13  14
HETATM   14  N   UNL     1     -42.785  57.012 -50.701  1.00  0.00    -0.360 N 
HETATM   15  C   UNL     1     -43.510  57.111 -51.865  1.00  0.00     0.223 C 
HETATM   16  O   UNL     1     -43.831  56.133 -52.535  1.00  0.00    -0.273 OA
HETATM   17  H   UNL     1     -42.590  57.834 -50.140  1.00  0.00     0.162 HD
BRANCH  15  18
HETATM   18  C   UNL     1     -43.928  58.529 -52.238  1.00  0.00     0.103 C 
HETATM   19  C   UNL     1     -44.716  59.136 -51.076  1.00  0.00     0.248 C 
HETATM   20  N   UNL     1     -45.174  60.539 -51.425  1.00  0.00    -0.074 N 
HETATM   21  C   UNL     1     -45.872  61.200 -50.263  1.00  0.00     0.269 C 
HETATM   22  H   UNL     1     -44.338  61.111 -51.612  1.00  0.00     0.279 HD
HETATM   23  C   UNL     1     -46.031  60.572 -52.669  1.00  0.00     0.234 C 
HETATM   24  C   UNL     1     -45.249  59.978 -53.831  1.00  0.00     0.029 C 
HETATM   25  C   UNL     1     -44.753  58.565 -53.529  1.00  0.00     0.017 C 
ENDBRANCH  15  18
ENDBRANCH  13  14
ENDBRANCH  12  13
ENDBRANCH   1  12
BRANCH   6  26
HETATM   26  C   UNL     1     -42.732  54.509 -55.356  1.00  0.00     0.273 C 
BRANCH  26  27
HETATM   27  C   UNL     1     -42.743  55.622 -56.365  1.00  0.00    -0.033 A 
HETATM   28  C   UNL     1     -42.969  55.352 -57.721  1.00  0.00     0.010 A 
HETATM   29  C   UNL     1     -42.970  56.388 -58.659  1.00  0.00     0.015 A 
HETATM   30  C   UNL     1     -42.750  57.717 -58.272  1.00  0.00    -0.002 A 
HETATM   31  C   UNL     1     -42.525  57.981 -56.915  1.00  0.00     0.015 A 
HETATM   32  C   UNL     1     -42.517  56.948 -55.970  1.00  0.00     0.010 A 
BRANCH  30  33
HETATM   33  C   UNL     1     -42.766  58.800 -59.253  1.00  0.00     0.085 A 
HETATM   34  O   UNL     1     -43.461  59.924 -58.898  1.00  0.00    -0.322 OA
HETATM   35  C   UNL     1     -43.363  60.805 -59.926  1.00  0.00     0.142 A 
HETATM   36  C   UNL     1     -42.614  60.272 -60.945  1.00  0.00     0.027 A 
HETATM   37  C   UNL     1     -42.228  58.977 -60.515  1.00  0.00     0.040 A 
ENDBRANCH  30  33
ENDBRANCH  26  27
ENDBRANCH   6  26
TORSDOF 7
ENDMDL
MODEL 10
REMARK VINA RESULT:      -7.1      3.673      8.673
REMARK  7 active torsions:
REMARK  status: ('A' for Active; 'I' for Inactive)
REMARK    1  A    between atoms: C_5  and  C_6 
REMARK       I    between atoms: C_6  and  N_7 
REMARK    2  A    between atoms: N_7  and  C_8 
REMARK    3  A    between atoms: C_8  and  C_9 
REMARK    4  A    between atoms: C_9  and  C_10 
REMARK    5  A    between atoms: N_15  and  C_17 
REMARK    6  A    between atoms: C_17  and  C_18 
REMARK    7  A    between atoms: C_21  and  C_22 
ROOT
HETATM    1  C   UNL     1     -42.414  57.882 -51.941  1.00  0.00     0.131 A 
HETATM    2  N   UNL     1     -42.799  58.737 -52.949  1.00  0.00    -0.319 N 
HETATM    3  C   UNL     1     -44.047  58.322 -53.337  1.00  0.00     0.131 A 
HETATM    4  C   UNL     1     -44.950  59.015 -54.293  1.00  0.00     0.108 C 
HETATM    5  C   UNL     1     -45.127  60.478 -53.904  1.00  0.00     0.243 C 
HETATM    6  N   UNL     1     -43.938  61.363 -54.292  1.00  0.00    -0.065 N 
HETATM    7  H   UNL     1     -44.219  61.786 -55.188  1.00  0.00     0.280 HD
HETATM    8  C   UNL     1     -42.622  60.663 -54.585  1.00  0.00     0.255 C 
HETATM    9  C   UNL     1     -42.046  59.884 -53.402  1.00  0.00     0.159 C 
HETATM   10  N   UNL     1     -44.367  57.249 -52.651  1.00  0.00    -0.135 NA
HETATM   11  N   UNL     1     -43.350  56.975 -51.781  1.00  0.00    -0.135 NA
ENDROOT
BRANCH   1  12
HETATM   12  C   UNL     1     -41.192  58.014 -51.100  1.00  0.00     0.100 C 
BRANCH  12  13
HETATM   13  C   UNL     1     -41.073  56.808 -50.164  1.00  0.00     0.130 C 
BRANCH  13  14
HETATM   14  N   UNL     1     -40.878  55.550 -50.868  1.00  0.00    -0.360 N 
HETATM   15  C   UNL     1     -41.278  54.348 -50.333  1.00  0.00     0.223 C 
HETATM   16  O   UNL     1     -41.750  54.246 -49.204  1.00  0.00    -0.273 OA
HETATM   17  H   UNL     1     -40.551  55.609 -51.826  1.00  0.00     0.162 HD
BRANCH  15  18
HETATM   18  C   UNL     1     -41.134  53.154 -51.270  1.00  0.00     0.103 C 
HETATM   19  C   UNL     1     -40.240  52.106 -50.605  1.00  0.00     0.248 C 
HETATM   20  N   UNL     1     -40.051  50.915 -51.525  1.00  0.00    -0.074 N 
HETATM   21  C   UNL     1     -39.252  49.822 -50.859  1.00  0.00     0.269 C 
HETATM   22  H   UNL     1     -40.978  50.508 -51.715  1.00  0.00     0.279 HD
HETATM   23  C   UNL     1     -39.447  51.303 -52.853  1.00  0.00     0.234 C 
HETATM   24  C   UNL     1     -40.337  52.339 -53.524  1.00  0.00     0.029 C 
HETATM   25  C   UNL     1     -40.570  53.560 -52.636  1.00  0.00     0.017 C 
ENDBRANCH  15  18
ENDBRANCH  13  14
ENDBRANCH  12  13
ENDBRANCH   1  12
BRANCH   6  26
HETATM   26  C   UNL     1     -43.774  62.550 -53.354  1.00  0.00     0.273 C 
BRANCH  26  27
HETATM   27  C   UNL     1     -44.194  62.260 -51.941  1.00  0.00    -0.033 A 
HETATM   28  C   UNL     1     -45.465  62.633 -51.486  1.00  0.00     0.010 A 
HETATM   29  C   UNL     1     -45.852  62.370 -50.169  1.00  0.00     0.015 A 
HETATM   30  C   UNL     1     -44.986  61.728 -49.273  1.00  0.00    -0.002 A 
HETATM   31  C   UNL     1     -43.716  61.357 -49.734  1.00  0.00     0.015 A 
HETATM   32  C   UNL     1     -43.320  61.622 -51.050  1.00  0.00     0.010 A 
BRANCH  30  33
HETATM   33  C   UNL     1     -45.397  61.442 -47.901  1.00  0.00     0.085 A 
HETATM   34  O   UNL     1     -46.742  61.496 -47.652  1.00  0.00    -0.322 OA
HETATM   35  C   UNL     1     -46.926  61.207 -46.339  1.00  0.00     0.142 A 
HETATM   36  C   UNL     1     -45.720  60.965 -45.729  1.00  0.00     0.027 A 
HETATM   37  C   UNL     1     -44.732  61.118 -46.733  1.00  0.00     0.040 A 
ENDBRANCH  30  33
ENDBRANCH  26  27
ENDBRANCH   6  26
TORSDOF 7
ENDMDL
