MODEL 1
REMARK VINA RESULT:      -8.9      0.000      0.000
REMARK  6 active torsions:
REMARK  status: ('A' for Active; 'I' for Inactive)
REMARK       I    between atoms: C_2  and  N_3 
REMARK    1  A    between atoms: N_3  and  C_4 
REMARK    2  A    between atoms: C_4  and  C_5 
REMARK    3  A    between atoms: C_4  and  C_11 
REMARK    4  A    between atoms: C_11  and  C_12 
REMARK       I    between atoms: C_12  and  N_13 
REMARK    5  A    between atoms: N_13  and  C_14 
REMARK    6  A    between atoms: C_16  and  C_17 
ROOT
HETATM    1  C   UNL     1     -41.615  54.603 -55.303  1.00  0.00     0.224 C 
HETATM    2  N   UNL     1     -41.558  55.820 -55.968  1.00  0.00    -0.327 N 
HETATM    3  O   UNL     1     -42.594  53.870 -55.225  1.00  0.00    -0.273 OA
HETATM    4  H   UNL     1     -40.688  56.336 -55.899  1.00  0.00     0.169 HD
ENDROOT
BRANCH   1   5
HETATM    5  C   UNL     1     -40.295  54.271 -54.627  1.00  0.00     0.133 C 
BRANCH   5   6
HETATM    6  C   UNL     1     -40.506  53.741 -53.200  1.00  0.00     0.126 C 
BRANCH   6   7
HETATM    7  N   UNL     1     -41.773  54.082 -52.559  1.00  0.00    -0.352 N 
HETATM    8  C   UNL     1     -41.933  54.756 -51.374  1.00  0.00     0.214 C 
HETATM    9  C   UNL     1     -43.375  54.933 -50.977  1.00  0.00     0.117 C 
HETATM   10  O   UNL     1     -41.017  55.205 -50.694  1.00  0.00    -0.274 OA
HETATM   11  H   UNL     1     -42.603  53.744 -53.025  1.00  0.00     0.163 HD
ENDBRANCH   6   7
BRANCH   6  12
HETATM   12  C   UNL     1     -40.201  52.253 -53.102  1.00  0.00    -0.035 A 
HETATM   13  C   UNL     1     -40.286  51.399 -54.211  1.00  0.00     0.009 A 
HETATM   14  C   UNL     1     -39.981  50.041 -54.092  1.00  0.00     0.001 A 
HETATM   15  C   UNL     1     -39.574  49.519 -52.867  1.00  0.00     0.000 A 
HETATM   16  C   UNL     1     -39.472  50.355 -51.758  1.00  0.00     0.001 A 
HETATM   17  C   UNL     1     -39.784  51.711 -51.873  1.00  0.00     0.009 A 
ENDBRANCH   6  12
ENDBRANCH   5   6
ENDBRANCH   1   5
BRANCH   2  18
HETATM   18  C   UNL     1     -42.605  56.468 -56.657  1.00  0.00     0.035 A 
HETATM   19  C   UNL     1     -43.167  55.996 -57.847  1.00  0.00     0.042 A 
HETATM   20  C   UNL     1     -44.217  56.685 -58.478  1.00  0.00    -0.021 A 
HETATM   21  C   UNL     1     -44.714  57.852 -57.888  1.00  0.00     0.012 A 
HETATM   22  C   UNL     1     -44.155  58.336 -56.705  1.00  0.00     0.003 A 
HETATM   23  C   UNL     1     -43.101  57.652 -56.099  1.00  0.00     0.029 A 
BRANCH  20  24
HETATM   24  C   UNL     1     -44.786  56.199 -59.724  1.00  0.00     0.010 A 
HETATM   25  C   UNL     1     -44.373  55.161 -60.593  1.00  0.00     0.152 A 
HETATM   26  N   UNL     1     -45.187  55.007 -61.640  1.00  0.00    -0.187 NA
HETATM   27  N   UNL     1     -46.126  55.948 -61.449  1.00  0.00    -0.289 N 
HETATM   28  H   UNL     1     -46.874  56.028 -62.129  1.00  0.00     0.188 HD
HETATM   29  C   UNL     1     -45.934  56.684 -60.316  1.00  0.00     0.123 A 
ENDBRANCH  20  24
ENDBRANCH   2  18
TORSDOF 6
ENDMDL
MODEL 2
REMARK VINA RESULT:      -8.3      2.073      2.841
REMARK  6 active torsions:
REMARK  status: ('A' for Active; 'I' for Inactive)
REMARK       I    between atoms: C_2  and  N_3 
REMARK    1  A    between atoms: N_3  and  C_4 
REMARK    2  A    between atoms: C_4  and  C_5 
REMARK    3  A    between atoms: C_4  and  C_11 
REMARK    4  A    between atoms: C_11  and  C_12 
REMARK       I    between atoms: C_12  and  N_13 
REMARK    5  A    between atoms: N_13  and  C_14 
REMARK    6  A    between atoms: C_16  and  C_17 
ROOT
HETATM    1  C   UNL     1     -42.391  55.394 -52.655  1.00  0.00     0.224 C 
HETATM    2  N   UNL     1     -43.475  55.291 -53.516  1.00  0.00    -0.327 N 
HETATM    3  O   UNL     1     -41.535  56.271 -52.675  1.00  0.00    -0.273 OA
HETATM    4  H   UNL     1     -44.068  54.477 -53.405  1.00  0.00     0.169 HD
ENDROOT
BRANCH   1   5
HETATM    5  C   UNL     1     -42.352  54.243 -51.662  1.00  0.00     0.133 C 
BRANCH   5   6
HETATM    6  C   UNL     1     -40.910  53.822 -51.338  1.00  0.00     0.126 C 
BRANCH   6   7
HETATM    7  N   UNL     1     -40.601  53.584 -49.931  1.00  0.00    -0.352 N 
HETATM    8  C   UNL     1     -40.709  54.490 -48.906  1.00  0.00     0.214 C 
HETATM    9  C   UNL     1     -40.294  53.934 -47.569  1.00  0.00     0.117 C 
HETATM   10  O   UNL     1     -41.124  55.638 -49.026  1.00  0.00    -0.274 OA
HETATM   11  H   UNL     1     -40.231  52.669 -49.714  1.00  0.00     0.163 HD
ENDBRANCH   6   7
BRANCH   6  12
HETATM   12  C   UNL     1     -40.446  52.675 -52.225  1.00  0.00    -0.035 A 
HETATM   13  C   UNL     1     -39.794  51.547 -51.706  1.00  0.00     0.009 A 
HETATM   14  C   UNL     1     -39.398  50.503 -52.544  1.00  0.00     0.001 A 
HETATM   15  C   UNL     1     -39.659  50.564 -53.911  1.00  0.00     0.000 A 
HETATM   16  C   UNL     1     -40.316  51.671 -54.442  1.00  0.00     0.001 A 
HETATM   17  C   UNL     1     -40.706  52.719 -53.606  1.00  0.00     0.009 A 
ENDBRANCH   6  12
ENDBRANCH   5   6
ENDBRANCH   1   5
BRANCH   2  18
HETATM   18  C   UNL     1     -43.796  56.146 -54.592  1.00  0.00     0.035 A 
HETATM   19  C   UNL     1     -43.163  56.105 -55.837  1.00  0.00     0.042 A 
HETATM   20  C   UNL     1     -43.539  56.978 -56.873  1.00  0.00    -0.021 A 
HETATM   21  C   UNL     1     -44.578  57.888 -56.650  1.00  0.00     0.012 A 
HETATM   22  C   UNL     1     -45.211  57.942 -55.408  1.00  0.00     0.003 A 
HETATM   23  C   UNL     1     -44.816  57.082 -54.383  1.00  0.00     0.029 A 
BRANCH  20  24
HETATM   24  C   UNL     1     -42.865  56.943 -58.160  1.00  0.00     0.010 A 
HETATM   25  C   UNL     1     -42.926  56.004 -59.217  1.00  0.00     0.152 A 
HETATM   26  N   UNL     1     -42.163  56.345 -60.259  1.00  0.00    -0.187 NA
HETATM   27  N   UNL     1     -41.606  57.505 -59.873  1.00  0.00    -0.289 N 
HETATM   28  H   UNL     1     -40.972  57.972 -60.512  1.00  0.00     0.188 HD
HETATM   29  C   UNL     1     -41.996  57.908 -58.629  1.00  0.00     0.123 A 
ENDBRANCH  20  24
ENDBRANCH   2  18
TORSDOF 6
ENDMDL
MODEL 3
REMARK VINA RESULT:      -8.2      1.370      3.170
REMARK  6 active torsions:
REMARK  status: ('A' for Active; 'I' for Inactive)
REMARK       I    between atoms: C_2  and  N_3 
REMARK    1  A    between atoms: N_3  and  C_4 
REMARK    2  A    between atoms: C_4  and  C_5 
REMARK    3  A    between atoms: C_4  and  C_11 
REMARK    4  A    between atoms: C_11  and  C_12 
REMARK       I    between atoms: C_12  and  N_13 
REMARK    5  A    between atoms: N_13  and  C_14 
REMARK    6  A    between atoms: C_16  and  C_17 
ROOT
HETATM    1  C   UNL     1     -41.800  54.677 -55.006  1.00  0.00     0.224 C 
HETATM    2  N   UNL     1     -41.614  55.823 -55.766  1.00  0.00    -0.327 N 
HETATM    3  O   UNL     1     -42.842  54.039 -54.907  1.00  0.00    -0.273 OA
HETATM    4  H   UNL     1     -40.705  56.268 -55.704  1.00  0.00     0.169 HD
ENDROOT
BRANCH   1   5
HETATM    5  C   UNL     1     -40.538  54.294 -54.250  1.00  0.00     0.133 C 
BRANCH   5   6
HETATM    6  C   UNL     1     -40.784  53.114 -53.297  1.00  0.00     0.126 C 
BRANCH   6   7
HETATM    7  N   UNL     1     -39.912  51.954 -53.456  1.00  0.00    -0.352 N 
HETATM    8  C   UNL     1     -40.236  50.765 -54.057  1.00  0.00     0.214 C 
HETATM    9  C   UNL     1     -39.114  49.761 -54.042  1.00  0.00     0.117 C 
HETATM   10  O   UNL     1     -41.314  50.519 -54.588  1.00  0.00    -0.274 OA
HETATM   11  H   UNL     1     -38.995  52.036 -53.037  1.00  0.00     0.163 HD
ENDBRANCH   6   7
BRANCH   6  12
HETATM   12  C   UNL     1     -40.865  53.571 -51.847  1.00  0.00    -0.035 A 
HETATM   13  C   UNL     1     -39.784  53.443 -50.962  1.00  0.00     0.009 A 
HETATM   14  C   UNL     1     -39.884  53.890 -49.643  1.00  0.00     0.001 A 
HETATM   15  C   UNL     1     -41.060  54.484 -49.191  1.00  0.00     0.000 A 
HETATM   16  C   UNL     1     -42.140  54.630 -50.059  1.00  0.00     0.001 A 
HETATM   17  C   UNL     1     -42.044  54.177 -51.376  1.00  0.00     0.009 A 
ENDBRANCH   6  12
ENDBRANCH   5   6
ENDBRANCH   1   5
BRANCH   2  18
HETATM   18  C   UNL     1     -42.576  56.496 -56.549  1.00  0.00     0.035 A 
HETATM   19  C   UNL     1     -43.125  55.979 -57.726  1.00  0.00     0.042 A 
HETATM   20  C   UNL     1     -44.089  56.697 -58.454  1.00  0.00    -0.021 A 
HETATM   21  C   UNL     1     -44.514  57.941 -57.976  1.00  0.00     0.012 A 
HETATM   22  C   UNL     1     -43.966  58.470 -56.806  1.00  0.00     0.003 A 
HETATM   23  C   UNL     1     -42.997  57.755 -56.103  1.00  0.00     0.029 A 
BRANCH  20  24
HETATM   24  C   UNL     1     -44.644  56.163 -59.687  1.00  0.00     0.010 A 
HETATM   25  C   UNL     1     -44.274  55.040 -60.464  1.00  0.00     0.152 A 
HETATM   26  N   UNL     1     -45.057  54.866 -61.531  1.00  0.00    -0.187 NA
HETATM   27  N   UNL     1     -45.935  55.879 -61.444  1.00  0.00    -0.289 N 
HETATM   28  H   UNL     1     -46.650  55.961 -62.159  1.00  0.00     0.188 HD
HETATM   29  C   UNL     1     -45.734  56.680 -60.358  1.00  0.00     0.123 A 
ENDBRANCH  20  24
ENDBRANCH   2  18
TORSDOF 6
ENDMDL
MODEL 4
REMARK VINA RESULT:      -8.1      2.103      3.452
REMARK  6 active torsions:
REMARK  status: ('A' for Active; 'I' for Inactive)
REMARK       I    between atoms: C_2  and  N_3 
REMARK    1  A    between atoms: N_3  and  C_4 
REMARK    2  A    between atoms: C_4  and  C_5 
REMARK    3  A    between atoms: C_4  and  C_11 
REMARK    4  A    between atoms: C_11  and  C_12 
REMARK       I    between atoms: C_12  and  N_13 
REMARK    5  A    between atoms: N_13  and  C_14 
REMARK    6  A    between atoms: C_16  and  C_17 
ROOT
HETATM    1  C   UNL     1     -41.792  54.524 -55.511  1.00  0.00     0.224 C 
HETATM    2  N   UNL     1     -41.692  55.763 -56.127  1.00  0.00    -0.327 N 
HETATM    3  O   UNL     1     -42.817  53.864 -55.381  1.00  0.00    -0.273 OA
HETATM    4  H   UNL     1     -40.782  56.208 -56.109  1.00  0.00     0.169 HD
ENDROOT
BRANCH   1   5
HETATM    5  C   UNL     1     -40.452  54.061 -54.961  1.00  0.00     0.133 C 
BRANCH   5   6
HETATM    6  C   UNL     1     -40.547  53.692 -53.472  1.00  0.00     0.126 C 
BRANCH   6   7
HETATM    7  N   UNL     1     -41.779  54.067 -52.785  1.00  0.00    -0.352 N 
HETATM    8  C   UNL     1     -41.880  54.799 -51.629  1.00  0.00     0.214 C 
HETATM    9  C   UNL     1     -43.300  54.998 -51.168  1.00  0.00     0.117 C 
HETATM   10  O   UNL     1     -40.931  55.281 -51.020  1.00  0.00    -0.274 OA
HETATM   11  H   UNL     1     -42.633  53.707 -53.190  1.00  0.00     0.163 HD
ENDBRANCH   6   7
BRANCH   6  12
HETATM   12  C   UNL     1     -40.180  52.235 -53.230  1.00  0.00    -0.035 A 
HETATM   13  C   UNL     1     -39.773  51.767 -51.972  1.00  0.00     0.009 A 
HETATM   14  C   UNL     1     -39.462  50.419 -51.777  1.00  0.00     0.001 A 
HETATM   15  C   UNL     1     -39.566  49.517 -52.833  1.00  0.00     0.000 A 
HETATM   16  C   UNL     1     -39.981  49.961 -54.086  1.00  0.00     0.001 A 
HETATM   17  C   UNL     1     -40.285  51.309 -54.284  1.00  0.00     0.009 A 
ENDBRANCH   6  12
ENDBRANCH   5   6
ENDBRANCH   1   5
BRANCH   2  18
HETATM   18  C   UNL     1     -42.736  56.521 -56.699  1.00  0.00     0.035 A 
HETATM   19  C   UNL     1     -43.369  57.588 -56.055  1.00  0.00     0.042 A 
HETATM   20  C   UNL     1     -44.397  58.310 -56.686  1.00  0.00    -0.021 A 
HETATM   21  C   UNL     1     -44.773  57.960 -57.987  1.00  0.00     0.012 A 
HETATM   22  C   UNL     1     -44.153  56.892 -58.636  1.00  0.00     0.003 A 
HETATM   23  C   UNL     1     -43.147  56.171 -57.991  1.00  0.00     0.029 A 
BRANCH  20  24
HETATM   24  C   UNL     1     -45.065  59.407 -56.005  1.00  0.00     0.010 A 
HETATM   25  C   UNL     1     -45.700  60.566 -56.509  1.00  0.00     0.152 A 
HETATM   26  N   UNL     1     -46.221  61.332 -55.548  1.00  0.00    -0.187 NA
HETATM   27  N   UNL     1     -45.921  60.667 -54.420  1.00  0.00    -0.289 N 
HETATM   28  H   UNL     1     -46.221  61.060 -53.534  1.00  0.00     0.188 HD
HETATM   29  C   UNL     1     -45.235  59.509 -54.639  1.00  0.00     0.123 A 
ENDBRANCH  20  24
ENDBRANCH   2  18
TORSDOF 6
ENDMDL
MODEL 5
REMARK VINA RESULT:      -8.0      4.181      8.557
REMARK  6 active torsions:
REMARK  status: ('A' for Active; 'I' for Inactive)
REMARK       I    between atoms: C_2  and  N_3 
REMARK    1  A    between atoms: N_3  and  C_4 
REMARK    2  A    between atoms: C_4  and  C_5 
REMARK    3  A    between atoms: C_4  and  C_11 
REMARK    4  A    between atoms: C_11  and  C_12 
REMARK       I    between atoms: C_12  and  N_13 
REMARK    5  A    between atoms: N_13  and  C_14 
REMARK    6  A    between atoms: C_16  and  C_17 
ROOT
HETATM    1  C   UNL     1     -43.120  56.440 -52.511  1.00  0.00     0.224 C 
HETATM    2  N   UNL     1     -41.888  55.850 -52.266  1.00  0.00    -0.327 N 
HETATM    3  O   UNL     1     -43.862  56.195 -53.456  1.00  0.00    -0.273 OA
HETATM    4  H   UNL     1     -41.368  56.197 -51.468  1.00  0.00     0.169 HD
ENDROOT
BRANCH   1   5
HETATM    5  C   UNL     1     -43.458  57.489 -51.463  1.00  0.00     0.133 C 
BRANCH   5   6
HETATM    6  C   UNL     1     -42.905  58.871 -51.844  1.00  0.00     0.126 C 
BRANCH   6   7
HETATM    7  N   UNL     1     -42.866  59.187 -53.269  1.00  0.00    -0.352 N 
HETATM    8  C   UNL     1     -41.747  59.452 -54.017  1.00  0.00     0.214 C 
HETATM    9  C   UNL     1     -42.051  59.761 -55.460  1.00  0.00     0.117 C 
HETATM   10  O   UNL     1     -40.597  59.423 -53.592  1.00  0.00    -0.274 OA
HETATM   11  H   UNL     1     -43.766  59.257 -53.726  1.00  0.00     0.163 HD
ENDBRANCH   6   7
BRANCH   6  12
HETATM   12  C   UNL     1     -43.556  59.981 -51.032  1.00  0.00    -0.035 A 
HETATM   13  C   UNL     1     -44.850  59.860 -50.505  1.00  0.00     0.009 A 
HETATM   14  C   UNL     1     -45.412  60.890 -49.747  1.00  0.00     0.001 A 
HETATM   15  C   UNL     1     -44.684  62.050 -49.492  1.00  0.00     0.000 A 
HETATM   16  C   UNL     1     -43.393  62.182 -49.997  1.00  0.00     0.001 A 
HETATM   17  C   UNL     1     -42.833  61.157 -50.762  1.00  0.00     0.009 A 
ENDBRANCH   6  12
ENDBRANCH   5   6
ENDBRANCH   1   5
BRANCH   2  18
HETATM   18  C   UNL     1     -41.232  54.881 -53.054  1.00  0.00     0.035 A 
HETATM   19  C   UNL     1     -40.925  53.592 -52.611  1.00  0.00     0.042 A 
HETATM   20  C   UNL     1     -40.278  52.670 -53.452  1.00  0.00    -0.021 A 
HETATM   21  C   UNL     1     -39.957  53.052 -54.759  1.00  0.00     0.012 A 
HETATM   22  C   UNL     1     -40.251  54.339 -55.209  1.00  0.00     0.003 A 
HETATM   23  C   UNL     1     -40.877  55.251 -54.358  1.00  0.00     0.029 A 
BRANCH  20  24
HETATM   24  C   UNL     1     -39.945  51.335 -52.981  1.00  0.00     0.010 A 
HETATM   25  C   UNL     1     -39.826  50.107 -53.673  1.00  0.00     0.152 A 
HETATM   26  N   UNL     1     -39.476  49.094 -52.875  1.00  0.00    -0.187 NA
HETATM   27  N   UNL     1     -39.370  49.669 -51.667  1.00  0.00    -0.289 N 
HETATM   28  H   UNL     1     -39.106  49.089 -50.878  1.00  0.00     0.188 HD
HETATM   29  C   UNL     1     -39.636  51.007 -51.676  1.00  0.00     0.123 A 
ENDBRANCH  20  24
ENDBRANCH   2  18
TORSDOF 6
ENDMDL
MODEL 6
REMARK VINA RESULT:      -7.9      2.407      8.504
REMARK  6 active torsions:
REMARK  status: ('A' for Active; 'I' for Inactive)
REMARK       I    between atoms: C_2  and  N_3 
REMARK    1  A    between atoms: N_3  and  C_4 
REMARK    2  A    between atoms: C_4  and  C_5 
REMARK    3  A    between atoms: C_4  and  C_11 
REMARK    4  A    between atoms: C_11  and  C_12 
REMARK       I    between atoms: C_12  and  N_13 
REMARK    5  A    between atoms: N_13  and  C_14 
REMARK    6  A    between atoms: C_16  and  C_17 
ROOT
HETATM    1  C   UNL     1     -42.544  55.597 -56.275  1.00  0.00     0.224 C 
HETATM    2  N   UNL     1     -41.303  55.171 -55.820  1.00  0.00    -0.327 N 
HETATM    3  O   UNL     1     -43.599  55.534 -55.654  1.00  0.00    -0.273 OA
HETATM    4  H   UNL     1     -40.531  55.242 -56.472  1.00  0.00     0.169 HD
ENDROOT
BRANCH   1   5
HETATM    5  C   UNL     1     -42.465  56.142 -57.692  1.00  0.00     0.133 C 
BRANCH   5   6
HETATM    6  C   UNL     1     -43.398  57.347 -57.889  1.00  0.00     0.126 C 
BRANCH   6   7
HETATM    7  N   UNL     1     -42.773  58.590 -58.332  1.00  0.00    -0.352 N 
HETATM    8  C   UNL     1     -42.074  59.476 -57.551  1.00  0.00     0.214 C 
HETATM    9  C   UNL     1     -41.570  60.674 -58.312  1.00  0.00     0.117 C 
HETATM   10  O   UNL     1     -41.840  59.325 -56.357  1.00  0.00    -0.274 OA
HETATM   11  H   UNL     1     -42.916  58.829 -59.303  1.00  0.00     0.163 HD
ENDBRANCH   6   7
BRANCH   6  12
HETATM   12  C   UNL     1     -44.611  56.986 -58.735  1.00  0.00    -0.035 A 
HETATM   13  C   UNL     1     -45.806  57.718 -58.677  1.00  0.00     0.009 A 
HETATM   14  C   UNL     1     -46.894  57.373 -59.481  1.00  0.00     0.001 A 
HETATM   15  C   UNL     1     -46.801  56.300 -60.364  1.00  0.00     0.000 A 
HETATM   16  C   UNL     1     -45.618  55.569 -60.443  1.00  0.00     0.001 A 
HETATM   17  C   UNL     1     -44.532  55.908 -59.635  1.00  0.00     0.009 A 
ENDBRANCH   6  12
ENDBRANCH   5   6
ENDBRANCH   1   5
BRANCH   2  18
HETATM   18  C   UNL     1     -41.009  54.563 -54.581  1.00  0.00     0.035 A 
HETATM   19  C   UNL     1     -40.620  53.228 -54.439  1.00  0.00     0.042 A 
HETATM   20  C   UNL     1     -40.330  52.687 -53.175  1.00  0.00    -0.021 A 
HETATM   21  C   UNL     1     -40.416  53.510 -52.047  1.00  0.00     0.012 A 
HETATM   22  C   UNL     1     -40.810  54.842 -52.177  1.00  0.00     0.003 A 
HETATM   23  C   UNL     1     -41.113  55.362 -53.436  1.00  0.00     0.029 A 
BRANCH  20  24
HETATM   24  C   UNL     1     -39.944  51.293 -53.031  1.00  0.00     0.010 A 
HETATM   25  C   UNL     1     -39.808  50.261 -53.990  1.00  0.00     0.152 A 
HETATM   26  N   UNL     1     -39.405  49.106 -53.455  1.00  0.00    -0.187 NA
HETATM   27  N   UNL     1     -39.281  49.391 -52.149  1.00  0.00    -0.289 N 
HETATM   28  H   UNL     1     -38.977  48.655 -51.521  1.00  0.00     0.188 HD
HETATM   29  C   UNL     1     -39.587  50.685 -51.844  1.00  0.00     0.123 A 
ENDBRANCH  20  24
ENDBRANCH   2  18
TORSDOF 6
ENDMDL
MODEL 7
REMARK VINA RESULT:      -7.9      2.822      3.844
REMARK  6 active torsions:
REMARK  status: ('A' for Active; 'I' for Inactive)
REMARK       I    between atoms: C_2  and  N_3 
REMARK    1  A    between atoms: N_3  and  C_4 
REMARK    2  A    between atoms: C_4  and  C_5 
REMARK    3  A    between atoms: C_4  and  C_11 
REMARK    4  A    between atoms: C_11  and  C_12 
REMARK       I    between atoms: C_12  and  N_13 
REMARK    5  A    between atoms: N_13  and  C_14 
REMARK    6  A    between atoms: C_16  and  C_17 
ROOT
HETATM    1  C   UNL     1     -43.043  55.416 -55.762  1.00  0.00     0.224 C 
HETATM    2  N   UNL     1     -42.528  55.434 -57.050  1.00  0.00    -0.327 N 
HETATM    3  O   UNL     1     -43.763  56.273 -55.261  1.00  0.00    -0.273 OA
HETATM    4  H   UNL     1     -41.903  54.676 -57.301  1.00  0.00     0.169 HD
ENDROOT
BRANCH   1   5
HETATM    5  C   UNL     1     -42.579  54.191 -54.989  1.00  0.00     0.133 C 
BRANCH   5   6
HETATM    6  C   UNL     1     -41.472  54.541 -53.983  1.00  0.00     0.126 C 
BRANCH   6   7
HETATM    7  N   UNL     1     -41.839  55.446 -52.898  1.00  0.00    -0.352 N 
HETATM    8  C   UNL     1     -41.403  56.736 -52.726  1.00  0.00     0.214 C 
HETATM    9  C   UNL     1     -41.957  57.395 -51.490  1.00  0.00     0.117 C 
HETATM   10  O   UNL     1     -40.657  57.331 -53.496  1.00  0.00    -0.274 OA
HETATM   11  H   UNL     1     -42.442  55.054 -52.187  1.00  0.00     0.163 HD
ENDBRANCH   6   7
BRANCH   6  12
HETATM   12  C   UNL     1     -40.764  53.295 -53.470  1.00  0.00    -0.035 A 
HETATM   13  C   UNL     1     -40.409  53.139 -52.122  1.00  0.00     0.009 A 
HETATM   14  C   UNL     1     -39.777  51.975 -51.680  1.00  0.00     0.001 A 
HETATM   15  C   UNL     1     -39.503  50.943 -52.575  1.00  0.00     0.000 A 
HETATM   16  C   UNL     1     -39.859  51.075 -53.915  1.00  0.00     0.001 A 
HETATM   17  C   UNL     1     -40.484  52.242 -54.360  1.00  0.00     0.009 A 
ENDBRANCH   6  12
ENDBRANCH   5   6
ENDBRANCH   1   5
BRANCH   2  18
HETATM   18  C   UNL     1     -42.700  56.438 -58.027  1.00  0.00     0.035 A 
HETATM   19  C   UNL     1     -42.219  57.744 -57.897  1.00  0.00     0.042 A 
HETATM   20  C   UNL     1     -42.415  58.695 -58.913  1.00  0.00    -0.021 A 
HETATM   21  C   UNL     1     -43.089  58.314 -60.078  1.00  0.00     0.012 A 
HETATM   22  C   UNL     1     -43.581  57.015 -60.215  1.00  0.00     0.003 A 
HETATM   23  C   UNL     1     -43.395  56.086 -59.190  1.00  0.00     0.029 A 
BRANCH  20  24
HETATM   24  C   UNL     1     -41.928  60.056 -58.766  1.00  0.00     0.010 A 
HETATM   25  C   UNL     1     -41.707  61.074 -59.723  1.00  0.00     0.152 A 
HETATM   26  N   UNL     1     -41.269  62.212 -59.179  1.00  0.00    -0.187 NA
HETATM   27  N   UNL     1     -41.204  61.928 -57.868  1.00  0.00    -0.289 N 
HETATM   28  H   UNL     1     -40.892  62.654 -57.232  1.00  0.00     0.188 HD
HETATM   29  C   UNL     1     -41.592  60.655 -57.568  1.00  0.00     0.123 A 
ENDBRANCH  20  24
ENDBRANCH   2  18
TORSDOF 6
ENDMDL
MODEL 8
REMARK VINA RESULT:      -7.8      1.766      2.138
REMARK  6 active torsions:
REMARK  status: ('A' for Active; 'I' for Inactive)
REMARK       I    between atoms: C_2  and  N_3 
REMARK    1  A    between atoms: N_3  and  C_4 
REMARK    2  A    between atoms: C_4  and  C_5 
REMARK    3  A    between atoms: C_4  and  C_11 
REMARK    4  A    between atoms: C_11  and  C_12 
REMARK       I    between atoms: C_12  and  N_13 
REMARK    5  A    between atoms: N_13  and  C_14 
REMARK    6  A    between atoms: C_16  and  C_17 
ROOT
HETATM    1  C   UNL     1     -41.142  55.619 -54.695  1.00  0.00     0.224 C 
HETATM    2  N   UNL     1     -42.137  55.482 -55.653  1.00  0.00    -0.327 N 
HETATM    3  O   UNL     1     -40.889  56.636 -54.059  1.00  0.00    -0.273 OA
HETATM    4  H   UNL     1     -42.188  54.590 -56.132  1.00  0.00     0.169 HD
ENDROOT
BRANCH   1   5
HETATM    5  C   UNL     1     -40.341  54.337 -54.531  1.00  0.00     0.133 C 
BRANCH   5   6
HETATM    6  C   UNL     1     -40.523  53.731 -53.130  1.00  0.00     0.126 C 
BRANCH   6   7
HETATM    7  N   UNL     1     -41.793  54.001 -52.463  1.00  0.00    -0.352 N 
HETATM    8  C   UNL     1     -41.963  54.417 -51.167  1.00  0.00     0.214 C 
HETATM    9  C   UNL     1     -43.409  54.587 -50.778  1.00  0.00     0.117 C 
HETATM   10  O   UNL     1     -41.052  54.660 -50.384  1.00  0.00    -0.274 OA
HETATM   11  H   UNL     1     -42.623  53.816 -53.011  1.00  0.00     0.163 HD
ENDBRANCH   6   7
BRANCH   6  12
HETATM   12  C   UNL     1     -40.171  52.250 -53.108  1.00  0.00    -0.035 A 
HETATM   13  C   UNL     1     -39.723  51.607 -51.945  1.00  0.00     0.009 A 
HETATM   14  C   UNL     1     -39.427  50.242 -51.954  1.00  0.00     0.001 A 
HETATM   15  C   UNL     1     -39.587  49.497 -53.120  1.00  0.00     0.000 A 
HETATM   16  C   UNL     1     -40.042  50.117 -54.281  1.00  0.00     0.001 A 
HETATM   17  C   UNL     1     -40.331  51.483 -54.276  1.00  0.00     0.009 A 
ENDBRANCH   6  12
ENDBRANCH   5   6
ENDBRANCH   1   5
BRANCH   2  18
HETATM   18  C   UNL     1     -43.032  56.475 -56.105  1.00  0.00     0.035 A 
HETATM   19  C   UNL     1     -42.995  57.035 -57.385  1.00  0.00     0.042 A 
HETATM   20  C   UNL     1     -43.924  58.014 -57.777  1.00  0.00    -0.021 A 
HETATM   21  C   UNL     1     -44.910  58.416 -56.870  1.00  0.00     0.012 A 
HETATM   22  C   UNL     1     -44.951  57.869 -55.587  1.00  0.00     0.003 A 
HETATM   23  C   UNL     1     -44.011  56.911 -55.205  1.00  0.00     0.029 A 
BRANCH  20  24
HETATM   24  C   UNL     1     -43.870  58.606 -59.104  1.00  0.00     0.010 A 
HETATM   25  C   UNL     1     -42.785  59.132 -59.844  1.00  0.00     0.152 A 
HETATM   26  N   UNL     1     -43.146  59.569 -61.054  1.00  0.00    -0.187 NA
HETATM   27  N   UNL     1     -44.466  59.325 -61.094  1.00  0.00    -0.289 N 
HETATM   28  H   UNL     1     -44.977  59.575 -61.934  1.00  0.00     0.188 HD
HETATM   29  C   UNL     1     -44.946  58.747 -59.956  1.00  0.00     0.123 A 
ENDBRANCH  20  24
ENDBRANCH   2  18
TORSDOF 6
ENDMDL
MODEL 9
REMARK VINA RESULT:      -7.8      4.647      7.798
REMARK  6 active torsions:
REMARK  status: ('A' for Active; 'I' for Inactive)
REMARK       I    between atoms: C_2  and  N_3 
REMARK    1  A    between atoms: N_3  and  C_4 
REMARK    2  A    between atoms: C_4  and  C_5 
REMARK    3  A    between atoms: C_4  and  C_11 
REMARK    4  A    between atoms: C_11  and  C_12 
REMARK       I    between atoms: C_12  and  N_13 
REMARK    5  A    between atoms: N_13  and  C_14 
REMARK    6  A    between atoms: C_16  and  C_17 
ROOT
HETATM    1  C   UNL     1     -43.199  56.262 -52.270  1.00  0.00     0.224 C 
HETATM    2  N   UNL     1     -42.005  55.604 -52.013  1.00  0.00    -0.327 N 
HETATM    3  O   UNL     1     -43.865  56.174 -53.296  1.00  0.00    -0.273 OA
HETATM    4  H   UNL     1     -41.546  55.820 -51.136  1.00  0.00     0.169 HD
ENDROOT
BRANCH   1   5
HETATM    5  C   UNL     1     -43.601  57.167 -51.116  1.00  0.00     0.133 C 
BRANCH   5   6
HETATM    6  C   UNL     1     -43.256  58.636 -51.401  1.00  0.00     0.126 C 
BRANCH   6   7
HETATM    7  N   UNL     1     -43.940  59.637 -50.587  1.00  0.00    -0.352 N 
HETATM    8  C   UNL     1     -45.214  60.111 -50.775  1.00  0.00     0.214 C 
HETATM    9  C   UNL     1     -45.617  61.156 -49.768  1.00  0.00     0.117 C 
HETATM   10  O   UNL     1     -45.982  59.727 -51.649  1.00  0.00    -0.274 OA
HETATM   11  H   UNL     1     -43.392  60.042 -49.840  1.00  0.00     0.163 HD
ENDBRANCH   6   7
BRANCH   6  12
HETATM   12  C   UNL     1     -41.751  58.864 -51.437  1.00  0.00    -0.035 A 
HETATM   13  C   UNL     1     -41.011  58.779 -52.626  1.00  0.00     0.009 A 
HETATM   14  C   UNL     1     -39.634  59.012 -52.628  1.00  0.00     0.001 A 
HETATM   15  C   UNL     1     -38.978  59.347 -51.446  1.00  0.00     0.000 A 
HETATM   16  C   UNL     1     -39.699  59.448 -50.258  1.00  0.00     0.001 A 
HETATM   17  C   UNL     1     -41.074  59.207 -50.253  1.00  0.00     0.009 A 
ENDBRANCH   6  12
ENDBRANCH   5   6
ENDBRANCH   1   5
BRANCH   2  18
HETATM   18  C   UNL     1     -41.306  54.732 -52.875  1.00  0.00     0.035 A 
HETATM   19  C   UNL     1     -40.968  53.416 -52.547  1.00  0.00     0.042 A 
HETATM   20  C   UNL     1     -40.279  52.595 -53.457  1.00  0.00    -0.021 A 
HETATM   21  C   UNL     1     -39.947  53.106 -54.716  1.00  0.00     0.012 A 
HETATM   22  C   UNL     1     -40.273  54.421 -55.050  1.00  0.00     0.003 A 
HETATM   23  C   UNL     1     -40.940  55.231 -54.131  1.00  0.00     0.029 A 
BRANCH  20  24
HETATM   24  C   UNL     1     -39.914  51.232 -53.104  1.00  0.00     0.010 A 
HETATM   25  C   UNL     1     -39.770  50.073 -53.901  1.00  0.00     0.152 A 
HETATM   26  N   UNL     1     -39.394  49.002 -53.196  1.00  0.00    -0.187 NA
HETATM   27  N   UNL     1     -39.296  49.472 -51.942  1.00  0.00    -0.289 N 
HETATM   28  H   UNL     1     -39.015  48.831 -51.208  1.00  0.00     0.188 HD
HETATM   29  C   UNL     1     -39.592  50.799 -51.834  1.00  0.00     0.123 A 
ENDBRANCH  20  24
ENDBRANCH   2  18
TORSDOF 6
ENDMDL
MODEL 10
REMARK VINA RESULT:      -7.7      2.286      9.008
REMARK  6 active torsions:
REMARK  status: ('A' for Active; 'I' for Inactive)
REMARK       I    between atoms: C_2  and  N_3 
REMARK    1  A    between atoms: N_3  and  C_4 
REMARK    2  A    between atoms: C_4  and  C_5 
REMARK    3  A    between atoms: C_4  and  C_11 
REMARK    4  A    between atoms: C_11  and  C_12 
REMARK       I    between atoms: C_12  and  N_13 
REMARK    5  A    between atoms: N_13  and  C_14 
REMARK    6  A    between atoms: C_16  and  C_17 
ROOT
HETATM    1  C   UNL     1     -42.530  56.481 -56.021  1.00  0.00     0.224 C 
HETATM    2  N   UNL     1     -41.272  56.058 -55.612  1.00  0.00    -0.327 N 
HETATM    3  O   UNL     1     -43.602  56.055 -55.608  1.00  0.00    -0.273 OA
HETATM    4  H   UNL     1     -40.477  56.471 -56.087  1.00  0.00     0.169 HD
ENDROOT
BRANCH   1   5
HETATM    5  C   UNL     1     -42.439  57.546 -57.102  1.00  0.00     0.133 C 
BRANCH   5   6
HETATM    6  C   UNL     1     -43.523  57.358 -58.175  1.00  0.00     0.126 C 
BRANCH   6   7
HETATM    7  N   UNL     1     -43.967  55.989 -58.420  1.00  0.00    -0.352 N 
HETATM    8  C   UNL     1     -44.052  55.364 -59.639  1.00  0.00     0.214 C 
HETATM    9  C   UNL     1     -44.567  53.951 -59.551  1.00  0.00     0.117 C 
HETATM   10  O   UNL     1     -43.724  55.866 -60.708  1.00  0.00    -0.274 OA
HETATM   11  H   UNL     1     -44.282  55.480 -57.606  1.00  0.00     0.163 HD
ENDBRANCH   6   7
BRANCH   6  12
HETATM   12  C   UNL     1     -44.694  58.308 -57.964  1.00  0.00    -0.035 A 
HETATM   13  C   UNL     1     -46.025  57.903 -58.142  1.00  0.00     0.009 A 
HETATM   14  C   UNL     1     -47.078  58.794 -57.921  1.00  0.00     0.001 A 
HETATM   15  C   UNL     1     -46.817  60.098 -57.507  1.00  0.00     0.000 A 
HETATM   16  C   UNL     1     -45.502  60.514 -57.313  1.00  0.00     0.001 A 
HETATM   17  C   UNL     1     -44.449  59.627 -57.541  1.00  0.00     0.009 A 
ENDBRANCH   6  12
ENDBRANCH   5   6
ENDBRANCH   1   5
BRANCH   2  18
HETATM   18  C   UNL     1     -40.972  55.050 -54.672  1.00  0.00     0.035 A 
HETATM   19  C   UNL     1     -41.115  55.204 -53.290  1.00  0.00     0.042 A 
HETATM   20  C   UNL     1     -40.809  54.154 -52.407  1.00  0.00    -0.021 A 
HETATM   21  C   UNL     1     -40.372  52.932 -52.930  1.00  0.00     0.012 A 
HETATM   22  C   UNL     1     -40.219  52.771 -54.307  1.00  0.00     0.003 A 
HETATM   23  C   UNL     1     -40.509  53.827 -55.171  1.00  0.00     0.029 A 
BRANCH  20  24
HETATM   24  C   UNL     1     -40.942  54.325 -50.969  1.00  0.00     0.010 A 
HETATM   25  C   UNL     1     -40.765  53.412 -49.904  1.00  0.00     0.152 A 
HETATM   26  N   UNL     1     -40.961  53.969 -48.705  1.00  0.00    -0.187 NA
HETATM   27  N   UNL     1     -41.267  55.243 -48.998  1.00  0.00    -0.289 N 
HETATM   28  H   UNL     1     -41.461  55.881 -48.233  1.00  0.00     0.188 HD
HETATM   29  C   UNL     1     -41.265  55.509 -50.336  1.00  0.00     0.123 A 
ENDBRANCH  20  24
ENDBRANCH   2  18
TORSDOF 6
ENDMDL
