MODEL 1
REMARK VINA RESULT:      -8.4      0.000      0.000
REMARK  7 active torsions:
REMARK  status: ('A' for Active; 'I' for Inactive)
REMARK    1  A    between atoms: C_7  and  C_8 
REMARK    2  A    between atoms: C_8  and  N_9 
REMARK    3  A    between atoms: C_13  and  C_14 
REMARK    4  A    between atoms: C_14  and  C_15 
REMARK    5  A    between atoms: C_15  and  C_16 
REMARK    6  A    between atoms: N_26  and  C_27 
REMARK    7  A    between atoms: C_27  and  C_28 
ROOT
HETATM    1  C   UNL     1     -42.002  55.500 -52.751  1.00  0.00     0.123 C 
HETATM    2  N   UNL     1     -42.965  54.510 -53.210  1.00  0.00    -0.324 N 
HETATM    3  C   UNL     1     -43.533  54.825 -54.422  1.00  0.00     0.326 C 
HETATM    4  O   UNL     1     -44.283  54.083 -55.027  1.00  0.00    -0.247 OA
HETATM    5  N   UNL     1     -43.146  56.083 -54.755  1.00  0.00    -0.268 N 
HETATM    6  C   UNL     1     -42.324  56.593 -53.793  1.00  0.00     0.257 C 
HETATM    7  O   UNL     1     -41.898  57.739 -53.752  1.00  0.00    -0.270 OA
HETATM    8  H   UNL     1     -43.076  53.573 -52.835  1.00  0.00     0.165 HD
ENDROOT
BRANCH   1   9
HETATM    9  C   UNL     1     -42.305  55.899 -51.269  1.00  0.00     0.027 C 
HETATM   10  C   UNL     1     -43.763  56.320 -50.989  1.00  0.00     0.035 C 
HETATM   11  C   UNL     1     -44.085  57.755 -51.373  1.00  0.00     0.235 C 
HETATM   12  N   UNL     1     -43.163  58.711 -50.666  1.00  0.00    -0.067 N 
HETATM   13  H   UNL     1     -43.400  58.670 -49.667  1.00  0.00     0.280 HD
HETATM   14  C   UNL     1     -41.699  58.403 -50.811  1.00  0.00     0.235 C 
HETATM   15  C   UNL     1     -41.378  56.930 -50.601  1.00  0.00     0.035 C 
BRANCH  12  16
HETATM   16  C   UNL     1     -43.405  60.155 -51.088  1.00  0.00     0.277 C 
BRANCH  16  17
HETATM   17  C   UNL     1     -44.426  60.862 -50.280  1.00  0.00     0.011 A 
HETATM   18  C   UNL     1     -45.800  61.047 -50.601  1.00  0.00     0.060 A 
HETATM   19  C   UNL     1     -46.541  60.603 -51.812  1.00  0.00     0.073 C 
HETATM   20  N   UNL     1     -46.447  61.690 -49.629  1.00  0.00    -0.178 NA
HETATM   21  N   UNL     1     -45.500  61.992 -48.730  1.00  0.00    -0.284 N 
HETATM   22  C   UNL     1     -45.847  62.757 -47.555  1.00  0.00     0.179 C 
HETATM   23  C   UNL     1     -44.273  61.490 -49.058  1.00  0.00     0.122 A 
ENDBRANCH  16  17
ENDBRANCH  12  16
ENDBRANCH   1   9
BRANCH   1  24
HETATM   24  C   UNL     1     -40.542  55.036 -53.054  1.00  0.00     0.082 C 
BRANCH  24  25
HETATM   25  C   UNL     1     -40.278  53.542 -53.007  1.00  0.00    -0.034 A 
HETATM   26  C   UNL     1     -39.940  52.840 -51.836  1.00  0.00     0.040 A 
HETATM   27 CL   UNL     1     -39.760  53.613 -50.305  1.00  0.00    -0.084 Cl
HETATM   28  C   UNL     1     -39.698  51.460 -51.871  1.00  0.00     0.024 A 
HETATM   29  C   UNL     1     -39.777  50.760 -53.072  1.00  0.00     0.002 A 
HETATM   30  C   UNL     1     -40.081  51.440 -54.245  1.00  0.00     0.001 A 
HETATM   31  C   UNL     1     -40.316  52.816 -54.215  1.00  0.00     0.009 A 
ENDBRANCH  24  25
ENDBRANCH   1  24
BRANCH   5  32
HETATM   32  C   UNL     1     -43.598  56.796 -55.930  1.00  0.00     0.141 C 
BRANCH  32  33
HETATM   33  C   UNL     1     -42.696  56.499 -57.089  1.00  0.00     0.004 A 
HETATM   34  C   UNL     1     -43.218  55.772 -58.303  1.00  0.00     0.007 A 
HETATM   35  C   UNL     1     -42.865  57.232 -58.394  1.00  0.00     0.007 A 
ENDBRANCH  32  33
ENDBRANCH   5  32
TORSDOF 7
ENDMDL
MODEL 2
REMARK VINA RESULT:      -8.1      1.243      1.675
REMARK  7 active torsions:
REMARK  status: ('A' for Active; 'I' for Inactive)
REMARK    1  A    between atoms: C_7  and  C_8 
REMARK    2  A    between atoms: C_8  and  N_9 
REMARK    3  A    between atoms: C_13  and  C_14 
REMARK    4  A    between atoms: C_14  and  C_15 
REMARK    5  A    between atoms: C_15  and  C_16 
REMARK    6  A    between atoms: N_26  and  C_27 
REMARK    7  A    between atoms: C_27  and  C_28 
ROOT
HETATM    1  C   UNL     1     -41.679  54.788 -53.073  1.00  0.00     0.123 C 
HETATM    2  N   UNL     1     -42.620  53.922 -53.767  1.00  0.00    -0.324 N 
HETATM    3  C   UNL     1     -42.918  54.352 -55.039  1.00  0.00     0.326 C 
HETATM    4  O   UNL     1     -43.601  53.718 -55.821  1.00  0.00    -0.247 OA
HETATM    5  N   UNL     1     -42.367  55.581 -55.209  1.00  0.00    -0.268 N 
HETATM    6  C   UNL     1     -41.702  55.959 -54.080  1.00  0.00     0.257 C 
HETATM    7  O   UNL     1     -41.193  57.054 -53.883  1.00  0.00    -0.270 OA
HETATM    8  H   UNL     1     -42.881  52.982 -53.483  1.00  0.00     0.165 HD
ENDROOT
BRANCH   1   9
HETATM    9  C   UNL     1     -42.223  55.141 -51.648  1.00  0.00     0.027 C 
HETATM   10  C   UNL     1     -43.497  56.010 -51.630  1.00  0.00     0.035 C 
HETATM   11  C   UNL     1     -43.246  57.495 -51.830  1.00  0.00     0.235 C 
HETATM   12  N   UNL     1     -42.293  58.014 -50.787  1.00  0.00    -0.067 N 
HETATM   13  H   UNL     1     -42.785  57.973 -49.887  1.00  0.00     0.280 HD
HETATM   14  C   UNL     1     -41.013  57.237 -50.656  1.00  0.00     0.235 C 
HETATM   15  C   UNL     1     -41.231  55.732 -50.630  1.00  0.00     0.035 C 
BRANCH  12  16
HETATM   16  C   UNL     1     -41.954  59.485 -51.005  1.00  0.00     0.277 C 
BRANCH  16  17
HETATM   17  C   UNL     1     -43.136  60.370 -51.127  1.00  0.00     0.011 A 
HETATM   18  C   UNL     1     -43.530  61.126 -52.267  1.00  0.00     0.060 A 
HETATM   19  C   UNL     1     -42.860  61.234 -53.590  1.00  0.00     0.073 C 
HETATM   20  N   UNL     1     -44.672  61.779 -52.049  1.00  0.00    -0.178 NA
HETATM   21  N   UNL     1     -44.975  61.521 -50.769  1.00  0.00    -0.284 N 
HETATM   22  C   UNL     1     -46.140  62.130 -50.172  1.00  0.00     0.179 C 
HETATM   23  C   UNL     1     -44.100  60.654 -50.177  1.00  0.00     0.122 A 
ENDBRANCH  16  17
ENDBRANCH  12  16
ENDBRANCH   1   9
BRANCH   1  24
HETATM   24  C   UNL     1     -40.235  54.199 -53.131  1.00  0.00     0.082 C 
BRANCH  24  25
HETATM   25  C   UNL     1     -40.113  52.687 -53.086  1.00  0.00    -0.034 A 
HETATM   26  C   UNL     1     -39.957  51.946 -51.901  1.00  0.00     0.040 A 
HETATM   27 CL   UNL     1     -39.860  52.685 -50.346  1.00  0.00    -0.084 Cl
HETATM   28  C   UNL     1     -39.838  50.550 -51.937  1.00  0.00     0.024 A 
HETATM   29  C   UNL     1     -39.862  49.871 -53.153  1.00  0.00     0.002 A 
HETATM   30  C   UNL     1     -39.986  50.587 -54.337  1.00  0.00     0.001 A 
HETATM   31  C   UNL     1     -40.098  51.978 -54.305  1.00  0.00     0.009 A 
ENDBRANCH  24  25
ENDBRANCH   1  24
BRANCH   5  32
HETATM   32  C   UNL     1     -42.524  56.393 -56.396  1.00  0.00     0.141 C 
BRANCH  32  33
HETATM   33  C   UNL     1     -43.752  57.243 -56.277  1.00  0.00     0.004 A 
HETATM   34  C   UNL     1     -43.682  58.732 -56.511  1.00  0.00     0.007 A 
HETATM   35  C   UNL     1     -44.384  57.846 -57.504  1.00  0.00     0.007 A 
ENDBRANCH  32  33
ENDBRANCH   5  32
TORSDOF 7
ENDMDL
MODEL 3
REMARK VINA RESULT:      -8.0      1.652      2.129
REMARK  7 active torsions:
REMARK  status: ('A' for Active; 'I' for Inactive)
REMARK    1  A    between atoms: C_7  and  C_8 
REMARK    2  A    between atoms: C_8  and  N_9 
REMARK    3  A    between atoms: C_13  and  C_14 
REMARK    4  A    between atoms: C_14  and  C_15 
REMARK    5  A    between atoms: C_15  and  C_16 
REMARK    6  A    between atoms: N_26  and  C_27 
REMARK    7  A    between atoms: C_27  and  C_28 
ROOT
HETATM    1  C   UNL     1     -42.765  56.171 -53.729  1.00  0.00     0.123 C 
HETATM    2  N   UNL     1     -44.059  56.835 -53.782  1.00  0.00    -0.324 N 
HETATM    3  C   UNL     1     -44.458  57.146 -55.061  1.00  0.00     0.326 C 
HETATM    4  O   UNL     1     -45.550  57.610 -55.330  1.00  0.00    -0.247 OA
HETATM    5  N   UNL     1     -43.422  56.891 -55.900  1.00  0.00    -0.268 N 
HETATM    6  C   UNL     1     -42.357  56.405 -55.200  1.00  0.00     0.257 C 
HETATM    7  O   UNL     1     -41.243  56.183 -55.655  1.00  0.00    -0.270 OA
HETATM    8  H   UNL     1     -44.731  56.885 -53.023  1.00  0.00     0.165 HD
ENDROOT
BRANCH   1   9
HETATM    9  C   UNL     1     -41.844  56.870 -52.675  1.00  0.00     0.027 C 
HETATM   10  C   UNL     1     -42.524  57.209 -51.333  1.00  0.00     0.035 C 
HETATM   11  C   UNL     1     -43.354  58.482 -51.355  1.00  0.00     0.235 C 
HETATM   12  N   UNL     1     -42.512  59.655 -51.778  1.00  0.00    -0.067 N 
HETATM   13  H   UNL     1     -41.835  59.823 -51.025  1.00  0.00     0.280 HD
HETATM   14  C   UNL     1     -41.747  59.457 -53.057  1.00  0.00     0.235 C 
HETATM   15  C   UNL     1     -41.048  58.107 -53.129  1.00  0.00     0.035 C 
BRANCH  12  16
HETATM   16  C   UNL     1     -43.331  60.936 -51.890  1.00  0.00     0.277 C 
BRANCH  16  17
HETATM   17  C   UNL     1     -44.249  61.172 -50.751  1.00  0.00     0.011 A 
HETATM   18  C   UNL     1     -45.668  61.061 -50.754  1.00  0.00     0.060 A 
HETATM   19  C   UNL     1     -46.573  60.706 -51.880  1.00  0.00     0.073 C 
HETATM   20  N   UNL     1     -46.178  61.298 -49.546  1.00  0.00    -0.178 NA
HETATM   21  N   UNL     1     -45.125  61.638 -48.789  1.00  0.00    -0.284 N 
HETATM   22  C   UNL     1     -45.327  62.024 -47.413  1.00  0.00     0.179 C 
HETATM   23  C   UNL     1     -43.937  61.548 -49.458  1.00  0.00     0.122 A 
ENDBRANCH  16  17
ENDBRANCH  12  16
ENDBRANCH   1   9
BRANCH   1  24
HETATM   24  C   UNL     1     -42.940  54.627 -53.573  1.00  0.00     0.082 C 
BRANCH  24  25
HETATM   25  C   UNL     1     -41.912  53.908 -52.718  1.00  0.00    -0.034 A 
HETATM   26  C   UNL     1     -40.762  53.283 -53.231  1.00  0.00     0.040 A 
HETATM   27 CL   UNL     1     -40.397  53.240 -54.916  1.00  0.00    -0.084 Cl
HETATM   28  C   UNL     1     -39.862  52.626 -52.381  1.00  0.00     0.024 A 
HETATM   29  C   UNL     1     -40.098  52.571 -51.010  1.00  0.00     0.002 A 
HETATM   30  C   UNL     1     -41.244  53.157 -50.486  1.00  0.00     0.001 A 
HETATM   31  C   UNL     1     -42.145  53.807 -51.331  1.00  0.00     0.009 A 
ENDBRANCH  24  25
ENDBRANCH   1  24
BRANCH   5  32
HETATM   32  C   UNL     1     -43.433  57.160 -57.322  1.00  0.00     0.141 C 
BRANCH  32  33
HETATM   33  C   UNL     1     -43.292  55.880 -58.087  1.00  0.00     0.004 A 
HETATM   34  C   UNL     1     -44.187  55.585 -59.265  1.00  0.00     0.007 A 
HETATM   35  C   UNL     1     -42.729  55.885 -59.485  1.00  0.00     0.007 A 
ENDBRANCH  32  33
ENDBRANCH   5  32
TORSDOF 7
ENDMDL
MODEL 4
REMARK VINA RESULT:      -8.0      3.582      6.842
REMARK  7 active torsions:
REMARK  status: ('A' for Active; 'I' for Inactive)
REMARK    1  A    between atoms: C_7  and  C_8 
REMARK    2  A    between atoms: C_8  and  N_9 
REMARK    3  A    between atoms: C_13  and  C_14 
REMARK    4  A    between atoms: C_14  and  C_15 
REMARK    5  A    between atoms: C_15  and  C_16 
REMARK    6  A    between atoms: N_26  and  C_27 
REMARK    7  A    between atoms: C_27  and  C_28 
ROOT
HETATM    1  C   UNL     1     -43.126  57.006 -54.274  1.00  0.00     0.123 C 
HETATM    2  N   UNL     1     -43.688  56.324 -55.430  1.00  0.00    -0.324 N 
HETATM    3  C   UNL     1     -42.976  55.208 -55.802  1.00  0.00     0.326 C 
HETATM    4  O   UNL     1     -43.333  54.442 -56.677  1.00  0.00    -0.247 OA
HETATM    5  N   UNL     1     -41.834  55.172 -55.068  1.00  0.00    -0.268 N 
HETATM    6  C   UNL     1     -41.790  56.234 -54.213  1.00  0.00     0.257 C 
HETATM    7  O   UNL     1     -40.844  56.538 -53.499  1.00  0.00    -0.270 OA
HETATM    8  H   UNL     1     -44.615  56.477 -55.816  1.00  0.00     0.165 HD
ENDROOT
BRANCH   1   9
HETATM    9  C   UNL     1     -42.985  58.536 -54.567  1.00  0.00     0.027 C 
HETATM   10  C   UNL     1     -44.314  59.284 -54.802  1.00  0.00     0.035 C 
HETATM   11  C   UNL     1     -44.878  59.133 -56.205  1.00  0.00     0.235 C 
HETATM   12  N   UNL     1     -43.878  59.596 -57.229  1.00  0.00    -0.067 N 
HETATM   13  H   UNL     1     -43.783  60.612 -57.116  1.00  0.00     0.280 HD
HETATM   14  C   UNL     1     -42.511  58.983 -57.101  1.00  0.00     0.235 C 
HETATM   15  C   UNL     1     -41.999  58.966 -55.669  1.00  0.00     0.035 C 
BRANCH  12  16
HETATM   16  C   UNL     1     -44.378  59.385 -58.653  1.00  0.00     0.277 C 
BRANCH  16  17
HETATM   17  C   UNL     1     -44.089  58.041 -59.207  1.00  0.00     0.011 A 
HETATM   18  C   UNL     1     -43.022  57.681 -60.079  1.00  0.00     0.060 A 
HETATM   19  C   UNL     1     -41.961  58.547 -60.659  1.00  0.00     0.073 C 
HETATM   20  N   UNL     1     -43.029  56.376 -60.346  1.00  0.00    -0.178 NA
HETATM   21  N   UNL     1     -44.123  55.906 -59.730  1.00  0.00    -0.284 N 
HETATM   22  C   UNL     1     -44.477  54.512 -59.863  1.00  0.00     0.179 C 
HETATM   23  C   UNL     1     -44.779  56.860 -59.005  1.00  0.00     0.122 A 
ENDBRANCH  16  17
ENDBRANCH  12  16
ENDBRANCH   1   9
BRANCH   1  24
HETATM   24  C   UNL     1     -43.902  56.624 -52.973  1.00  0.00     0.082 C 
BRANCH  24  25
HETATM   25  C   UNL     1     -43.078  56.059 -51.830  1.00  0.00    -0.034 A 
HETATM   26  C   UNL     1     -42.307  56.843 -50.954  1.00  0.00     0.040 A 
HETATM   27 CL   UNL     1     -42.189  58.558 -51.099  1.00  0.00    -0.084 Cl
HETATM   28  C   UNL     1     -41.561  56.251 -49.927  1.00  0.00     0.024 A 
HETATM   29  C   UNL     1     -41.561  54.868 -49.763  1.00  0.00     0.002 A 
HETATM   30  C   UNL     1     -42.293  54.072 -50.635  1.00  0.00     0.001 A 
HETATM   31  C   UNL     1     -43.033  54.660 -51.664  1.00  0.00     0.009 A 
ENDBRANCH  24  25
ENDBRANCH   1  24
BRANCH   5  32
HETATM   32  C   UNL     1     -40.790  54.183 -55.225  1.00  0.00     0.141 C 
BRANCH  32  33
HETATM   33  C   UNL     1     -41.048  53.017 -54.320  1.00  0.00     0.004 A 
HETATM   34  C   UNL     1     -40.152  51.804 -54.353  1.00  0.00     0.007 A 
HETATM   35  C   UNL     1     -40.123  52.728 -53.166  1.00  0.00     0.007 A 
ENDBRANCH  32  33
ENDBRANCH   5  32
TORSDOF 7
ENDMDL
MODEL 5
REMARK VINA RESULT:      -7.8      3.430      7.077
REMARK  7 active torsions:
REMARK  status: ('A' for Active; 'I' for Inactive)
REMARK    1  A    between atoms: C_7  and  C_8 
REMARK    2  A    between atoms: C_8  and  N_9 
REMARK    3  A    between atoms: C_13  and  C_14 
REMARK    4  A    between atoms: C_14  and  C_15 
REMARK    5  A    between atoms: C_15  and  C_16 
REMARK    6  A    between atoms: N_26  and  C_27 
REMARK    7  A    between atoms: C_27  and  C_28 
ROOT
HETATM    1  C   UNL     1     -43.517  57.014 -53.442  1.00  0.00     0.123 C 
HETATM    2  N   UNL     1     -42.178  57.488 -53.757  1.00  0.00    -0.324 N 
HETATM    3  C   UNL     1     -41.309  57.410 -52.694  1.00  0.00     0.326 C 
HETATM    4  O   UNL     1     -40.121  57.659 -52.776  1.00  0.00    -0.247 OA
HETATM    5  N   UNL     1     -42.022  57.066 -51.591  1.00  0.00    -0.268 N 
HETATM    6  C   UNL     1     -43.338  56.905 -51.912  1.00  0.00     0.257 C 
HETATM    7  O   UNL     1     -44.247  56.701 -51.119  1.00  0.00    -0.270 OA
HETATM    8  H   UNL     1     -41.812  57.655 -54.690  1.00  0.00     0.165 HD
ENDROOT
BRANCH   1   9
HETATM    9  C   UNL     1     -44.582  58.063 -53.903  1.00  0.00     0.027 C 
HETATM   10  C   UNL     1     -45.515  57.595 -55.039  1.00  0.00     0.035 C 
HETATM   11  C   UNL     1     -44.908  57.697 -56.429  1.00  0.00     0.235 C 
HETATM   12  N   UNL     1     -44.473  59.109 -56.713  1.00  0.00    -0.067 N 
HETATM   13  H   UNL     1     -45.327  59.675 -56.782  1.00  0.00     0.280 HD
HETATM   14  C   UNL     1     -43.588  59.723 -55.665  1.00  0.00     0.235 C 
HETATM   15  C   UNL     1     -44.089  59.480 -54.248  1.00  0.00     0.035 C 
BRANCH  12  16
HETATM   16  C   UNL     1     -43.787  59.233 -58.069  1.00  0.00     0.277 C 
BRANCH  16  17
HETATM   17  C   UNL     1     -44.172  58.187 -59.044  1.00  0.00     0.011 A 
HETATM   18  C   UNL     1     -43.305  57.439 -59.891  1.00  0.00     0.060 A 
HETATM   19  C   UNL     1     -41.826  57.529 -60.023  1.00  0.00     0.073 C 
HETATM   20  N   UNL     1     -43.980  56.545 -60.612  1.00  0.00    -0.178 NA
HETATM   21  N   UNL     1     -45.267  56.758 -60.306  1.00  0.00    -0.284 N 
HETATM   22  C   UNL     1     -46.297  55.990 -60.966  1.00  0.00     0.179 C 
HETATM   23  C   UNL     1     -45.436  57.714 -59.345  1.00  0.00     0.122 A 
ENDBRANCH  16  17
ENDBRANCH  12  16
ENDBRANCH   1   9
BRANCH   1  24
HETATM   24  C   UNL     1     -43.724  55.554 -53.955  1.00  0.00     0.082 C 
BRANCH  24  25
HETATM   25  C   UNL     1     -42.471  54.722 -54.167  1.00  0.00    -0.034 A 
HETATM   26  C   UNL     1     -41.707  54.740 -55.348  1.00  0.00     0.040 A 
HETATM   27 CL   UNL     1     -42.127  55.702 -56.716  1.00  0.00    -0.084 Cl
HETATM   28  C   UNL     1     -40.568  53.935 -55.477  1.00  0.00     0.024 A 
HETATM   29  C   UNL     1     -40.178  53.092 -54.440  1.00  0.00     0.002 A 
HETATM   30  C   UNL     1     -40.935  53.038 -53.276  1.00  0.00     0.001 A 
HETATM   31  C   UNL     1     -42.074  53.834 -53.147  1.00  0.00     0.009 A 
ENDBRANCH  24  25
ENDBRANCH   1  24
BRANCH   5  32
HETATM   32  C   UNL     1     -41.469  56.955 -50.258  1.00  0.00     0.141 C 
BRANCH  32  33
HETATM   33  C   UNL     1     -40.940  55.571 -50.037  1.00  0.00     0.004 A 
HETATM   34  C   UNL     1     -40.947  54.956 -48.660  1.00  0.00     0.007 A 
HETATM   35  C   UNL     1     -41.880  54.437 -49.720  1.00  0.00     0.007 A 
ENDBRANCH  32  33
ENDBRANCH   5  32
TORSDOF 7
ENDMDL
MODEL 6
REMARK VINA RESULT:      -7.7      3.295      7.832
REMARK  7 active torsions:
REMARK  status: ('A' for Active; 'I' for Inactive)
REMARK    1  A    between atoms: C_7  and  C_8 
REMARK    2  A    between atoms: C_8  and  N_9 
REMARK    3  A    between atoms: C_13  and  C_14 
REMARK    4  A    between atoms: C_14  and  C_15 
REMARK    5  A    between atoms: C_15  and  C_16 
REMARK    6  A    between atoms: N_26  and  C_27 
REMARK    7  A    between atoms: C_27  and  C_28 
ROOT
HETATM    1  C   UNL     1     -43.593  57.275 -55.603  1.00  0.00     0.123 C 
HETATM    2  N   UNL     1     -44.781  57.723 -54.893  1.00  0.00    -0.324 N 
HETATM    3  C   UNL     1     -44.529  58.735 -53.996  1.00  0.00     0.326 C 
HETATM    4  O   UNL     1     -45.399  59.319 -53.378  1.00  0.00    -0.247 OA
HETATM    5  N   UNL     1     -43.184  58.900 -53.914  1.00  0.00    -0.268 N 
HETATM    6  C   UNL     1     -42.550  58.027 -54.748  1.00  0.00     0.257 C 
HETATM    7  O   UNL     1     -41.340  57.857 -54.819  1.00  0.00    -0.270 OA
HETATM    8  H   UNL     1     -45.741  57.510 -55.148  1.00  0.00     0.165 HD
ENDROOT
BRANCH   1   9
HETATM    9  C   UNL     1     -43.486  55.715 -55.543  1.00  0.00     0.027 C 
HETATM   10  C   UNL     1     -43.958  55.077 -54.221  1.00  0.00     0.035 C 
HETATM   11  C   UNL     1     -42.931  55.125 -53.101  1.00  0.00     0.235 C 
HETATM   12  N   UNL     1     -41.652  54.459 -53.528  1.00  0.00    -0.067 N 
HETATM   13  H   UNL     1     -41.855  53.457 -53.625  1.00  0.00     0.280 HD
HETATM   14  C   UNL     1     -41.088  54.948 -54.833  1.00  0.00     0.235 C 
HETATM   15  C   UNL     1     -42.140  55.074 -55.925  1.00  0.00     0.035 C 
BRANCH  12  16
HETATM   16  C   UNL     1     -40.570  54.558 -52.459  1.00  0.00     0.277 C 
BRANCH  16  17
HETATM   17  C   UNL     1     -40.358  53.309 -51.690  1.00  0.00     0.011 A 
HETATM   18  C   UNL     1     -40.579  53.108 -50.298  1.00  0.00     0.060 A 
HETATM   19  C   UNL     1     -41.049  54.084 -49.279  1.00  0.00     0.073 C 
HETATM   20  N   UNL     1     -40.331  51.848 -49.942  1.00  0.00    -0.178 NA
HETATM   21  N   UNL     1     -39.880  51.258 -51.058  1.00  0.00    -0.284 N 
HETATM   22  C   UNL     1     -39.452  49.880 -51.018  1.00  0.00     0.179 C 
HETATM   23  C   UNL     1     -39.906  52.085 -52.146  1.00  0.00     0.122 A 
ENDBRANCH  16  17
ENDBRANCH  12  16
ENDBRANCH   1   9
BRANCH   1  24
HETATM   24  C   UNL     1     -43.522  57.915 -57.026  1.00  0.00     0.082 C 
BRANCH  24  25
HETATM   25  C   UNL     1     -44.577  57.474 -58.025  1.00  0.00    -0.034 A 
HETATM   26  C   UNL     1     -44.329  56.590 -59.090  1.00  0.00     0.040 A 
HETATM   27 CL   UNL     1     -42.771  55.919 -59.401  1.00  0.00    -0.084 Cl
HETATM   28  C   UNL     1     -45.350  56.237 -59.982  1.00  0.00     0.024 A 
HETATM   29  C   UNL     1     -46.630  56.765 -59.835  1.00  0.00     0.002 A 
HETATM   30  C   UNL     1     -46.889  57.662 -58.806  1.00  0.00     0.001 A 
HETATM   31  C   UNL     1     -45.872  58.021 -57.919  1.00  0.00     0.009 A 
ENDBRANCH  24  25
ENDBRANCH   1  24
BRANCH   5  32
HETATM   32  C   UNL     1     -42.525  59.826 -53.017  1.00  0.00     0.141 C 
BRANCH  32  33
HETATM   33  C   UNL     1     -42.162  59.132 -51.740  1.00  0.00     0.004 A 
HETATM   34  C   UNL     1     -40.719  58.993 -51.323  1.00  0.00     0.007 A 
HETATM   35  C   UNL     1     -41.635  59.918 -50.568  1.00  0.00     0.007 A 
ENDBRANCH  32  33
ENDBRANCH   5  32
TORSDOF 7
ENDMDL
MODEL 7
REMARK VINA RESULT:      -7.7      2.047      4.743
REMARK  7 active torsions:
REMARK  status: ('A' for Active; 'I' for Inactive)
REMARK    1  A    between atoms: C_7  and  C_8 
REMARK    2  A    between atoms: C_8  and  N_9 
REMARK    3  A    between atoms: C_13  and  C_14 
REMARK    4  A    between atoms: C_14  and  C_15 
REMARK    5  A    between atoms: C_15  and  C_16 
REMARK    6  A    between atoms: N_26  and  C_27 
REMARK    7  A    between atoms: C_27  and  C_28 
ROOT
HETATM    1  C   UNL     1     -42.117  55.932 -53.081  1.00  0.00     0.123 C 
HETATM    2  N   UNL     1     -40.865  56.004 -53.819  1.00  0.00    -0.324 N 
HETATM    3  C   UNL     1     -40.516  54.816 -54.417  1.00  0.00     0.326 C 
HETATM    4  O   UNL     1     -39.563  54.692 -55.162  1.00  0.00    -0.247 OA
HETATM    5  N   UNL     1     -41.378  53.859 -53.987  1.00  0.00    -0.268 N 
HETATM    6  C   UNL     1     -42.291  54.399 -53.129  1.00  0.00     0.257 C 
HETATM    7  O   UNL     1     -43.129  53.775 -52.492  1.00  0.00    -0.270 OA
HETATM    8  H   UNL     1     -40.381  56.857 -54.084  1.00  0.00     0.165 HD
ENDROOT
BRANCH   1   9
HETATM    9  C   UNL     1     -41.930  56.524 -51.645  1.00  0.00     0.027 C 
HETATM   10  C   UNL     1     -43.228  56.683 -50.827  1.00  0.00     0.035 C 
HETATM   11  C   UNL     1     -44.033  57.927 -51.165  1.00  0.00     0.235 C 
HETATM   12  N   UNL     1     -43.195  59.164 -50.983  1.00  0.00    -0.067 N 
HETATM   13  H   UNL     1     -43.018  59.258 -49.976  1.00  0.00     0.280 HD
HETATM   14  C   UNL     1     -41.869  59.140 -51.690  1.00  0.00     0.235 C 
HETATM   15  C   UNL     1     -41.121  57.827 -51.507  1.00  0.00     0.035 C 
BRANCH  12  16
HETATM   16  C   UNL     1     -43.945  60.427 -51.390  1.00  0.00     0.277 C 
BRANCH  16  17
HETATM   17  C   UNL     1     -44.468  61.217 -50.251  1.00  0.00     0.011 A 
HETATM   18  C   UNL     1     -43.974  62.462 -49.768  1.00  0.00     0.060 A 
HETATM   19  C   UNL     1     -42.820  63.260 -50.261  1.00  0.00     0.073 C 
HETATM   20  N   UNL     1     -44.709  62.919 -48.755  1.00  0.00    -0.178 NA
HETATM   21  N   UNL     1     -45.614  61.956 -48.526  1.00  0.00    -0.284 N 
HETATM   22  C   UNL     1     -46.550  62.098 -47.436  1.00  0.00     0.179 C 
HETATM   23  C   UNL     1     -45.532  60.925 -49.418  1.00  0.00     0.122 A 
ENDBRANCH  16  17
ENDBRANCH  12  16
ENDBRANCH   1   9
BRANCH   1  24
HETATM   24  C   UNL     1     -43.291  56.524 -53.922  1.00  0.00     0.082 C 
BRANCH  24  25
HETATM   25  C   UNL     1     -42.911  57.391 -55.109  1.00  0.00    -0.034 A 
HETATM   26  C   UNL     1     -42.761  56.905 -56.420  1.00  0.00     0.040 A 
HETATM   27 CL   UNL     1     -42.973  55.243 -56.828  1.00  0.00    -0.084 Cl
HETATM   28  C   UNL     1     -42.395  57.763 -57.466  1.00  0.00     0.024 A 
HETATM   29  C   UNL     1     -42.160  59.113 -57.221  1.00  0.00     0.002 A 
HETATM   30  C   UNL     1     -42.274  59.608 -55.928  1.00  0.00     0.001 A 
HETATM   31  C   UNL     1     -42.633  58.754 -54.883  1.00  0.00     0.009 A 
ENDBRANCH  24  25
ENDBRANCH   1  24
BRANCH   5  32
HETATM   32  C   UNL     1     -41.290  52.458 -54.339  1.00  0.00     0.141 C 
BRANCH  32  33
HETATM   33  C   UNL     1     -39.950  51.914 -53.949  1.00  0.00     0.004 A 
HETATM   34  C   UNL     1     -39.822  50.921 -52.821  1.00  0.00     0.007 A 
HETATM   35  C   UNL     1     -39.595  50.480 -54.242  1.00  0.00     0.007 A 
ENDBRANCH  32  33
ENDBRANCH   5  32
TORSDOF 7
ENDMDL
MODEL 8
REMARK VINA RESULT:      -7.7      2.985      6.569
REMARK  7 active torsions:
REMARK  status: ('A' for Active; 'I' for Inactive)
REMARK    1  A    between atoms: C_7  and  C_8 
REMARK    2  A    between atoms: C_8  and  N_9 
REMARK    3  A    between atoms: C_13  and  C_14 
REMARK    4  A    between atoms: C_14  and  C_15 
REMARK    5  A    between atoms: C_15  and  C_16 
REMARK    6  A    between atoms: N_26  and  C_27 
REMARK    7  A    between atoms: C_27  and  C_28 
ROOT
HETATM    1  C   UNL     1     -42.767  55.586 -53.148  1.00  0.00     0.123 C 
HETATM    2  N   UNL     1     -41.555  55.990 -53.844  1.00  0.00    -0.324 N 
HETATM    3  C   UNL     1     -40.985  57.130 -53.326  1.00  0.00     0.326 C 
HETATM    4  O   UNL     1     -39.916  57.575 -53.697  1.00  0.00    -0.247 OA
HETATM    5  N   UNL     1     -41.839  57.649 -52.408  1.00  0.00    -0.268 N 
HETATM    6  C   UNL     1     -42.951  56.865 -52.303  1.00  0.00     0.257 C 
HETATM    7  O   UNL     1     -43.948  57.124 -51.641  1.00  0.00    -0.270 OA
HETATM    8  H   UNL     1     -41.024  55.415 -54.491  1.00  0.00     0.165 HD
ENDROOT
BRANCH   1   9
HETATM    9  C   UNL     1     -43.913  55.312 -54.178  1.00  0.00     0.027 C 
HETATM   10  C   UNL     1     -43.510  54.452 -55.393  1.00  0.00     0.035 C 
HETATM   11  C   UNL     1     -42.793  55.219 -56.493  1.00  0.00     0.235 C 
HETATM   12  N   UNL     1     -43.639  56.367 -56.973  1.00  0.00    -0.067 N 
HETATM   13  H   UNL     1     -44.450  55.959 -57.454  1.00  0.00     0.280 HD
HETATM   14  C   UNL     1     -44.149  57.277 -55.890  1.00  0.00     0.235 C 
HETATM   15  C   UNL     1     -44.714  56.520 -54.696  1.00  0.00     0.035 C 
BRANCH  12  16
HETATM   16  C   UNL     1     -42.920  57.208 -58.021  1.00  0.00     0.277 C 
BRANCH  16  17
HETATM   17  C   UNL     1     -43.821  57.869 -58.994  1.00  0.00     0.011 A 
HETATM   18  C   UNL     1     -43.466  58.844 -59.970  1.00  0.00     0.060 A 
HETATM   19  C   UNL     1     -42.134  59.447 -60.243  1.00  0.00     0.073 C 
HETATM   20  N   UNL     1     -44.516  59.194 -60.713  1.00  0.00    -0.178 NA
HETATM   21  N   UNL     1     -45.550  58.527 -60.182  1.00  0.00    -0.284 N 
HETATM   22  C   UNL     1     -46.878  58.723 -60.714  1.00  0.00     0.179 C 
HETATM   23  C   UNL     1     -45.181  57.692 -59.166  1.00  0.00     0.122 A 
ENDBRANCH  16  17
ENDBRANCH  12  16
ENDBRANCH   1   9
BRANCH   1  24
HETATM   24  C   UNL     1     -42.468  54.440 -52.131  1.00  0.00     0.082 C 
BRANCH  24  25
HETATM   25  C   UNL     1     -41.379  53.454 -52.516  1.00  0.00    -0.034 A 
HETATM   26  C   UNL     1     -40.297  53.114 -51.685  1.00  0.00     0.040 A 
HETATM   27 CL   UNL     1     -40.069  53.807 -50.121  1.00  0.00    -0.084 Cl
HETATM   28  C   UNL     1     -39.321  52.205 -52.112  1.00  0.00     0.024 A 
HETATM   29  C   UNL     1     -39.399  51.629 -53.377  1.00  0.00     0.002 A 
HETATM   30  C   UNL     1     -40.444  51.973 -54.226  1.00  0.00     0.001 A 
HETATM   31  C   UNL     1     -41.415  52.884 -53.805  1.00  0.00     0.009 A 
ENDBRANCH  24  25
ENDBRANCH   1  24
BRANCH   5  32
HETATM   32  C   UNL     1     -41.623  58.890 -51.697  1.00  0.00     0.141 C 
BRANCH  32  33
HETATM   33  C   UNL     1     -40.569  58.704 -50.648  1.00  0.00     0.004 A 
HETATM   34  C   UNL     1     -39.187  59.277 -50.836  1.00  0.00     0.007 A 
HETATM   35  C   UNL     1     -40.114  59.869 -49.809  1.00  0.00     0.007 A 
ENDBRANCH  32  33
ENDBRANCH   5  32
TORSDOF 7
ENDMDL
MODEL 9
REMARK VINA RESULT:      -7.6      2.722      7.127
REMARK  7 active torsions:
REMARK  status: ('A' for Active; 'I' for Inactive)
REMARK    1  A    between atoms: C_7  and  C_8 
REMARK    2  A    between atoms: C_8  and  N_9 
REMARK    3  A    between atoms: C_13  and  C_14 
REMARK    4  A    between atoms: C_14  and  C_15 
REMARK    5  A    between atoms: C_15  and  C_16 
REMARK    6  A    between atoms: N_26  and  C_27 
REMARK    7  A    between atoms: C_27  and  C_28 
ROOT
HETATM    1  C   UNL     1     -42.416  57.369 -53.498  1.00  0.00     0.123 C 
HETATM    2  N   UNL     1     -42.304  58.574 -54.306  1.00  0.00    -0.324 N 
HETATM    3  C   UNL     1     -42.386  59.733 -53.570  1.00  0.00     0.326 C 
HETATM    4  O   UNL     1     -42.214  60.842 -54.039  1.00  0.00    -0.247 OA
HETATM    5  N   UNL     1     -42.728  59.401 -52.299  1.00  0.00    -0.268 N 
HETATM    6  C   UNL     1     -42.859  58.048 -52.184  1.00  0.00     0.257 C 
HETATM    7  O   UNL     1     -43.263  57.451 -51.195  1.00  0.00    -0.270 OA
HETATM    8  H   UNL     1     -41.978  58.615 -55.267  1.00  0.00     0.165 HD
ENDROOT
BRANCH   1   9
HETATM    9  C   UNL     1     -43.472  56.398 -54.122  1.00  0.00     0.027 C 
HETATM   10  C   UNL     1     -43.027  55.693 -55.420  1.00  0.00     0.035 C 
HETATM   11  C   UNL     1     -43.164  56.542 -56.673  1.00  0.00     0.235 C 
HETATM   12  N   UNL     1     -44.584  57.011 -56.841  1.00  0.00    -0.067 N 
HETATM   13  H   UNL     1     -45.149  56.180 -57.051  1.00  0.00     0.280 HD
HETATM   14  C   UNL     1     -45.176  57.685 -55.635  1.00  0.00     0.235 C 
HETATM   15  C   UNL     1     -44.898  56.936 -54.340  1.00  0.00     0.035 C 
BRANCH  12  16
HETATM   16  C   UNL     1     -44.742  57.933 -58.045  1.00  0.00     0.277 C 
BRANCH  16  17
HETATM   17  C   UNL     1     -45.449  57.318 -59.193  1.00  0.00     0.011 A 
HETATM   18  C   UNL     1     -44.994  56.242 -60.006  1.00  0.00     0.060 A 
HETATM   19  C   UNL     1     -43.713  55.490 -59.926  1.00  0.00     0.073 C 
HETATM   20  N   UNL     1     -45.901  55.906 -60.924  1.00  0.00    -0.178 NA
HETATM   21  N   UNL     1     -46.892  56.796 -60.767  1.00  0.00    -0.284 N 
HETATM   22  C   UNL     1     -48.031  56.762 -61.654  1.00  0.00     0.179 C 
HETATM   23  C   UNL     1     -46.684  57.647 -59.719  1.00  0.00     0.122 A 
ENDBRANCH  16  17
ENDBRANCH  12  16
ENDBRANCH   1   9
BRANCH   1  24
HETATM   24  C   UNL     1     -41.007  56.761 -53.212  1.00  0.00     0.082 C 
BRANCH  24  25
HETATM   25  C   UNL     1     -40.821  55.290 -53.538  1.00  0.00    -0.034 A 
HETATM   26  C   UNL     1     -41.148  54.242 -52.659  1.00  0.00     0.040 A 
HETATM   27 CL   UNL     1     -41.783  54.515 -51.079  1.00  0.00    -0.084 Cl
HETATM   28  C   UNL     1     -40.937  52.906 -53.024  1.00  0.00     0.024 A 
HETATM   29  C   UNL     1     -40.386  52.592 -54.264  1.00  0.00     0.002 A 
HETATM   30  C   UNL     1     -40.029  53.613 -55.136  1.00  0.00     0.001 A 
HETATM   31  C   UNL     1     -40.232  54.946 -54.772  1.00  0.00     0.009 A 
ENDBRANCH  24  25
ENDBRANCH   1  24
BRANCH   5  32
HETATM   32  C   UNL     1     -42.982  60.357 -51.242  1.00  0.00     0.141 C 
BRANCH  32  33
HETATM   33  C   UNL     1     -44.422  60.769 -51.258  1.00  0.00     0.004 A 
HETATM   34  C   UNL     1     -45.344  60.388 -50.126  1.00  0.00     0.007 A 
HETATM   35  C   UNL     1     -44.924  61.822 -50.305  1.00  0.00     0.007 A 
ENDBRANCH  32  33
ENDBRANCH   5  32
TORSDOF 7
ENDMDL
MODEL 10
REMARK VINA RESULT:      -7.5      1.927      2.711
REMARK  7 active torsions:
REMARK  status: ('A' for Active; 'I' for Inactive)
REMARK    1  A    between atoms: C_7  and  C_8 
REMARK    2  A    between atoms: C_8  and  N_9 
REMARK    3  A    between atoms: C_13  and  C_14 
REMARK    4  A    between atoms: C_14  and  C_15 
REMARK    5  A    between atoms: C_15  and  C_16 
REMARK    6  A    between atoms: N_26  and  C_27 
REMARK    7  A    between atoms: C_27  and  C_28 
ROOT
HETATM    1  C   UNL     1     -43.070  56.401 -53.947  1.00  0.00     0.123 C 
HETATM    2  N   UNL     1     -44.311  57.155 -54.037  1.00  0.00    -0.324 N 
HETATM    3  C   UNL     1     -44.692  57.423 -55.331  1.00  0.00     0.326 C 
HETATM    4  O   UNL     1     -45.747  57.950 -55.626  1.00  0.00    -0.247 OA
HETATM    5  N   UNL     1     -43.681  57.045 -56.155  1.00  0.00    -0.268 N 
HETATM    6  C   UNL     1     -42.651  56.523 -55.428  1.00  0.00     0.257 C 
HETATM    7  O   UNL     1     -41.559  56.194 -55.871  1.00  0.00    -0.270 OA
HETATM    8  H   UNL     1     -44.975  57.296 -53.282  1.00  0.00     0.165 HD
ENDROOT
BRANCH   1   9
HETATM    9  C   UNL     1     -42.095  57.089 -52.933  1.00  0.00     0.027 C 
HETATM   10  C   UNL     1     -42.776  57.764 -51.725  1.00  0.00     0.035 C 
HETATM   11  C   UNL     1     -43.342  59.144 -52.016  1.00  0.00     0.235 C 
HETATM   12  N   UNL     1     -42.266  60.058 -52.536  1.00  0.00    -0.067 N 
HETATM   13  H   UNL     1     -41.615  60.224 -51.759  1.00  0.00     0.280 HD
HETATM   14  C   UNL     1     -41.479  59.514 -53.696  1.00  0.00     0.235 C 
HETATM   15  C   UNL     1     -41.050  58.068 -53.497  1.00  0.00     0.035 C 
BRANCH  12  16
HETATM   16  C   UNL     1     -42.814  61.429 -52.915  1.00  0.00     0.277 C 
BRANCH  16  17
HETATM   17  C   UNL     1     -44.202  61.676 -52.460  1.00  0.00     0.011 A 
HETATM   18  C   UNL     1     -44.623  62.064 -51.156  1.00  0.00     0.060 A 
HETATM   19  C   UNL     1     -43.797  62.294 -49.940  1.00  0.00     0.073 C 
HETATM   20  N   UNL     1     -45.942  62.246 -51.103  1.00  0.00    -0.178 NA
HETATM   21  N   UNL     1     -46.384  61.907 -52.322  1.00  0.00    -0.284 N 
HETATM   22  C   UNL     1     -47.800  61.929 -52.602  1.00  0.00     0.179 C 
HETATM   23  C   UNL     1     -45.375  61.586 -53.186  1.00  0.00     0.122 A 
ENDBRANCH  16  17
ENDBRANCH  12  16
ENDBRANCH   1   9
BRANCH   1  24
HETATM   24  C   UNL     1     -43.357  54.886 -53.705  1.00  0.00     0.082 C 
BRANCH  24  25
HETATM   25  C   UNL     1     -42.284  54.097 -52.974  1.00  0.00    -0.034 A 
HETATM   26  C   UNL     1     -42.265  53.900 -51.582  1.00  0.00     0.040 A 
HETATM   27 CL   UNL     1     -43.461  54.562 -50.531  1.00  0.00    -0.084 Cl
HETATM   28  C   UNL     1     -41.235  53.171 -50.975  1.00  0.00     0.024 A 
HETATM   29  C   UNL     1     -40.203  52.636 -51.740  1.00  0.00     0.002 A 
HETATM   30  C   UNL     1     -40.187  52.844 -53.114  1.00  0.00     0.001 A 
HETATM   31  C   UNL     1     -41.209  53.576 -53.722  1.00  0.00     0.009 A 
ENDBRANCH  24  25
ENDBRANCH   1  24
BRANCH   5  32
HETATM   32  C   UNL     1     -43.677  57.235 -57.589  1.00  0.00     0.141 C 
BRANCH  32  33
HETATM   33  C   UNL     1     -43.545  55.913 -58.281  1.00  0.00     0.004 A 
HETATM   34  C   UNL     1     -44.292  55.636 -59.562  1.00  0.00     0.007 A 
HETATM   35  C   UNL     1     -42.797  55.806 -59.584  1.00  0.00     0.007 A 
ENDBRANCH  32  33
ENDBRANCH   5  32
TORSDOF 7
ENDMDL
