MODEL 1
REMARK VINA RESULT:      -7.4      0.000      0.000
REMARK  4 active torsions:
REMARK  status: ('A' for Active; 'I' for Inactive)
REMARK    1  A    between atoms: C_5  and  N_6 
REMARK    2  A    between atoms: N_9  and  C_11 
REMARK    3  A    between atoms: C_11  and  C_12 
REMARK    4  A    between atoms: C_13  and  O_14 
ROOT
HETATM    1  N   UNL     1     -42.377  55.436 -50.504  1.00  0.00    -0.363 N 
HETATM    2  C   UNL     1     -43.725  55.886 -50.877  1.00  0.00     0.152 C 
HETATM    3  C   UNL     1     -43.729  57.081 -51.852  1.00  0.00     0.255 C 
HETATM    4  N   UNL     1     -43.312  58.352 -51.118  1.00  0.00    -0.066 N 
HETATM    5  H   UNL     1     -43.633  58.248 -50.139  1.00  0.00     0.280 HD
HETATM    6  C   UNL     1     -41.841  58.630 -51.078  1.00  0.00     0.237 C 
HETATM    7  C   UNL     1     -40.942  57.425 -50.826  1.00  0.00     0.047 C 
HETATM    8  C   UNL     1     -41.481  56.389 -49.844  1.00  0.00     0.126 C 
ENDROOT
BRANCH   4   9
HETATM    9  C   UNL     1     -44.092  59.568 -51.579  1.00  0.00     0.276 C 
BRANCH   9  10
HETATM   10  C   UNL     1     -44.353  60.580 -50.493  1.00  0.00     0.002 A 
HETATM   11  C   UNL     1     -45.201  60.303 -49.410  1.00  0.00     0.073 A 
HETATM   12  C   UNL     1     -45.415  61.236 -48.397  1.00  0.00     0.038 A 
HETATM   13  C   UNL     1     -44.766  62.470 -48.449  1.00  0.00     0.022 A 
HETATM   14  C   UNL     1     -43.908  62.755 -49.509  1.00  0.00     0.011 A 
HETATM   15 BR   UNL     1     -43.020  64.422 -49.574  1.00  0.00    -0.051 Br
HETATM   16  C   UNL     1     -43.695  61.820 -50.523  1.00  0.00     0.030 A 
BRANCH  11  17
HETATM   17  O   UNL     1     -45.841  59.091 -49.376  1.00  0.00    -0.360 OA
HETATM   18  H   UNL     1     -46.504  59.127 -48.655  1.00  0.00     0.217 HD
ENDBRANCH  11  17
ENDBRANCH   9  10
ENDBRANCH   4   9
BRANCH   1  19
HETATM   19  C   UNL     1     -41.808  54.534 -51.419  1.00  0.00     0.147 A 
HETATM   20  N   UNL     1     -42.393  54.347 -52.622  1.00  0.00    -0.132 NA
HETATM   21  N   UNL     1     -41.888  53.459 -53.542  1.00  0.00    -0.153 NA
HETATM   22  C   UNL     1     -40.790  52.738 -53.248  1.00  0.00     0.053 A 
HETATM   23  C   UNL     1     -40.296  51.761 -54.266  1.00  0.00     0.072 C 
HETATM   24  C   UNL     1     -40.143  52.903 -52.036  1.00  0.00     0.032 A 
HETATM   25  C   UNL     1     -40.662  53.812 -51.113  1.00  0.00     0.054 A 
ENDBRANCH   1  19
TORSDOF 4
ENDMDL
MODEL 2
REMARK VINA RESULT:      -7.0      2.670      3.939
REMARK  4 active torsions:
REMARK  status: ('A' for Active; 'I' for Inactive)
REMARK    1  A    between atoms: C_5  and  N_6 
REMARK    2  A    between atoms: N_9  and  C_11 
REMARK    3  A    between atoms: C_11  and  C_12 
REMARK    4  A    between atoms: C_13  and  O_14 
ROOT
HETATM    1  N   UNL     1     -40.606  54.595 -53.971  1.00  0.00    -0.363 N 
HETATM    2  C   UNL     1     -40.846  55.731 -53.070  1.00  0.00     0.152 C 
HETATM    3  C   UNL     1     -42.299  55.821 -52.564  1.00  0.00     0.255 C 
HETATM    4  N   UNL     1     -43.215  56.290 -53.691  1.00  0.00    -0.066 N 
HETATM    5  H   UNL     1     -42.647  56.908 -54.297  1.00  0.00     0.280 HD
HETATM    6  C   UNL     1     -43.783  55.211 -54.563  1.00  0.00     0.237 C 
HETATM    7  C   UNL     1     -42.823  54.090 -54.945  1.00  0.00     0.047 C 
HETATM    8  C   UNL     1     -41.381  54.513 -55.210  1.00  0.00     0.126 C 
ENDROOT
BRANCH   4   9
HETATM    9  C   UNL     1     -44.297  57.233 -53.203  1.00  0.00     0.276 C 
BRANCH   9  10
HETATM   10  C   UNL     1     -43.791  58.594 -52.796  1.00  0.00     0.002 A 
HETATM   11  C   UNL     1     -42.929  59.339 -53.614  1.00  0.00     0.073 A 
HETATM   12  C   UNL     1     -42.488  60.607 -53.241  1.00  0.00     0.038 A 
HETATM   13  C   UNL     1     -42.919  61.158 -52.034  1.00  0.00     0.022 A 
HETATM   14  C   UNL     1     -43.788  60.438 -51.217  1.00  0.00     0.011 A 
HETATM   15 BR   UNL     1     -44.381  61.188 -49.587  1.00  0.00    -0.051 Br
HETATM   16  C   UNL     1     -44.229  59.168 -51.592  1.00  0.00     0.030 A 
BRANCH  11  17
HETATM   17  O   UNL     1     -42.505  58.782 -54.793  1.00  0.00    -0.360 OA
HETATM   18  H   UNL     1     -42.467  57.811 -54.664  1.00  0.00     0.217 HD
ENDBRANCH  11  17
ENDBRANCH   9  10
ENDBRANCH   4   9
BRANCH   1  19
HETATM   19  C   UNL     1     -40.318  53.393 -53.302  1.00  0.00     0.147 A 
HETATM   20  N   UNL     1     -40.292  53.372 -51.951  1.00  0.00    -0.132 NA
HETATM   21  N   UNL     1     -39.994  52.227 -51.251  1.00  0.00    -0.153 NA
HETATM   22  C   UNL     1     -39.702  51.092 -51.913  1.00  0.00     0.053 A 
HETATM   23  C   UNL     1     -39.352  49.880 -51.110  1.00  0.00     0.072 C 
HETATM   24  C   UNL     1     -39.730  51.055 -53.295  1.00  0.00     0.032 A 
HETATM   25  C   UNL     1     -40.041  52.222 -53.995  1.00  0.00     0.054 A 
ENDBRANCH   1  19
TORSDOF 4
ENDMDL
MODEL 3
REMARK VINA RESULT:      -7.0      5.347      7.390
REMARK  4 active torsions:
REMARK  status: ('A' for Active; 'I' for Inactive)
REMARK    1  A    between atoms: C_5  and  N_6 
REMARK    2  A    between atoms: N_9  and  C_11 
REMARK    3  A    between atoms: C_11  and  C_12 
REMARK    4  A    between atoms: C_13  and  O_14 
ROOT
HETATM    1  N   UNL     1     -42.579  56.880 -56.287  1.00  0.00    -0.363 N 
HETATM    2  C   UNL     1     -42.135  55.650 -55.617  1.00  0.00     0.152 C 
HETATM    3  C   UNL     1     -43.163  55.090 -54.613  1.00  0.00     0.255 C 
HETATM    4  N   UNL     1     -43.204  55.969 -53.366  1.00  0.00    -0.066 N 
HETATM    5  H   UNL     1     -42.253  56.360 -53.247  1.00  0.00     0.280 HD
HETATM    6  C   UNL     1     -44.157  57.124 -53.412  1.00  0.00     0.237 C 
HETATM    7  C   UNL     1     -44.218  57.885 -54.730  1.00  0.00     0.047 C 
HETATM    8  C   UNL     1     -42.889  58.050 -55.463  1.00  0.00     0.126 C 
ENDROOT
BRANCH   4   9
HETATM    9  C   UNL     1     -43.375  55.161 -52.094  1.00  0.00     0.276 C 
BRANCH   9  10
HETATM   10  C   UNL     1     -42.078  54.713 -51.470  1.00  0.00     0.002 A 
HETATM   11  C   UNL     1     -41.475  55.423 -50.421  1.00  0.00     0.073 A 
HETATM   12  C   UNL     1     -40.290  54.985 -49.834  1.00  0.00     0.038 A 
HETATM   13  C   UNL     1     -39.691  53.809 -50.286  1.00  0.00     0.022 A 
HETATM   14  C   UNL     1     -40.285  53.082 -51.315  1.00  0.00     0.011 A 
HETATM   15 BR   UNL     1     -39.480  51.484 -51.920  1.00  0.00    -0.051 Br
HETATM   16  C   UNL     1     -41.472  53.523 -51.903  1.00  0.00     0.030 A 
BRANCH  11  17
HETATM   17  O   UNL     1     -42.069  56.582 -49.994  1.00  0.00    -0.360 OA
HETATM   18  H   UNL     1     -42.687  56.348 -49.270  1.00  0.00     0.217 HD
ENDBRANCH  11  17
ENDBRANCH   9  10
ENDBRANCH   4   9
BRANCH   1  19
HETATM   19  C   UNL     1     -43.378  56.651 -57.420  1.00  0.00     0.147 A 
HETATM   20  N   UNL     1     -44.364  57.523 -57.727  1.00  0.00    -0.132 NA
HETATM   21  N   UNL     1     -45.187  57.333 -58.812  1.00  0.00    -0.153 NA
HETATM   22  C   UNL     1     -45.030  56.247 -59.591  1.00  0.00     0.053 A 
HETATM   23  C   UNL     1     -45.969  56.064 -60.740  1.00  0.00     0.072 C 
HETATM   24  C   UNL     1     -44.026  55.332 -59.331  1.00  0.00     0.032 A 
HETATM   25  C   UNL     1     -43.193  55.539 -58.231  1.00  0.00     0.054 A 
ENDBRANCH   1  19
TORSDOF 4
ENDMDL
MODEL 4
REMARK VINA RESULT:      -7.0      3.620      8.212
REMARK  4 active torsions:
REMARK  status: ('A' for Active; 'I' for Inactive)
REMARK    1  A    between atoms: C_5  and  N_6 
REMARK    2  A    between atoms: N_9  and  C_11 
REMARK    3  A    between atoms: C_11  and  C_12 
REMARK    4  A    between atoms: C_13  and  O_14 
ROOT
HETATM    1  N   UNL     1     -44.359  59.836 -51.631  1.00  0.00    -0.363 N 
HETATM    2  C   UNL     1     -45.232  58.662 -51.771  1.00  0.00     0.152 C 
HETATM    3  C   UNL     1     -44.756  57.439 -50.962  1.00  0.00     0.255 C 
HETATM    4  N   UNL     1     -43.525  56.826 -51.623  1.00  0.00    -0.066 N 
HETATM    5  H   UNL     1     -43.617  56.999 -52.639  1.00  0.00     0.280 HD
HETATM    6  C   UNL     1     -42.204  57.389 -51.193  1.00  0.00     0.237 C 
HETATM    7  C   UNL     1     -42.149  58.902 -51.024  1.00  0.00     0.047 C 
HETATM    8  C   UNL     1     -42.956  59.713 -52.034  1.00  0.00     0.126 C 
ENDROOT
BRANCH   4   9
HETATM    9  C   UNL     1     -43.527  55.311 -51.557  1.00  0.00     0.276 C 
BRANCH   9  10
HETATM   10  C   UNL     1     -43.021  54.640 -52.809  1.00  0.00     0.002 A 
HETATM   11  C   UNL     1     -43.577  54.905 -54.069  1.00  0.00     0.073 A 
HETATM   12  C   UNL     1     -43.084  54.299 -55.223  1.00  0.00     0.038 A 
HETATM   13  C   UNL     1     -42.007  53.418 -55.131  1.00  0.00     0.022 A 
HETATM   14  C   UNL     1     -41.432  53.156 -53.890  1.00  0.00     0.011 A 
HETATM   15 BR   UNL     1     -39.965  51.970 -53.767  1.00  0.00    -0.051 Br
HETATM   16  C   UNL     1     -41.927  53.763 -52.735  1.00  0.00     0.030 A 
BRANCH  11  17
HETATM   17  O   UNL     1     -44.642  55.766 -54.144  1.00  0.00    -0.360 OA
HETATM   18  H   UNL     1     -44.320  56.657 -53.893  1.00  0.00     0.217 HD
ENDBRANCH  11  17
ENDBRANCH   9  10
ENDBRANCH   4   9
BRANCH   1  19
HETATM   19  C   UNL     1     -44.645  60.624 -50.503  1.00  0.00     0.147 A 
HETATM   20  N   UNL     1     -45.674  60.283 -49.695  1.00  0.00    -0.132 NA
HETATM   21  N   UNL     1     -46.008  61.034 -48.593  1.00  0.00    -0.153 NA
HETATM   22  C   UNL     1     -45.312  62.149 -48.304  1.00  0.00     0.053 A 
HETATM   23  C   UNL     1     -45.732  62.951 -47.114  1.00  0.00     0.072 C 
HETATM   24  C   UNL     1     -44.240  62.534 -49.088  1.00  0.00     0.032 A 
HETATM   25  C   UNL     1     -43.906  61.760 -50.201  1.00  0.00     0.054 A 
ENDBRANCH   1  19
TORSDOF 4
ENDMDL
MODEL 5
REMARK VINA RESULT:      -6.9      1.826      2.513
REMARK  4 active torsions:
REMARK  status: ('A' for Active; 'I' for Inactive)
REMARK    1  A    between atoms: C_5  and  N_6 
REMARK    2  A    between atoms: N_9  and  C_11 
REMARK    3  A    between atoms: C_11  and  C_12 
REMARK    4  A    between atoms: C_13  and  O_14 
ROOT
HETATM    1  N   UNL     1     -41.222  56.577 -53.442  1.00  0.00    -0.363 N 
HETATM    2  C   UNL     1     -41.529  56.932 -52.049  1.00  0.00     0.152 C 
HETATM    3  C   UNL     1     -42.999  56.681 -51.658  1.00  0.00     0.255 C 
HETATM    4  N   UNL     1     -43.897  57.727 -52.312  1.00  0.00    -0.066 N 
HETATM    5  H   UNL     1     -43.334  58.592 -52.395  1.00  0.00     0.280 HD
HETATM    6  C   UNL     1     -44.400  57.390 -53.683  1.00  0.00     0.237 C 
HETATM    7  C   UNL     1     -43.390  56.741 -54.622  1.00  0.00     0.047 C 
HETATM    8  C   UNL     1     -41.957  57.253 -54.513  1.00  0.00     0.126 C 
ENDROOT
BRANCH   4   9
HETATM    9  C   UNL     1     -45.027  58.169 -51.403  1.00  0.00     0.276 C 
BRANCH   9  10
HETATM   10  C   UNL     1     -44.962  59.622 -51.003  1.00  0.00     0.002 A 
HETATM   11  C   UNL     1     -45.426  60.069 -49.758  1.00  0.00     0.073 A 
HETATM   12  C   UNL     1     -45.338  61.410 -49.388  1.00  0.00     0.038 A 
HETATM   13  C   UNL     1     -44.765  62.330 -50.266  1.00  0.00     0.022 A 
HETATM   14  C   UNL     1     -44.284  61.900 -51.500  1.00  0.00     0.011 A 
HETATM   15 BR   UNL     1     -43.499  63.144 -52.686  1.00  0.00    -0.051 Br
HETATM   16  C   UNL     1     -44.374  60.556 -51.870  1.00  0.00     0.030 A 
BRANCH  11  17
HETATM   17  O   UNL     1     -45.996  59.156 -48.908  1.00  0.00    -0.360 OA
HETATM   18  H   UNL     1     -46.156  58.336 -49.420  1.00  0.00     0.217 HD
ENDBRANCH  11  17
ENDBRANCH   9  10
ENDBRANCH   4   9
BRANCH   1  19
HETATM   19  C   UNL     1     -40.910  55.219 -53.624  1.00  0.00     0.147 A 
HETATM   20  N   UNL     1     -40.976  54.373 -52.572  1.00  0.00    -0.132 NA
HETATM   21  N   UNL     1     -40.659  53.040 -52.694  1.00  0.00    -0.153 NA
HETATM   22  C   UNL     1     -40.256  52.552 -53.882  1.00  0.00     0.053 A 
HETATM   23  C   UNL     1     -39.891  51.104 -53.959  1.00  0.00     0.072 C 
HETATM   24  C   UNL     1     -40.187  53.371 -54.994  1.00  0.00     0.032 A 
HETATM   25  C   UNL     1     -40.517  54.720 -54.859  1.00  0.00     0.054 A 
ENDBRANCH   1  19
TORSDOF 4
ENDMDL
MODEL 6
REMARK VINA RESULT:      -6.9      2.363      2.832
REMARK  4 active torsions:
REMARK  status: ('A' for Active; 'I' for Inactive)
REMARK    1  A    between atoms: C_5  and  N_6 
REMARK    2  A    between atoms: N_9  and  C_11 
REMARK    3  A    between atoms: C_11  and  C_12 
REMARK    4  A    between atoms: C_13  and  O_14 
ROOT
HETATM    1  N   UNL     1     -41.585  54.284 -51.735  1.00  0.00    -0.363 N 
HETATM    2  C   UNL     1     -43.050  54.291 -51.840  1.00  0.00     0.152 C 
HETATM    3  C   UNL     1     -43.574  54.958 -53.127  1.00  0.00     0.255 C 
HETATM    4  N   UNL     1     -43.394  56.470 -53.041  1.00  0.00    -0.066 N 
HETATM    5  H   UNL     1     -43.477  56.722 -52.040  1.00  0.00     0.280 HD
HETATM    6  C   UNL     1     -42.078  57.000 -53.524  1.00  0.00     0.237 C 
HETATM    7  C   UNL     1     -40.849  56.188 -53.133  1.00  0.00     0.047 C 
HETATM    8  C   UNL     1     -40.879  55.568 -51.739  1.00  0.00     0.126 C 
ENDROOT
BRANCH   4   9
HETATM    9  C   UNL     1     -44.554  57.228 -53.656  1.00  0.00     0.276 C 
BRANCH   9  10
HETATM   10  C   UNL     1     -45.051  58.379 -52.819  1.00  0.00     0.002 A 
HETATM   11  C   UNL     1     -45.324  58.237 -51.450  1.00  0.00     0.073 A 
HETATM   12  C   UNL     1     -45.758  59.315 -50.680  1.00  0.00     0.038 A 
HETATM   13  C   UNL     1     -45.914  60.567 -51.274  1.00  0.00     0.022 A 
HETATM   14  C   UNL     1     -45.631  60.729 -52.628  1.00  0.00     0.011 A 
HETATM   15 BR   UNL     1     -45.832  62.428 -53.432  1.00  0.00    -0.051 Br
HETATM   16  C   UNL     1     -45.197  59.649 -53.399  1.00  0.00     0.030 A 
BRANCH  11  17
HETATM   17  O   UNL     1     -45.176  56.999 -50.881  1.00  0.00    -0.360 OA
HETATM   18  H   UNL     1     -45.416  56.332 -51.558  1.00  0.00     0.217 HD
ENDBRANCH  11  17
ENDBRANCH   9  10
ENDBRANCH   4   9
BRANCH   1  19
HETATM   19  C   UNL     1     -40.974  53.204 -52.396  1.00  0.00     0.147 A 
HETATM   20  N   UNL     1     -41.342  52.904 -53.662  1.00  0.00    -0.132 NA
HETATM   21  N   UNL     1     -40.791  51.844 -54.343  1.00  0.00    -0.153 NA
HETATM   22  C   UNL     1     -39.871  51.066 -53.743  1.00  0.00     0.053 A 
HETATM   23  C   UNL     1     -39.323  49.905 -54.511  1.00  0.00     0.072 C 
HETATM   24  C   UNL     1     -39.448  51.339 -52.455  1.00  0.00     0.032 A 
HETATM   25  C   UNL     1     -40.009  52.421 -51.776  1.00  0.00     0.054 A 
ENDBRANCH   1  19
TORSDOF 4
ENDMDL
MODEL 7
REMARK VINA RESULT:      -6.9      6.018      8.564
REMARK  4 active torsions:
REMARK  status: ('A' for Active; 'I' for Inactive)
REMARK    1  A    between atoms: C_5  and  N_6 
REMARK    2  A    between atoms: N_9  and  C_11 
REMARK    3  A    between atoms: C_11  and  C_12 
REMARK    4  A    between atoms: C_13  and  O_14 
ROOT
HETATM    1  N   UNL     1     -43.650  58.650 -56.979  1.00  0.00    -0.363 N 
HETATM    2  C   UNL     1     -43.032  58.059 -55.783  1.00  0.00     0.152 C 
HETATM    3  C   UNL     1     -42.141  56.839 -56.089  1.00  0.00     0.255 C 
HETATM    4  N   UNL     1     -43.010  55.638 -56.452  1.00  0.00    -0.066 N 
HETATM    5  H   UNL     1     -43.895  55.743 -55.926  1.00  0.00     0.280 HD
HETATM    6  C   UNL     1     -43.366  55.505 -57.901  1.00  0.00     0.237 C 
HETATM    7  C   UNL     1     -43.735  56.799 -58.618  1.00  0.00     0.047 C 
HETATM    8  C   UNL     1     -44.528  57.810 -57.796  1.00  0.00     0.126 C 
ENDROOT
BRANCH   4   9
HETATM    9  C   UNL     1     -42.463  54.338 -55.896  1.00  0.00     0.276 C 
BRANCH   9  10
HETATM   10  C   UNL     1     -42.461  54.265 -54.390  1.00  0.00     0.002 A 
HETATM   11  C   UNL     1     -43.571  54.659 -53.628  1.00  0.00     0.073 A 
HETATM   12  C   UNL     1     -43.568  54.562 -52.237  1.00  0.00     0.038 A 
HETATM   13  C   UNL     1     -42.446  54.052 -51.585  1.00  0.00     0.022 A 
HETATM   14  C   UNL     1     -41.342  53.640 -52.328  1.00  0.00     0.011 A 
HETATM   15 BR   UNL     1     -39.826  52.938 -51.445  1.00  0.00    -0.051 Br
HETATM   16  C   UNL     1     -41.346  53.738 -53.720  1.00  0.00     0.030 A 
BRANCH  11  17
HETATM   17  O   UNL     1     -44.663  55.168 -54.281  1.00  0.00    -0.360 OA
HETATM   18  H   UNL     1     -44.817  56.073 -53.937  1.00  0.00     0.217 HD
ENDBRANCH  11  17
ENDBRANCH   9  10
ENDBRANCH   4   9
BRANCH   1  19
HETATM   19  C   UNL     1     -42.826  59.572 -57.646  1.00  0.00     0.147 A 
HETATM   20  N   UNL     1     -41.714  60.036 -57.034  1.00  0.00    -0.132 NA
HETATM   21  N   UNL     1     -40.887  60.956 -57.635  1.00  0.00    -0.153 NA
HETATM   22  C   UNL     1     -41.187  61.429 -58.860  1.00  0.00     0.053 A 
HETATM   23  C   UNL     1     -40.277  62.452 -59.461  1.00  0.00     0.072 C 
HETATM   24  C   UNL     1     -42.305  60.975 -59.536  1.00  0.00     0.032 A 
HETATM   25  C   UNL     1     -43.132  60.036 -58.919  1.00  0.00     0.054 A 
ENDBRANCH   1  19
TORSDOF 4
ENDMDL
MODEL 8
REMARK VINA RESULT:      -6.9      5.753      7.303
REMARK  4 active torsions:
REMARK  status: ('A' for Active; 'I' for Inactive)
REMARK    1  A    between atoms: C_5  and  N_6 
REMARK    2  A    between atoms: N_9  and  C_11 
REMARK    3  A    between atoms: C_11  and  C_12 
REMARK    4  A    between atoms: C_13  and  O_14 
ROOT
HETATM    1  N   UNL     1     -41.023  54.177 -53.722  1.00  0.00    -0.363 N 
HETATM    2  C   UNL     1     -40.371  55.345 -54.330  1.00  0.00     0.152 C 
HETATM    3  C   UNL     1     -41.225  56.627 -54.274  1.00  0.00     0.255 C 
HETATM    4  N   UNL     1     -42.378  56.528 -55.269  1.00  0.00    -0.066 N 
HETATM    5  H   UNL     1     -42.040  55.947 -56.056  1.00  0.00     0.280 HD
HETATM    6  C   UNL     1     -43.633  55.893 -54.753  1.00  0.00     0.237 C 
HETATM    7  C   UNL     1     -43.444  54.664 -53.872  1.00  0.00     0.047 C 
HETATM    8  C   UNL     1     -42.305  53.730 -54.271  1.00  0.00     0.126 C 
ENDROOT
BRANCH   4   9
HETATM    9  C   UNL     1     -42.668  57.850 -55.952  1.00  0.00     0.276 C 
BRANCH   9  10
HETATM   10  C   UNL     1     -42.719  57.768 -57.456  1.00  0.00     0.002 A 
HETATM   11  C   UNL     1     -42.045  58.688 -58.273  1.00  0.00     0.073 A 
HETATM   12  C   UNL     1     -42.078  58.587 -59.662  1.00  0.00     0.038 A 
HETATM   13  C   UNL     1     -42.784  57.543 -60.260  1.00  0.00     0.022 A 
HETATM   14  C   UNL     1     -43.445  56.611 -59.464  1.00  0.00     0.011 A 
HETATM   15 BR   UNL     1     -44.394  55.191 -60.273  1.00  0.00    -0.051 Br
HETATM   16  C   UNL     1     -43.412  56.714 -58.072  1.00  0.00     0.030 A 
BRANCH  11  17
HETATM   17  O   UNL     1     -41.363  59.715 -57.673  1.00  0.00    -0.360 OA
HETATM   18  H   UNL     1     -41.454  59.602 -56.703  1.00  0.00     0.217 HD
ENDBRANCH  11  17
ENDBRANCH   9  10
ENDBRANCH   4   9
BRANCH   1  19
HETATM   19  C   UNL     1     -40.845  54.088 -52.331  1.00  0.00     0.147 A 
HETATM   20  N   UNL     1     -41.054  55.179 -51.561  1.00  0.00    -0.132 NA
HETATM   21  N   UNL     1     -40.871  55.149 -50.199  1.00  0.00    -0.153 NA
HETATM   22  C   UNL     1     -40.459  54.015 -49.601  1.00  0.00     0.053 A 
HETATM   23  C   UNL     1     -40.243  54.039 -48.122  1.00  0.00     0.072 C 
HETATM   24  C   UNL     1     -40.247  52.866 -50.340  1.00  0.00     0.032 A 
HETATM   25  C   UNL     1     -40.442  52.907 -51.721  1.00  0.00     0.054 A 
ENDBRANCH   1  19
TORSDOF 4
ENDMDL
MODEL 9
REMARK VINA RESULT:      -6.8      5.369      6.764
REMARK  4 active torsions:
REMARK  status: ('A' for Active; 'I' for Inactive)
REMARK    1  A    between atoms: C_5  and  N_6 
REMARK    2  A    between atoms: N_9  and  C_11 
REMARK    3  A    between atoms: C_11  and  C_12 
REMARK    4  A    between atoms: C_13  and  O_14 
ROOT
HETATM    1  N   UNL     1     -42.542  55.411 -52.821  1.00  0.00    -0.363 N 
HETATM    2  C   UNL     1     -43.669  55.534 -53.756  1.00  0.00     0.152 C 
HETATM    3  C   UNL     1     -43.291  56.205 -55.091  1.00  0.00     0.255 C 
HETATM    4  N   UNL     1     -43.071  57.700 -54.879  1.00  0.00    -0.066 N 
HETATM    5  H   UNL     1     -43.698  57.985 -54.106  1.00  0.00     0.280 HD
HETATM    6  C   UNL     1     -41.680  58.107 -54.496  1.00  0.00     0.237 C 
HETATM    7  C   UNL     1     -40.978  57.209 -53.484  1.00  0.00     0.047 C 
HETATM    8  C   UNL     1     -41.862  56.632 -52.383  1.00  0.00     0.126 C 
ENDROOT
BRANCH   4   9
HETATM    9  C   UNL     1     -43.592  58.532 -56.034  1.00  0.00     0.276 C 
BRANCH   9  10
HETATM   10  C   UNL     1     -43.195  58.014 -57.394  1.00  0.00     0.002 A 
HETATM   11  C   UNL     1     -42.128  58.568 -58.116  1.00  0.00     0.073 A 
HETATM   12  C   UNL     1     -41.753  58.065 -59.360  1.00  0.00     0.038 A 
HETATM   13  C   UNL     1     -42.443  56.979 -59.899  1.00  0.00     0.022 A 
HETATM   14  C   UNL     1     -43.494  56.405 -59.188  1.00  0.00     0.011 A 
HETATM   15 BR   UNL     1     -44.421  54.927 -59.913  1.00  0.00    -0.051 Br
HETATM   16  C   UNL     1     -43.869  56.911 -57.942  1.00  0.00     0.030 A 
BRANCH  11  17
HETATM   17  O   UNL     1     -41.466  59.642 -57.579  1.00  0.00    -0.360 OA
HETATM   18  H   UNL     1     -41.228  59.411 -56.656  1.00  0.00     0.217 HD
ENDBRANCH  11  17
ENDBRANCH   9  10
ENDBRANCH   4   9
BRANCH   1  19
HETATM   19  C   UNL     1     -41.753  54.267 -53.031  1.00  0.00     0.147 A 
HETATM   20  N   UNL     1     -41.920  53.541 -54.158  1.00  0.00    -0.132 NA
HETATM   21  N   UNL     1     -41.189  52.401 -54.400  1.00  0.00    -0.153 NA
HETATM   22  C   UNL     1     -40.289  51.976 -53.494  1.00  0.00     0.053 A 
HETATM   23  C   UNL     1     -39.541  50.715 -53.785  1.00  0.00     0.072 C 
HETATM   24  C   UNL     1     -40.068  52.691 -52.331  1.00  0.00     0.032 A 
HETATM   25  C   UNL     1     -40.811  53.849 -52.100  1.00  0.00     0.054 A 
ENDBRANCH   1  19
TORSDOF 4
ENDMDL
MODEL 10
REMARK VINA RESULT:      -6.7      4.115      7.409
REMARK  4 active torsions:
REMARK  status: ('A' for Active; 'I' for Inactive)
REMARK    1  A    between atoms: C_5  and  N_6 
REMARK    2  A    between atoms: N_9  and  C_11 
REMARK    3  A    between atoms: C_11  and  C_12 
REMARK    4  A    between atoms: C_13  and  O_14 
ROOT
HETATM    1  N   UNL     1     -42.184  59.775 -52.427  1.00  0.00    -0.363 N 
HETATM    2  C   UNL     1     -41.407  58.531 -52.323  1.00  0.00     0.152 C 
HETATM    3  C   UNL     1     -42.247  57.259 -52.547  1.00  0.00     0.255 C 
HETATM    4  N   UNL     1     -43.146  57.009 -51.340  1.00  0.00    -0.066 N 
HETATM    5  H   UNL     1     -42.642  57.377 -50.514  1.00  0.00     0.280 HD
HETATM    6  C   UNL     1     -44.488  57.676 -51.375  1.00  0.00     0.237 C 
HETATM    7  C   UNL     1     -44.507  59.107 -51.899  1.00  0.00     0.047 C 
HETATM    8  C   UNL     1     -43.310  59.971 -51.512  1.00  0.00     0.126 C 
ENDROOT
BRANCH   4   9
HETATM    9  C   UNL     1     -43.270  55.536 -51.005  1.00  0.00     0.276 C 
BRANCH   9  10
HETATM   10  C   UNL     1     -41.951  54.808 -50.929  1.00  0.00     0.002 A 
HETATM   11  C   UNL     1     -41.050  55.016 -49.875  1.00  0.00     0.073 A 
HETATM   12  C   UNL     1     -39.845  54.319 -49.800  1.00  0.00     0.038 A 
HETATM   13  C   UNL     1     -39.529  53.384 -50.786  1.00  0.00     0.022 A 
HETATM   14  C   UNL     1     -40.421  53.154 -51.831  1.00  0.00     0.011 A 
HETATM   15 BR   UNL     1     -39.997  51.880 -53.161  1.00  0.00    -0.051 Br
HETATM   16  C   UNL     1     -41.626  53.853 -51.905  1.00  0.00     0.030 A 
BRANCH  11  17
HETATM   17  O   UNL     1     -41.369  55.945 -48.918  1.00  0.00    -0.360 OA
HETATM   18  H   UNL     1     -41.351  56.827 -49.345  1.00  0.00     0.217 HD
ENDBRANCH  11  17
ENDBRANCH   9  10
ENDBRANCH   4   9
BRANCH   1  19
HETATM   19  C   UNL     1     -42.324  60.247 -53.743  1.00  0.00     0.147 A 
HETATM   20  N   UNL     1     -41.611  59.673 -54.737  1.00  0.00    -0.132 NA
HETATM   21  N   UNL     1     -41.696  60.114 -56.036  1.00  0.00    -0.153 NA
HETATM   22  C   UNL     1     -42.495  61.152 -56.342  1.00  0.00     0.053 A 
HETATM   23  C   UNL     1     -42.531  61.617 -57.763  1.00  0.00     0.072 C 
HETATM   24  C   UNL     1     -43.259  61.765 -55.366  1.00  0.00     0.032 A 
HETATM   25  C   UNL     1     -43.169  61.305 -54.051  1.00  0.00     0.054 A 
ENDBRANCH   1  19
TORSDOF 4
ENDMDL
