MODEL 1
REMARK VINA RESULT:      -8.3      0.000      0.000
REMARK  6 active torsions:
REMARK  status: ('A' for Active; 'I' for Inactive)
REMARK    1  A    between atoms: C_4  and  C_5 
REMARK    2  A    between atoms: C_5  and  N_6 
REMARK    3  A    between atoms: C_5  and  C_25 
REMARK    4  A    between atoms: N_10  and  C_11 
REMARK    5  A    between atoms: C_15  and  C_16 
REMARK       I    between atoms: C_25  and  N_26 
REMARK    6  A    between atoms: N_26  and  C_27 
ROOT
HETATM    1  N   UNL     1     -43.056  57.397 -53.671  1.00  0.00    -0.051 N 
HETATM    2  H   UNL     1     -42.831  58.018 -52.872  1.00  0.00     0.281 HD
HETATM    3  C   UNL     1     -43.633  56.142 -53.039  1.00  0.00     0.256 C 
HETATM    4  C   UNL     1     -42.603  55.532 -52.062  1.00  0.00     0.152 C 
HETATM    5  N   UNL     1     -41.288  55.308 -52.700  1.00  0.00    -0.363 N 
HETATM    6  C   UNL     1     -40.743  56.397 -53.546  1.00  0.00     0.152 C 
HETATM    7  C   UNL     1     -41.793  57.112 -54.439  1.00  0.00     0.256 C 
ENDROOT
BRANCH   1   8
HETATM    8  C   UNL     1     -44.098  58.269 -54.441  1.00  0.00     0.312 C 
BRANCH   8   9
HETATM    9  C   UNL     1     -44.257  59.667 -53.878  1.00  0.00    -0.018 A 
HETATM   10  C   UNL     1     -43.241  60.292 -53.131  1.00  0.00     0.010 A 
HETATM   11  C   UNL     1     -43.436  61.565 -52.593  1.00  0.00     0.001 A 
HETATM   12  C   UNL     1     -44.641  62.231 -52.793  1.00  0.00     0.000 A 
HETATM   13  C   UNL     1     -45.654  61.631 -53.534  1.00  0.00     0.001 A 
HETATM   14  C   UNL     1     -45.466  60.358 -54.073  1.00  0.00     0.010 A 
ENDBRANCH   8   9
BRANCH   8  15
HETATM   15  C   UNL     1     -43.768  58.189 -55.952  1.00  0.00     0.259 C 
HETATM   16  N   UNL     1     -44.192  57.060 -56.606  1.00  0.00    -0.304 N 
HETATM   17  H   UNL     1     -44.732  56.327 -56.161  1.00  0.00     0.171 HD
HETATM   18  O   UNL     1     -43.100  59.123 -56.409  1.00  0.00    -0.270 OA
BRANCH  16  19
HETATM   19  C   UNL     1     -43.940  56.875 -57.938  1.00  0.00     0.172 A 
HETATM   20  S   UNL     1     -45.155  57.474 -58.974  1.00  0.00    -0.062 SA
HETATM   21  C   UNL     1     -44.240  56.928 -60.320  1.00  0.00     0.072 A 
HETATM   22  C   UNL     1     -43.075  56.337 -59.875  1.00  0.00     0.126 A 
HETATM   23  N   UNL     1     -42.905  56.313 -58.502  1.00  0.00    -0.236 NA
ENDBRANCH  16  19
ENDBRANCH   8  15
ENDBRANCH   1   8
BRANCH   5  24
HETATM   24  C   UNL     1     -40.850  54.010 -52.843  1.00  0.00     0.125 A 
HETATM   25  N   UNL     1     -41.120  53.434 -54.032  1.00  0.00    -0.350 N 
HETATM   26  H   UNL     1     -41.649  53.995 -54.699  1.00  0.00     0.166 HD
HETATM   27  C   UNL     1     -40.770  52.180 -54.365  1.00  0.00     0.106 A 
HETATM   28  C   UNL     1     -40.073  51.388 -53.460  1.00  0.00     0.065 A 
HETATM   29  C   UNL     1     -39.776  51.923 -52.204  1.00  0.00     0.045 A 
HETATM   30  C   UNL     1     -40.157  53.231 -51.893  1.00  0.00     0.078 A 
HETATM   31 CL   UNL     1     -39.688  53.856 -50.359  1.00  0.00    -0.080 Cl
BRANCH  28  32
HETATM   32  C   UNL     1     -39.695  49.980 -53.841  1.00  0.00     0.418 C 
HETATM   33  F   UNL     1     -40.605  49.437 -54.689  1.00  0.00    -0.166 F 
HETATM   34  F   UNL     1     -38.492  49.910 -54.457  1.00  0.00    -0.166 F 
HETATM   35  F   UNL     1     -39.642  49.172 -52.757  1.00  0.00    -0.166 F 
ENDBRANCH  28  32
ENDBRANCH   5  24
TORSDOF 6
ENDMDL
MODEL 2
REMARK VINA RESULT:      -8.2      2.025      2.418
REMARK  6 active torsions:
REMARK  status: ('A' for Active; 'I' for Inactive)
REMARK    1  A    between atoms: C_4  and  C_5 
REMARK    2  A    between atoms: C_5  and  N_6 
REMARK    3  A    between atoms: C_5  and  C_25 
REMARK    4  A    between atoms: N_10  and  C_11 
REMARK    5  A    between atoms: C_15  and  C_16 
REMARK       I    between atoms: C_25  and  N_26 
REMARK    6  A    between atoms: N_26  and  C_27 
ROOT
HETATM    1  N   UNL     1     -43.314  57.399 -52.030  1.00  0.00    -0.051 N 
HETATM    2  H   UNL     1     -42.862  57.821 -51.197  1.00  0.00     0.281 HD
HETATM    3  C   UNL     1     -43.737  56.010 -51.582  1.00  0.00     0.256 C 
HETATM    4  C   UNL     1     -42.502  55.223 -51.091  1.00  0.00     0.152 C 
HETATM    5  N   UNL     1     -41.415  55.203 -52.094  1.00  0.00    -0.363 N 
HETATM    6  C   UNL     1     -41.084  56.479 -52.772  1.00  0.00     0.152 C 
HETATM    7  C   UNL     1     -42.314  57.347 -53.154  1.00  0.00     0.256 C 
ENDROOT
BRANCH   1   8
HETATM    8  C   UNL     1     -44.497  58.391 -52.261  1.00  0.00     0.312 C 
BRANCH   8   9
HETATM    9  C   UNL     1     -44.480  59.588 -51.332  1.00  0.00    -0.018 A 
HETATM   10  C   UNL     1     -43.280  60.141 -50.846  1.00  0.00     0.010 A 
HETATM   11  C   UNL     1     -43.302  61.217 -49.959  1.00  0.00     0.001 A 
HETATM   12  C   UNL     1     -44.515  61.757 -49.545  1.00  0.00     0.000 A 
HETATM   13  C   UNL     1     -45.711  61.227 -50.019  1.00  0.00     0.001 A 
HETATM   14  C   UNL     1     -45.696  60.149 -50.905  1.00  0.00     0.010 A 
ENDBRANCH   8   9
BRANCH   8  15
HETATM   15  C   UNL     1     -44.558  58.720 -53.773  1.00  0.00     0.259 C 
HETATM   16  N   UNL     1     -45.019  57.720 -54.593  1.00  0.00    -0.304 N 
HETATM   17  H   UNL     1     -45.349  56.825 -54.250  1.00  0.00     0.171 HD
HETATM   18  O   UNL     1     -44.129  59.831 -54.103  1.00  0.00    -0.270 OA
BRANCH  16  19
HETATM   19  C   UNL     1     -45.099  57.894 -55.948  1.00  0.00     0.172 A 
HETATM   20  S   UNL     1     -43.712  57.395 -56.805  1.00  0.00    -0.062 SA
HETATM   21  C   UNL     1     -44.473  57.879 -58.266  1.00  0.00     0.072 A 
HETATM   22  C   UNL     1     -45.729  58.379 -57.987  1.00  0.00     0.126 A 
HETATM   23  N   UNL     1     -46.086  58.381 -56.650  1.00  0.00    -0.236 NA
ENDBRANCH  16  19
ENDBRANCH   8  15
ENDBRANCH   1   8
BRANCH   5  24
HETATM   24  C   UNL     1     -41.073  53.991 -52.652  1.00  0.00     0.125 A 
HETATM   25  N   UNL     1     -40.207  53.244 -51.937  1.00  0.00    -0.350 N 
HETATM   26  H   UNL     1     -39.860  53.657 -51.071  1.00  0.00     0.166 HD
HETATM   27  C   UNL     1     -39.761  52.034 -52.310  1.00  0.00     0.106 A 
HETATM   28  C   UNL     1     -40.199  51.465 -53.501  1.00  0.00     0.065 A 
HETATM   29  C   UNL     1     -41.086  52.197 -54.295  1.00  0.00     0.045 A 
HETATM   30  C   UNL     1     -41.529  53.453 -53.874  1.00  0.00     0.078 A 
HETATM   31 CL   UNL     1     -42.684  54.264 -54.860  1.00  0.00    -0.080 Cl
BRANCH  28  32
HETATM   32  C   UNL     1     -39.683  50.111 -53.913  1.00  0.00     0.418 C 
HETATM   33  F   UNL     1     -40.528  49.505 -54.785  1.00  0.00    -0.166 F 
HETATM   34  F   UNL     1     -38.473  50.174 -54.516  1.00  0.00    -0.166 F 
HETATM   35  F   UNL     1     -39.562  49.284 -52.849  1.00  0.00    -0.166 F 
ENDBRANCH  28  32
ENDBRANCH   5  24
TORSDOF 6
ENDMDL
MODEL 3
REMARK VINA RESULT:      -8.2      5.353      8.366
REMARK  6 active torsions:
REMARK  status: ('A' for Active; 'I' for Inactive)
REMARK    1  A    between atoms: C_4  and  C_5 
REMARK    2  A    between atoms: C_5  and  N_6 
REMARK    3  A    between atoms: C_5  and  C_25 
REMARK    4  A    between atoms: N_10  and  C_11 
REMARK    5  A    between atoms: C_15  and  C_16 
REMARK       I    between atoms: C_25  and  N_26 
REMARK    6  A    between atoms: N_26  and  C_27 
ROOT
HETATM    1  N   UNL     1     -41.778  56.276 -52.983  1.00  0.00    -0.051 N 
HETATM    2  H   UNL     1     -41.181  55.984 -52.186  1.00  0.00     0.281 HD
HETATM    3  C   UNL     1     -41.513  57.763 -53.146  1.00  0.00     0.256 C 
HETATM    4  C   UNL     1     -41.848  58.498 -51.829  1.00  0.00     0.152 C 
HETATM    5  N   UNL     1     -43.217  58.202 -51.353  1.00  0.00    -0.363 N 
HETATM    6  C   UNL     1     -43.662  56.788 -51.383  1.00  0.00     0.152 C 
HETATM    7  C   UNL     1     -43.218  55.995 -52.642  1.00  0.00     0.256 C 
ENDROOT
BRANCH   1   8
HETATM    8  C   UNL     1     -41.199  55.387 -54.129  1.00  0.00     0.312 C 
BRANCH   8   9
HETATM    9  C   UNL     1     -40.708  54.033 -53.660  1.00  0.00    -0.018 A 
HETATM   10  C   UNL     1     -40.535  53.730 -52.297  1.00  0.00     0.010 A 
HETATM   11  C   UNL     1     -40.041  52.486 -51.902  1.00  0.00     0.001 A 
HETATM   12  C   UNL     1     -39.715  51.528 -52.857  1.00  0.00     0.000 A 
HETATM   13  C   UNL     1     -39.885  51.808 -54.210  1.00  0.00     0.001 A 
HETATM   14  C   UNL     1     -40.376  53.051 -54.610  1.00  0.00     0.010 A 
ENDBRANCH   8   9
BRANCH   8  15
HETATM   15  C   UNL     1     -42.231  55.362 -55.284  1.00  0.00     0.259 C 
HETATM   16  N   UNL     1     -42.058  56.299 -56.271  1.00  0.00    -0.304 N 
HETATM   17  H   UNL     1     -41.284  56.952 -56.292  1.00  0.00     0.171 HD
HETATM   18  O   UNL     1     -43.146  54.539 -55.173  1.00  0.00    -0.270 OA
BRANCH  16  19
HETATM   19  C   UNL     1     -42.920  56.380 -57.331  1.00  0.00     0.172 A 
HETATM   20  S   UNL     1     -43.975  57.718 -57.280  1.00  0.00    -0.062 SA
HETATM   21  C   UNL     1     -44.672  57.192 -58.758  1.00  0.00     0.072 A 
HETATM   22  C   UNL     1     -44.041  56.039 -59.179  1.00  0.00     0.126 A 
HETATM   23  N   UNL     1     -43.030  55.578 -58.355  1.00  0.00    -0.236 NA
ENDBRANCH  16  19
ENDBRANCH   8  15
ENDBRANCH   1   8
BRANCH   5  24
HETATM   24  C   UNL     1     -44.129  59.234 -51.325  1.00  0.00     0.125 A 
HETATM   25  N   UNL     1     -44.168  59.944 -50.179  1.00  0.00    -0.350 N 
HETATM   26  H   UNL     1     -43.549  59.633 -49.431  1.00  0.00     0.166 HD
HETATM   27  C   UNL     1     -44.983  60.989 -49.962  1.00  0.00     0.106 A 
HETATM   28  C   UNL     1     -45.856  61.412 -50.958  1.00  0.00     0.065 A 
HETATM   29  C   UNL     1     -45.873  60.708 -52.164  1.00  0.00     0.045 A 
HETATM   30  C   UNL     1     -45.011  59.625 -52.354  1.00  0.00     0.078 A 
HETATM   31 CL   UNL     1     -45.025  58.854 -53.893  1.00  0.00    -0.080 Cl
BRANCH  28  32
HETATM   32  C   UNL     1     -46.772  62.580 -50.698  1.00  0.00     0.418 C 
HETATM   33  F   UNL     1     -47.864  62.539 -51.502  1.00  0.00    -0.166 F 
HETATM   34  F   UNL     1     -47.223  62.617 -49.423  1.00  0.00    -0.166 F 
HETATM   35  F   UNL     1     -46.152  63.758 -50.942  1.00  0.00    -0.166 F 
ENDBRANCH  28  32
ENDBRANCH   5  24
TORSDOF 6
ENDMDL
MODEL 4
REMARK VINA RESULT:      -8.0      2.349      2.695
REMARK  6 active torsions:
REMARK  status: ('A' for Active; 'I' for Inactive)
REMARK    1  A    between atoms: C_4  and  C_5 
REMARK    2  A    between atoms: C_5  and  N_6 
REMARK    3  A    between atoms: C_5  and  C_25 
REMARK    4  A    between atoms: N_10  and  C_11 
REMARK    5  A    between atoms: C_15  and  C_16 
REMARK       I    between atoms: C_25  and  N_26 
REMARK    6  A    between atoms: N_26  and  C_27 
ROOT
HETATM    1  N   UNL     1     -43.135  57.587 -52.863  1.00  0.00    -0.051 N 
HETATM    2  H   UNL     1     -42.728  58.199 -52.131  1.00  0.00     0.281 HD
HETATM    3  C   UNL     1     -43.565  56.331 -52.125  1.00  0.00     0.256 C 
HETATM    4  C   UNL     1     -42.346  55.704 -51.413  1.00  0.00     0.152 C 
HETATM    5  N   UNL     1     -41.213  55.475 -52.335  1.00  0.00    -0.363 N 
HETATM    6  C   UNL     1     -40.864  56.567 -53.275  1.00  0.00     0.152 C 
HETATM    7  C   UNL     1     -42.083  57.298 -53.901  1.00  0.00     0.256 C 
ENDROOT
BRANCH   1   8
HETATM    8  C   UNL     1     -44.316  58.474 -53.369  1.00  0.00     0.312 C 
BRANCH   8   9
HETATM    9  C   UNL     1     -44.805  59.480 -52.346  1.00  0.00    -0.018 A 
HETATM   10  C   UNL     1     -46.033  60.152 -52.486  1.00  0.00     0.010 A 
HETATM   11  C   UNL     1     -46.434  61.103 -51.546  1.00  0.00     0.001 A 
HETATM   12  C   UNL     1     -45.620  61.394 -50.456  1.00  0.00     0.000 A 
HETATM   13  C   UNL     1     -44.405  60.735 -50.298  1.00  0.00     0.001 A 
HETATM   14  C   UNL     1     -43.998  59.785 -51.236  1.00  0.00     0.010 A 
ENDBRANCH   8   9
BRANCH   8  15
HETATM   15  C   UNL     1     -43.920  59.060 -54.746  1.00  0.00     0.259 C 
HETATM   16  N   UNL     1     -43.020  60.096 -54.728  1.00  0.00    -0.304 N 
HETATM   17  H   UNL     1     -42.590  60.447 -53.881  1.00  0.00     0.171 HD
HETATM   18  O   UNL     1     -44.499  58.577 -55.725  1.00  0.00    -0.270 OA
BRANCH  16  19
HETATM   19  C   UNL     1     -42.612  60.701 -55.886  1.00  0.00     0.172 A 
HETATM   20  S   UNL     1     -43.471  62.121 -56.279  1.00  0.00    -0.062 SA
HETATM   21  C   UNL     1     -42.510  62.279 -57.693  1.00  0.00     0.072 A 
HETATM   22  C   UNL     1     -41.604  61.239 -57.753  1.00  0.00     0.126 A 
HETATM   23  N   UNL     1     -41.664  60.336 -56.706  1.00  0.00    -0.236 NA
ENDBRANCH  16  19
ENDBRANCH   8  15
ENDBRANCH   1   8
BRANCH   5  24
HETATM   24  C   UNL     1     -40.833  54.174 -52.583  1.00  0.00     0.125 A 
HETATM   25  N   UNL     1     -41.169  53.692 -53.796  1.00  0.00    -0.350 N 
HETATM   26  H   UNL     1     -41.702  54.317 -54.402  1.00  0.00     0.166 HD
HETATM   27  C   UNL     1     -40.882  52.452 -54.226  1.00  0.00     0.106 A 
HETATM   28  C   UNL     1     -40.183  51.574 -53.406  1.00  0.00     0.065 A 
HETATM   29  C   UNL     1     -39.818  52.011 -52.129  1.00  0.00     0.045 A 
HETATM   30  C   UNL     1     -40.135  53.307 -51.716  1.00  0.00     0.078 A 
HETATM   31 CL   UNL     1     -39.584  53.807 -50.164  1.00  0.00    -0.080 Cl
BRANCH  28  32
HETATM   32  C   UNL     1     -39.875  50.183 -53.896  1.00  0.00     0.418 C 
HETATM   33  F   UNL     1     -39.786  49.305 -52.865  1.00  0.00    -0.166 F 
HETATM   34  F   UNL     1     -40.818  49.706 -54.740  1.00  0.00    -0.166 F 
HETATM   35  F   UNL     1     -38.690  50.141 -54.547  1.00  0.00    -0.166 F 
ENDBRANCH  28  32
ENDBRANCH   5  24
TORSDOF 6
ENDMDL
MODEL 5
REMARK VINA RESULT:      -7.9      5.381      8.898
REMARK  6 active torsions:
REMARK  status: ('A' for Active; 'I' for Inactive)
REMARK    1  A    between atoms: C_4  and  C_5 
REMARK    2  A    between atoms: C_5  and  N_6 
REMARK    3  A    between atoms: C_5  and  C_25 
REMARK    4  A    between atoms: N_10  and  C_11 
REMARK    5  A    between atoms: C_15  and  C_16 
REMARK       I    between atoms: C_25  and  N_26 
REMARK    6  A    between atoms: N_26  and  C_27 
ROOT
HETATM    1  N   UNL     1     -42.472  55.487 -54.919  1.00  0.00    -0.051 N 
HETATM    2  H   UNL     1     -41.491  55.251 -55.161  1.00  0.00     0.281 HD
HETATM    3  C   UNL     1     -43.315  54.749 -55.945  1.00  0.00     0.256 C 
HETATM    4  C   UNL     1     -42.913  55.197 -57.367  1.00  0.00     0.152 C 
HETATM    5  N   UNL     1     -42.958  56.666 -57.528  1.00  0.00    -0.363 N 
HETATM    6  C   UNL     1     -42.367  57.492 -56.447  1.00  0.00     0.152 C 
HETATM    7  C   UNL     1     -42.652  56.979 -55.009  1.00  0.00     0.256 C 
ENDROOT
BRANCH   1   8
HETATM    8  C   UNL     1     -42.566  54.911 -53.471  1.00  0.00     0.312 C 
BRANCH   8   9
HETATM    9  C   UNL     1     -41.553  53.822 -53.180  1.00  0.00    -0.018 A 
HETATM   10  C   UNL     1     -41.138  53.517 -51.870  1.00  0.00     0.010 A 
HETATM   11  C   UNL     1     -40.172  52.536 -51.641  1.00  0.00     0.001 A 
HETATM   12  C   UNL     1     -39.609  51.847 -52.710  1.00  0.00     0.000 A 
HETATM   13  C   UNL     1     -40.012  52.131 -54.012  1.00  0.00     0.001 A 
HETATM   14  C   UNL     1     -40.975  53.112 -54.247  1.00  0.00     0.010 A 
ENDBRANCH   8   9
BRANCH   8  15
HETATM   15  C   UNL     1     -42.572  56.102 -52.480  1.00  0.00     0.259 C 
HETATM   16  N   UNL     1     -41.424  56.853 -52.429  1.00  0.00    -0.304 N 
HETATM   17  H   UNL     1     -40.622  56.688 -53.026  1.00  0.00     0.171 HD
HETATM   18  O   UNL     1     -43.588  56.223 -51.788  1.00  0.00    -0.270 OA
BRANCH  16  19
HETATM   19  C   UNL     1     -41.312  57.918 -51.578  1.00  0.00     0.172 A 
HETATM   20  S   UNL     1     -41.858  59.398 -52.226  1.00  0.00    -0.062 SA
HETATM   21  C   UNL     1     -41.435  60.169 -50.751  1.00  0.00     0.072 A 
HETATM   22  C   UNL     1     -40.916  59.237 -49.876  1.00  0.00     0.126 A 
HETATM   23  N   UNL     1     -40.851  57.940 -50.356  1.00  0.00    -0.236 NA
ENDBRANCH  16  19
ENDBRANCH   8  15
ENDBRANCH   1   8
BRANCH   5  24
HETATM   24  C   UNL     1     -43.886  57.194 -58.399  1.00  0.00     0.125 A 
HETATM   25  N   UNL     1     -45.160  57.199 -57.958  1.00  0.00    -0.350 N 
HETATM   26  H   UNL     1     -45.325  56.783 -57.041  1.00  0.00     0.166 HD
HETATM   27  C   UNL     1     -46.203  57.676 -58.657  1.00  0.00     0.106 A 
HETATM   28  C   UNL     1     -46.005  58.220 -59.921  1.00  0.00     0.065 A 
HETATM   29  C   UNL     1     -44.708  58.231 -60.440  1.00  0.00     0.045 A 
HETATM   30  C   UNL     1     -43.648  57.725 -59.683  1.00  0.00     0.078 A 
HETATM   31 CL   UNL     1     -42.065  57.844 -60.349  1.00  0.00    -0.080 Cl
BRANCH  28  32
HETATM   32  C   UNL     1     -47.185  58.743 -60.699  1.00  0.00     0.418 C 
HETATM   33  F   UNL     1     -47.850  57.738 -61.321  1.00  0.00    -0.166 F 
HETATM   34  F   UNL     1     -48.083  59.386 -59.918  1.00  0.00    -0.166 F 
HETATM   35  F   UNL     1     -46.795  59.608 -61.664  1.00  0.00    -0.166 F 
ENDBRANCH  28  32
ENDBRANCH   5  24
TORSDOF 6
ENDMDL
MODEL 6
REMARK VINA RESULT:      -7.7      3.617      5.685
REMARK  6 active torsions:
REMARK  status: ('A' for Active; 'I' for Inactive)
REMARK    1  A    between atoms: C_4  and  C_5 
REMARK    2  A    between atoms: C_5  and  N_6 
REMARK    3  A    between atoms: C_5  and  C_25 
REMARK    4  A    between atoms: N_10  and  C_11 
REMARK    5  A    between atoms: C_15  and  C_16 
REMARK       I    between atoms: C_25  and  N_26 
REMARK    6  A    between atoms: N_26  and  C_27 
ROOT
HETATM    1  N   UNL     1     -43.051  58.354 -51.008  1.00  0.00    -0.051 N 
HETATM    2  H   UNL     1     -43.401  58.391 -50.032  1.00  0.00     0.281 HD
HETATM    3  C   UNL     1     -43.741  57.150 -51.625  1.00  0.00     0.256 C 
HETATM    4  C   UNL     1     -43.406  55.883 -50.807  1.00  0.00     0.152 C 
HETATM    5  N   UNL     1     -41.949  55.693 -50.638  1.00  0.00    -0.363 N 
HETATM    6  C   UNL     1     -41.142  56.880 -50.267  1.00  0.00     0.152 C 
HETATM    7  C   UNL     1     -41.554  58.194 -50.984  1.00  0.00     0.256 C 
ENDROOT
BRANCH   1   8
HETATM    8  C   UNL     1     -43.546  59.731 -51.552  1.00  0.00     0.312 C 
BRANCH   8   9
HETATM    9  C   UNL     1     -43.807  59.739 -53.045  1.00  0.00    -0.018 A 
HETATM   10  C   UNL     1     -42.768  59.613 -53.986  1.00  0.00     0.010 A 
HETATM   11  C   UNL     1     -43.038  59.665 -55.354  1.00  0.00     0.001 A 
HETATM   12  C   UNL     1     -44.344  59.841 -55.802  1.00  0.00     0.000 A 
HETATM   13  C   UNL     1     -45.384  59.960 -54.886  1.00  0.00     0.001 A 
HETATM   14  C   UNL     1     -45.120  59.911 -53.517  1.00  0.00     0.010 A 
ENDBRANCH   8   9
BRANCH   8  15
HETATM   15  C   UNL     1     -44.725  60.202 -50.665  1.00  0.00     0.259 C 
HETATM   16  N   UNL     1     -44.659  61.493 -50.203  1.00  0.00    -0.304 N 
HETATM   17  H   UNL     1     -43.916  62.136 -50.451  1.00  0.00     0.171 HD
HETATM   18  O   UNL     1     -45.582  59.349 -50.409  1.00  0.00    -0.270 OA
BRANCH  16  19
HETATM   19  C   UNL     1     -45.636  62.009 -49.397  1.00  0.00     0.172 A 
HETATM   20  S   UNL     1     -45.369  61.776 -47.729  1.00  0.00    -0.062 SA
HETATM   21  C   UNL     1     -46.847  62.588 -47.406  1.00  0.00     0.072 A 
HETATM   22  C   UNL     1     -47.427  62.978 -48.596  1.00  0.00     0.126 A 
HETATM   23  N   UNL     1     -46.723  62.646 -49.740  1.00  0.00    -0.236 NA
ENDBRANCH  16  19
ENDBRANCH   8  15
ENDBRANCH   1   8
BRANCH   5  24
HETATM   24  C   UNL     1     -41.367  54.594 -51.231  1.00  0.00     0.125 A 
HETATM   25  N   UNL     1     -41.800  54.308 -52.475  1.00  0.00    -0.350 N 
HETATM   26  H   UNL     1     -42.539  54.904 -52.848  1.00  0.00     0.166 HD
HETATM   27  C   UNL     1     -41.350  53.283 -53.218  1.00  0.00     0.106 A 
HETATM   28  C   UNL     1     -40.364  52.440 -52.719  1.00  0.00     0.065 A 
HETATM   29  C   UNL     1     -39.884  52.676 -51.428  1.00  0.00     0.045 A 
HETATM   30  C   UNL     1     -40.377  53.751 -50.684  1.00  0.00     0.078 A 
HETATM   31 CL   UNL     1     -39.683  54.034 -49.134  1.00  0.00    -0.080 Cl
BRANCH  28  32
HETATM   32  C   UNL     1     -39.874  51.288 -53.559  1.00  0.00     0.418 C 
HETATM   33  F   UNL     1     -39.829  50.138 -52.840  1.00  0.00    -0.166 F 
HETATM   34  F   UNL     1     -40.663  51.052 -54.632  1.00  0.00    -0.166 F 
HETATM   35  F   UNL     1     -38.621  51.511 -54.018  1.00  0.00    -0.166 F 
ENDBRANCH  28  32
ENDBRANCH   5  24
TORSDOF 6
ENDMDL
MODEL 7
REMARK VINA RESULT:      -7.7      2.215      4.562
REMARK  6 active torsions:
REMARK  status: ('A' for Active; 'I' for Inactive)
REMARK    1  A    between atoms: C_4  and  C_5 
REMARK    2  A    between atoms: C_5  and  N_6 
REMARK    3  A    between atoms: C_5  and  C_25 
REMARK    4  A    between atoms: N_10  and  C_11 
REMARK    5  A    between atoms: C_15  and  C_16 
REMARK       I    between atoms: C_25  and  N_26 
REMARK    6  A    between atoms: N_26  and  C_27 
ROOT
HETATM    1  N   UNL     1     -42.657  57.664 -53.828  1.00  0.00    -0.051 N 
HETATM    2  H   UNL     1     -43.166  57.962 -52.975  1.00  0.00     0.281 HD
HETATM    3  C   UNL     1     -43.319  56.362 -54.243  1.00  0.00     0.256 C 
HETATM    4  C   UNL     1     -43.227  55.341 -53.088  1.00  0.00     0.152 C 
HETATM    5  N   UNL     1     -41.840  55.158 -52.608  1.00  0.00    -0.363 N 
HETATM    6  C   UNL     1     -41.021  56.377 -52.400  1.00  0.00     0.152 C 
HETATM    7  C   UNL     1     -41.203  57.473 -53.486  1.00  0.00     0.256 C 
ENDROOT
BRANCH   1   8
HETATM    8  C   UNL     1     -42.944  58.867 -54.781  1.00  0.00     0.312 C 
BRANCH   8   9
HETATM    9  C   UNL     1     -43.563  58.463 -56.103  1.00  0.00    -0.018 A 
HETATM   10  C   UNL     1     -44.953  58.501 -56.321  1.00  0.00     0.010 A 
HETATM   11  C   UNL     1     -45.493  58.083 -57.538  1.00  0.00     0.001 A 
HETATM   12  C   UNL     1     -44.659  57.625 -58.552  1.00  0.00     0.000 A 
HETATM   13  C   UNL     1     -43.281  57.586 -58.357  1.00  0.00     0.001 A 
HETATM   14  C   UNL     1     -42.736  58.001 -57.142  1.00  0.00     0.010 A 
ENDBRANCH   8   9
BRANCH   8  15
HETATM   15  C   UNL     1     -43.721  59.940 -53.977  1.00  0.00     0.259 C 
HETATM   16  N   UNL     1     -44.495  59.479 -52.942  1.00  0.00    -0.304 N 
HETATM   17  H   UNL     1     -44.537  58.504 -52.668  1.00  0.00     0.171 HD
HETATM   18  O   UNL     1     -43.617  61.101 -54.386  1.00  0.00    -0.270 OA
BRANCH  16  19
HETATM   19  C   UNL     1     -45.237  60.336 -52.176  1.00  0.00     0.172 A 
HETATM   20  S   UNL     1     -44.560  60.684 -50.651  1.00  0.00    -0.062 SA
HETATM   21  C   UNL     1     -45.908  61.692 -50.311  1.00  0.00     0.072 A 
HETATM   22  C   UNL     1     -46.768  61.689 -51.390  1.00  0.00     0.126 A 
HETATM   23  N   UNL     1     -46.375  60.909 -52.464  1.00  0.00    -0.236 NA
ENDBRANCH  16  19
ENDBRANCH   8  15
ENDBRANCH   1   8
BRANCH   5  24
HETATM   24  C   UNL     1     -41.249  53.927 -52.790  1.00  0.00     0.125 A 
HETATM   25  N   UNL     1     -41.489  53.337 -53.978  1.00  0.00    -0.350 N 
HETATM   26  H   UNL     1     -42.110  53.835 -54.616  1.00  0.00     0.166 HD
HETATM   27  C   UNL     1     -40.997  52.142 -54.344  1.00  0.00     0.106 A 
HETATM   28  C   UNL     1     -40.172  51.432 -53.480  1.00  0.00     0.065 A 
HETATM   29  C   UNL     1     -39.897  51.985 -52.226  1.00  0.00     0.045 A 
HETATM   30  C   UNL     1     -40.427  53.230 -51.879  1.00  0.00     0.078 A 
HETATM   31 CL   UNL     1     -39.983  53.889 -50.353  1.00  0.00    -0.080 Cl
BRANCH  28  32
HETATM   32  C   UNL     1     -39.635  50.088 -53.899  1.00  0.00     0.418 C 
HETATM   33  F   UNL     1     -40.470  49.475 -54.776  1.00  0.00    -0.166 F 
HETATM   34  F   UNL     1     -38.425  50.173 -54.499  1.00  0.00    -0.166 F 
HETATM   35  F   UNL     1     -39.504  49.257 -52.839  1.00  0.00    -0.166 F 
ENDBRANCH  28  32
ENDBRANCH   5  24
TORSDOF 6
ENDMDL
MODEL 8
REMARK VINA RESULT:      -7.5      5.400      8.745
REMARK  6 active torsions:
REMARK  status: ('A' for Active; 'I' for Inactive)
REMARK    1  A    between atoms: C_4  and  C_5 
REMARK    2  A    between atoms: C_5  and  N_6 
REMARK    3  A    between atoms: C_5  and  C_25 
REMARK    4  A    between atoms: N_10  and  C_11 
REMARK    5  A    between atoms: C_15  and  C_16 
REMARK       I    between atoms: C_25  and  N_26 
REMARK    6  A    between atoms: N_26  and  C_27 
ROOT
HETATM    1  N   UNL     1     -43.266  55.493 -54.639  1.00  0.00    -0.051 N 
HETATM    2  H   UNL     1     -44.046  54.894 -54.970  1.00  0.00     0.281 HD
HETATM    3  C   UNL     1     -43.833  56.902 -54.632  1.00  0.00     0.256 C 
HETATM    4  C   UNL     1     -44.329  57.270 -56.048  1.00  0.00     0.152 C 
HETATM    5  N   UNL     1     -43.287  57.070 -57.078  1.00  0.00    -0.363 N 
HETATM    6  C   UNL     1     -42.502  55.813 -57.023  1.00  0.00     0.152 C 
HETATM    7  C   UNL     1     -42.108  55.356 -55.592  1.00  0.00     0.256 C 
ENDROOT
BRANCH   1   8
HETATM    8  C   UNL     1     -43.011  54.892 -53.221  1.00  0.00     0.312 C 
BRANCH   8   9
HETATM    9  C   UNL     1     -41.901  53.861 -53.186  1.00  0.00    -0.018 A 
HETATM   10  C   UNL     1     -41.661  52.983 -54.259  1.00  0.00     0.010 A 
HETATM   11  C   UNL     1     -40.656  52.019 -54.177  1.00  0.00     0.001 A 
HETATM   12  C   UNL     1     -39.877  51.917 -53.029  1.00  0.00     0.000 A 
HETATM   13  C   UNL     1     -40.096  52.781 -51.960  1.00  0.00     0.001 A 
HETATM   14  C   UNL     1     -41.100  53.746 -52.036  1.00  0.00     0.010 A 
ENDBRANCH   8   9
BRANCH   8  15
HETATM   15  C   UNL     1     -42.866  56.066 -52.222  1.00  0.00     0.259 C 
HETATM   16  N   UNL     1     -41.802  56.908 -52.425  1.00  0.00    -0.304 N 
HETATM   17  H   UNL     1     -41.159  56.816 -53.203  1.00  0.00     0.171 HD
HETATM   18  O   UNL     1     -43.690  56.096 -51.301  1.00  0.00    -0.270 OA
BRANCH  16  19
HETATM   19  C   UNL     1     -41.567  57.968 -51.594  1.00  0.00     0.172 A 
HETATM   20  S   UNL     1     -42.449  59.375 -51.980  1.00  0.00    -0.062 SA
HETATM   21  C   UNL     1     -41.702  60.176 -50.658  1.00  0.00     0.072 A 
HETATM   22  C   UNL     1     -40.841  59.306 -50.020  1.00  0.00     0.126 A 
HETATM   23  N   UNL     1     -40.771  58.034 -50.561  1.00  0.00    -0.236 NA
ENDBRANCH  16  19
ENDBRANCH   8  15
ENDBRANCH   1   8
BRANCH   5  24
HETATM   24  C   UNL     1     -42.806  58.180 -57.736  1.00  0.00     0.125 A 
HETATM   25  N   UNL     1     -42.247  59.124 -56.951  1.00  0.00    -0.350 N 
HETATM   26  H   UNL     1     -42.264  58.948 -55.947  1.00  0.00     0.166 HD
HETATM   27  C   UNL     1     -41.717  60.272 -57.405  1.00  0.00     0.106 A 
HETATM   28  C   UNL     1     -41.710  60.546 -58.768  1.00  0.00     0.065 A 
HETATM   29  C   UNL     1     -42.288  59.612 -59.633  1.00  0.00     0.045 A 
HETATM   30  C   UNL     1     -42.830  58.429 -59.124  1.00  0.00     0.078 A 
HETATM   31 CL   UNL     1     -43.451  57.286 -60.251  1.00  0.00    -0.080 Cl
BRANCH  28  32
HETATM   32  C   UNL     1     -41.122  61.841 -59.264  1.00  0.00     0.418 C 
HETATM   33  F   UNL     1     -42.011  62.861 -59.156  1.00  0.00    -0.166 F 
HETATM   34  F   UNL     1     -40.015  62.209 -58.578  1.00  0.00    -0.166 F 
HETATM   35  F   UNL     1     -40.780  61.759 -60.571  1.00  0.00    -0.166 F 
ENDBRANCH  28  32
ENDBRANCH   5  24
TORSDOF 6
ENDMDL
MODEL 9
REMARK VINA RESULT:      -7.4      1.744      1.949
REMARK  6 active torsions:
REMARK  status: ('A' for Active; 'I' for Inactive)
REMARK    1  A    between atoms: C_4  and  C_5 
REMARK    2  A    between atoms: C_5  and  N_6 
REMARK    3  A    between atoms: C_5  and  C_25 
REMARK    4  A    between atoms: N_10  and  C_11 
REMARK    5  A    between atoms: C_15  and  C_16 
REMARK       I    between atoms: C_25  and  N_26 
REMARK    6  A    between atoms: N_26  and  C_27 
ROOT
HETATM    1  N   UNL     1     -42.811  58.262 -53.599  1.00  0.00    -0.051 N 
HETATM    2  H   UNL     1     -42.840  58.616 -52.624  1.00  0.00     0.281 HD
HETATM    3  C   UNL     1     -43.627  56.981 -53.573  1.00  0.00     0.256 C 
HETATM    4  C   UNL     1     -43.019  55.998 -52.549  1.00  0.00     0.152 C 
HETATM    5  N   UNL     1     -41.578  55.763 -52.783  1.00  0.00    -0.363 N 
HETATM    6  C   UNL     1     -40.727  56.945 -53.061  1.00  0.00     0.152 C 
HETATM    7  C   UNL     1     -41.378  58.010 -53.985  1.00  0.00     0.256 C 
ENDROOT
BRANCH   1   8
HETATM    8  C   UNL     1     -43.489  59.444 -54.362  1.00  0.00     0.312 C 
BRANCH   8   9
HETATM    9  C   UNL     1     -43.508  60.743 -53.582  1.00  0.00    -0.018 A 
HETATM   10  C   UNL     1     -43.057  60.823 -52.251  1.00  0.00     0.010 A 
HETATM   11  C   UNL     1     -43.128  62.026 -51.548  1.00  0.00     0.001 A 
HETATM   12  C   UNL     1     -43.645  63.163 -52.160  1.00  0.00     0.000 A 
HETATM   13  C   UNL     1     -44.090  63.104 -53.477  1.00  0.00     0.001 A 
HETATM   14  C   UNL     1     -44.024  61.904 -54.184  1.00  0.00     0.010 A 
ENDBRANCH   8   9
BRANCH   8  15
HETATM   15  C   UNL     1     -42.862  59.522 -55.777  1.00  0.00     0.259 C 
HETATM   16  N   UNL     1     -43.478  58.781 -56.754  1.00  0.00    -0.304 N 
HETATM   17  H   UNL     1     -44.321  58.242 -56.598  1.00  0.00     0.171 HD
HETATM   18  O   UNL     1     -41.832  60.198 -55.874  1.00  0.00    -0.270 OA
BRANCH  16  19
HETATM   19  C   UNL     1     -43.000  58.762 -58.036  1.00  0.00     0.172 A 
HETATM   20  S   UNL     1     -43.694  59.932 -59.064  1.00  0.00    -0.062 SA
HETATM   21  C   UNL     1     -42.716  59.347 -60.348  1.00  0.00     0.072 A 
HETATM   22  C   UNL     1     -41.930  58.308 -59.891  1.00  0.00     0.126 A 
HETATM   23  N   UNL     1     -42.095  57.978 -58.557  1.00  0.00    -0.236 NA
ENDBRANCH  16  19
ENDBRANCH   8  15
ENDBRANCH   1   8
BRANCH   5  24
HETATM   24  C   UNL     1     -41.181  54.498 -53.157  1.00  0.00     0.125 A 
HETATM   25  N   UNL     1     -40.687  53.727 -52.167  1.00  0.00    -0.350 N 
HETATM   26  H   UNL     1     -40.619  54.160 -51.246  1.00  0.00     0.166 HD
HETATM   27  C   UNL     1     -40.255  52.466 -52.331  1.00  0.00     0.106 A 
HETATM   28  C   UNL     1     -40.311  51.867 -53.584  1.00  0.00     0.065 A 
HETATM   29  C   UNL     1     -40.801  52.620 -54.655  1.00  0.00     0.045 A 
HETATM   30  C   UNL     1     -41.240  53.929 -54.446  1.00  0.00     0.078 A 
HETATM   31 CL   UNL     1     -41.908  54.771 -55.792  1.00  0.00    -0.080 Cl
BRANCH  28  32
HETATM   32  C   UNL     1     -39.815  50.454 -53.757  1.00  0.00     0.418 C 
HETATM   33  F   UNL     1     -40.696  49.705 -54.467  1.00  0.00    -0.166 F 
HETATM   34  F   UNL     1     -38.631  50.393 -54.408  1.00  0.00    -0.166 F 
HETATM   35  F   UNL     1     -39.654  49.839 -52.563  1.00  0.00    -0.166 F 
ENDBRANCH  28  32
ENDBRANCH   5  24
TORSDOF 6
ENDMDL
MODEL 10
REMARK VINA RESULT:      -7.4      6.227      8.876
REMARK  6 active torsions:
REMARK  status: ('A' for Active; 'I' for Inactive)
REMARK    1  A    between atoms: C_4  and  C_5 
REMARK    2  A    between atoms: C_5  and  N_6 
REMARK    3  A    between atoms: C_5  and  C_25 
REMARK    4  A    between atoms: N_10  and  C_11 
REMARK    5  A    between atoms: C_15  and  C_16 
REMARK       I    between atoms: C_25  and  N_26 
REMARK    6  A    between atoms: N_26  and  C_27 
ROOT
HETATM    1  N   UNL     1     -42.586  58.520 -52.340  1.00  0.00    -0.051 N 
HETATM    2  H   UNL     1     -42.859  58.683 -53.328  1.00  0.00     0.281 HD
HETATM    3  C   UNL     1     -43.861  58.064 -51.653  1.00  0.00     0.256 C 
HETATM    4  C   UNL     1     -44.953  59.144 -51.815  1.00  0.00     0.152 C 
HETATM    5  N   UNL     1     -44.497  60.477 -51.364  1.00  0.00    -0.363 N 
HETATM    6  C   UNL     1     -43.147  60.918 -51.789  1.00  0.00     0.152 C 
HETATM    7  C   UNL     1     -42.062  59.807 -51.759  1.00  0.00     0.256 C 
ENDROOT
BRANCH   1   8
HETATM    8  C   UNL     1     -41.509  57.402 -52.511  1.00  0.00     0.312 C 
BRANCH   8   9
HETATM    9  C   UNL     1     -41.617  56.290 -51.488  1.00  0.00    -0.018 A 
HETATM   10  C   UNL     1     -41.100  56.419 -50.186  1.00  0.00     0.010 A 
HETATM   11  C   UNL     1     -41.180  55.360 -49.281  1.00  0.00     0.001 A 
HETATM   12  C   UNL     1     -41.776  54.161 -49.659  1.00  0.00     0.000 A 
HETATM   13  C   UNL     1     -42.297  54.017 -50.941  1.00  0.00     0.001 A 
HETATM   14  C   UNL     1     -42.218  55.072 -51.851  1.00  0.00     0.010 A 
ENDBRANCH   8   9
BRANCH   8  15
HETATM   15  C   UNL     1     -41.517  56.952 -53.993  1.00  0.00     0.259 C 
HETATM   16  N   UNL     1     -42.653  57.238 -54.708  1.00  0.00    -0.304 N 
HETATM   17  H   UNL     1     -43.438  57.753 -54.326  1.00  0.00     0.171 HD
HETATM   18  O   UNL     1     -40.522  56.324 -54.372  1.00  0.00    -0.270 OA
BRANCH  16  19
HETATM   19  C   UNL     1     -42.777  56.871 -56.020  1.00  0.00     0.172 A 
HETATM   20  S   UNL     1     -42.557  58.145 -57.131  1.00  0.00    -0.062 SA
HETATM   21  C   UNL     1     -42.841  57.041 -58.414  1.00  0.00     0.072 A 
HETATM   22  C   UNL     1     -43.076  55.783 -57.896  1.00  0.00     0.126 A 
HETATM   23  N   UNL     1     -43.033  55.690 -56.516  1.00  0.00    -0.236 NA
ENDBRANCH  16  19
ENDBRANCH   8  15
ENDBRANCH   1   8
BRANCH   5  24
HETATM   24  C   UNL     1     -45.115  61.035 -50.267  1.00  0.00     0.125 A 
HETATM   25  N   UNL     1     -44.663  60.615 -49.069  1.00  0.00    -0.350 N 
HETATM   26  H   UNL     1     -43.935  59.901 -49.082  1.00  0.00     0.166 HD
HETATM   27  C   UNL     1     -45.133  61.047 -47.887  1.00  0.00     0.106 A 
HETATM   28  C   UNL     1     -46.146  61.998 -47.844  1.00  0.00     0.065 A 
HETATM   29  C   UNL     1     -46.667  62.463 -49.055  1.00  0.00     0.045 A 
HETATM   30  C   UNL     1     -46.153  61.990 -50.265  1.00  0.00     0.078 A 
HETATM   31 CL   UNL     1     -46.784  62.665 -51.717  1.00  0.00    -0.080 Cl
BRANCH  28  32
HETATM   32  C   UNL     1     -46.671  62.467 -46.512  1.00  0.00     0.418 C 
HETATM   33  F   UNL     1     -47.415  61.506 -45.909  1.00  0.00    -0.166 F 
HETATM   34  F   UNL     1     -45.685  62.802 -45.649  1.00  0.00    -0.166 F 
HETATM   35  F   UNL     1     -47.472  63.550 -46.651  1.00  0.00    -0.166 F 
ENDBRANCH  28  32
ENDBRANCH   5  24
TORSDOF 6
ENDMDL
