MODEL 1
REMARK VINA RESULT:      -8.1      0.000      0.000
REMARK  6 active torsions:
REMARK  status: ('A' for Active; 'I' for Inactive)
REMARK    1  A    between atoms: C_2  and  O_3 
REMARK    2  A    between atoms: O_3  and  C_4 
REMARK    3  A    between atoms: C_4  and  C_5 
REMARK    4  A    between atoms: C_6  and  O_7 
REMARK    5  A    between atoms: C_12  and  O_13 
REMARK    6  A    between atoms: C_17  and  C_18 
ROOT
HETATM    1  C   UNL     1     -41.284  57.187 -53.659  1.00  0.00     0.133 C 
HETATM    2  C   UNL     1     -42.654  57.432 -54.383  1.00  0.00     0.073 C 
HETATM    3  C   UNL     1     -42.993  56.262 -55.321  1.00  0.00     0.047 C 
HETATM    4  C   UNL     1     -43.844  57.683 -53.411  1.00  0.00     0.097 C 
HETATM    5  C   UNL     1     -43.737  56.792 -52.233  1.00  0.00     0.042 A 
HETATM    6  C   UNL     1     -42.623  56.102 -51.803  1.00  0.00     0.030 A 
HETATM    7  C   UNL     1     -43.070  55.468 -50.633  1.00  0.00     0.190 A 
HETATM    8  N   UNL     1     -44.344  55.711 -50.347  1.00  0.00    -0.149 NA
HETATM    9  N   UNL     1     -44.734  56.533 -51.338  1.00  0.00    -0.279 N 
HETATM   10  H   UNL     1     -45.689  56.878 -51.328  1.00  0.00     0.189 HD
HETATM   11  C   UNL     1     -41.298  56.166 -52.483  1.00  0.00     0.074 C 
ENDROOT
BRANCH  11  12
HETATM   12  C   UNL     1     -40.861  54.762 -52.893  1.00  0.00    -0.048 A 
HETATM   13  C   UNL     1     -40.683  53.684 -52.009  1.00  0.00     0.011 A 
HETATM   14  C   UNL     1     -40.284  52.428 -52.476  1.00  0.00     0.043 A 
HETATM   15  C   UNL     1     -40.065  52.236 -53.833  1.00  0.00     0.116 A 
HETATM   16  F   UNL     1     -39.683  51.032 -54.278  1.00  0.00    -0.206 F 
HETATM   17  C   UNL     1     -40.237  53.277 -54.733  1.00  0.00     0.043 A 
HETATM   18  C   UNL     1     -40.634  54.532 -54.267  1.00  0.00     0.011 A 
ENDBRANCH  11  12
BRANCH   1  19
HETATM   19  C   UNL     1     -40.737  58.494 -53.109  1.00  0.00     0.267 C 
HETATM   20  O   UNL     1     -40.609  59.525 -53.753  1.00  0.00    -0.265 OA
BRANCH  19  21
HETATM   21  O   UNL     1     -40.383  58.334 -51.802  1.00  0.00    -0.316 OA
BRANCH  21  22
HETATM   22  C   UNL     1     -40.168  59.533 -51.031  1.00  0.00     0.123 C 
HETATM   23  C   UNL     1     -38.712  59.533 -50.585  1.00  0.00     0.040 C 
HETATM   24  C   UNL     1     -41.112  59.500 -49.838  1.00  0.00     0.040 C 
ENDBRANCH  21  22
ENDBRANCH  19  21
ENDBRANCH   1  19
BRANCH   2  25
HETATM   25  O   UNL     1     -42.532  58.564 -55.268  1.00  0.00    -0.389 OA
HETATM   26  H   UNL     1     -42.910  59.343 -54.810  1.00  0.00     0.210 HD
ENDBRANCH   2  25
BRANCH   7  27
HETATM   27  O   UNL     1     -42.415  54.658 -49.798  1.00  0.00    -0.343 OA
HETATM   28  H   UNL     1     -42.986  54.431 -49.049  1.00  0.00     0.219 HD
ENDBRANCH   7  27
TORSDOF 6
ENDMDL
MODEL 2
REMARK VINA RESULT:      -7.7      2.592      4.946
REMARK  6 active torsions:
REMARK  status: ('A' for Active; 'I' for Inactive)
REMARK    1  A    between atoms: C_2  and  O_3 
REMARK    2  A    between atoms: O_3  and  C_4 
REMARK    3  A    between atoms: C_4  and  C_5 
REMARK    4  A    between atoms: C_6  and  O_7 
REMARK    5  A    between atoms: C_12  and  O_13 
REMARK    6  A    between atoms: C_17  and  C_18 
ROOT
HETATM    1  C   UNL     1     -43.095  57.127 -55.967  1.00  0.00     0.133 C 
HETATM    2  C   UNL     1     -44.437  57.592 -55.301  1.00  0.00     0.073 C 
HETATM    3  C   UNL     1     -44.889  56.591 -54.225  1.00  0.00     0.047 C 
HETATM    4  C   UNL     1     -44.372  59.021 -54.689  1.00  0.00     0.097 C 
HETATM    5  C   UNL     1     -43.064  59.237 -54.031  1.00  0.00     0.042 A 
HETATM    6  C   UNL     1     -41.908  58.503 -54.204  1.00  0.00     0.030 A 
HETATM    7  C   UNL     1     -40.981  59.168 -53.386  1.00  0.00     0.190 A 
HETATM    8  N   UNL     1     -41.489  60.210 -52.741  1.00  0.00    -0.149 NA
HETATM    9  N   UNL     1     -42.768  60.242 -53.155  1.00  0.00    -0.279 N 
HETATM   10  H   UNL     1     -43.370  60.980 -52.804  1.00  0.00     0.189 HD
HETATM   11  C   UNL     1     -41.798  57.342 -55.133  1.00  0.00     0.074 C 
ENDROOT
BRANCH  11  12
HETATM   12  C   UNL     1     -41.362  56.102 -54.358  1.00  0.00    -0.048 A 
HETATM   13  C   UNL     1     -41.545  55.911 -52.977  1.00  0.00     0.011 A 
HETATM   14  C   UNL     1     -41.117  54.736 -52.350  1.00  0.00     0.043 A 
HETATM   15  C   UNL     1     -40.507  53.740 -53.098  1.00  0.00     0.116 A 
HETATM   16  F   UNL     1     -40.097  52.616 -52.496  1.00  0.00    -0.206 F 
HETATM   17  C   UNL     1     -40.316  53.894 -54.463  1.00  0.00     0.043 A 
HETATM   18  C   UNL     1     -40.742  55.067 -55.090  1.00  0.00     0.011 A 
ENDBRANCH  11  12
BRANCH   1  19
HETATM   19  C   UNL     1     -42.893  57.835 -57.297  1.00  0.00     0.267 C 
HETATM   20  O   UNL     1     -42.219  58.843 -57.458  1.00  0.00    -0.265 OA
BRANCH  19  21
HETATM   21  O   UNL     1     -43.598  57.196 -58.274  1.00  0.00    -0.316 OA
BRANCH  21  22
HETATM   22  C   UNL     1     -42.956  56.080 -58.921  1.00  0.00     0.123 C 
HETATM   23  C   UNL     1     -42.170  56.630 -60.105  1.00  0.00     0.040 C 
HETATM   24  C   UNL     1     -44.039  55.114 -59.377  1.00  0.00     0.040 C 
ENDBRANCH  21  22
ENDBRANCH  19  21
ENDBRANCH   1  19
BRANCH   2  25
HETATM   25  O   UNL     1     -45.496  57.553 -56.279  1.00  0.00    -0.389 OA
HETATM   26  H   UNL     1     -46.216  56.997 -55.917  1.00  0.00     0.210 HD
ENDBRANCH   2  25
BRANCH   7  27
HETATM   27  O   UNL     1     -39.695  58.892 -53.156  1.00  0.00    -0.343 OA
HETATM   28  H   UNL     1     -39.549  57.938 -53.227  1.00  0.00     0.219 HD
ENDBRANCH   7  27
TORSDOF 6
ENDMDL
MODEL 3
REMARK VINA RESULT:      -7.4      2.598      4.462
REMARK  6 active torsions:
REMARK  status: ('A' for Active; 'I' for Inactive)
REMARK    1  A    between atoms: C_2  and  O_3 
REMARK    2  A    between atoms: O_3  and  C_4 
REMARK    3  A    between atoms: C_4  and  C_5 
REMARK    4  A    between atoms: C_6  and  O_7 
REMARK    5  A    between atoms: C_12  and  O_13 
REMARK    6  A    between atoms: C_17  and  C_18 
ROOT
HETATM    1  C   UNL     1     -42.892  56.834 -52.976  1.00  0.00     0.133 C 
HETATM    2  C   UNL     1     -44.131  57.595 -52.388  1.00  0.00     0.073 C 
HETATM    3  C   UNL     1     -44.677  56.871 -51.146  1.00  0.00     0.047 C 
HETATM    4  C   UNL     1     -43.848  59.085 -52.041  1.00  0.00     0.097 C 
HETATM    5  C   UNL     1     -42.499  59.224 -51.447  1.00  0.00     0.042 A 
HETATM    6  C   UNL     1     -41.463  58.315 -51.500  1.00  0.00     0.030 A 
HETATM    7  C   UNL     1     -40.424  58.974 -50.824  1.00  0.00     0.190 A 
HETATM    8  N   UNL     1     -40.759  60.175 -50.369  1.00  0.00    -0.149 NA
HETATM    9  N   UNL     1     -42.036  60.314 -50.768  1.00  0.00    -0.279 N 
HETATM   10  H   UNL     1     -42.517  61.181 -50.547  1.00  0.00     0.189 HD
HETATM   11  C   UNL     1     -41.548  57.006 -52.208  1.00  0.00     0.074 C 
ENDROOT
BRANCH  11  12
HETATM   12  C   UNL     1     -41.259  55.871 -51.229  1.00  0.00    -0.048 A 
HETATM   13  C   UNL     1     -41.359  55.970 -49.830  1.00  0.00     0.011 A 
HETATM   14  C   UNL     1     -41.079  54.874 -49.009  1.00  0.00     0.043 A 
HETATM   15  C   UNL     1     -40.702  53.666 -49.579  1.00  0.00     0.116 A 
HETATM   16  F   UNL     1     -40.434  52.617 -48.790  1.00  0.00    -0.206 F 
HETATM   17  C   UNL     1     -40.599  53.533 -50.955  1.00  0.00     0.043 A 
HETATM   18  C   UNL     1     -40.878  54.627 -51.776  1.00  0.00     0.011 A 
ENDBRANCH  11  12
BRANCH   1  19
HETATM   19  C   UNL     1     -42.643  57.263 -54.412  1.00  0.00     0.267 C 
HETATM   20  O   UNL     1     -41.920  58.189 -54.751  1.00  0.00    -0.265 OA
BRANCH  19  21
HETATM   21  O   UNL     1     -43.368  56.480 -55.261  1.00  0.00    -0.316 OA
BRANCH  21  22
HETATM   22  C   UNL     1     -42.650  55.465 -55.990  1.00  0.00     0.123 C 
HETATM   23  C   UNL     1     -43.010  55.620 -57.462  1.00  0.00     0.040 C 
HETATM   24  C   UNL     1     -43.080  54.108 -55.455  1.00  0.00     0.040 C 
ENDBRANCH  21  22
ENDBRANCH  19  21
ENDBRANCH   1  19
BRANCH   2  25
HETATM   25  O   UNL     1     -45.221  57.537 -53.331  1.00  0.00    -0.389 OA
HETATM   26  H   UNL     1     -45.964  57.067 -52.899  1.00  0.00     0.210 HD
ENDBRANCH   2  25
BRANCH   7  27
HETATM   27  O   UNL     1     -39.181  58.563 -50.564  1.00  0.00    -0.343 OA
HETATM   28  H   UNL     1     -39.206  57.679 -50.168  1.00  0.00     0.219 HD
ENDBRANCH   7  27
TORSDOF 6
ENDMDL
MODEL 4
REMARK VINA RESULT:      -7.4      2.998      4.169
REMARK  6 active torsions:
REMARK  status: ('A' for Active; 'I' for Inactive)
REMARK    1  A    between atoms: C_2  and  O_3 
REMARK    2  A    between atoms: O_3  and  C_4 
REMARK    3  A    between atoms: C_4  and  C_5 
REMARK    4  A    between atoms: C_6  and  O_7 
REMARK    5  A    between atoms: C_12  and  O_13 
REMARK    6  A    between atoms: C_17  and  C_18 
ROOT
HETATM    1  C   UNL     1     -43.089  58.104 -53.223  1.00  0.00     0.133 C 
HETATM    2  C   UNL     1     -41.937  58.882 -53.950  1.00  0.00     0.073 C 
HETATM    3  C   UNL     1     -40.561  58.422 -53.440  1.00  0.00     0.047 C 
HETATM    4  C   UNL     1     -41.983  58.768 -55.502  1.00  0.00     0.097 C 
HETATM    5  C   UNL     1     -42.365  57.396 -55.902  1.00  0.00     0.042 A 
HETATM    6  C   UNL     1     -42.960  56.429 -55.118  1.00  0.00     0.030 A 
HETATM    7  C   UNL     1     -43.137  55.358 -56.008  1.00  0.00     0.190 A 
HETATM    8  N   UNL     1     -42.689  55.602 -57.233  1.00  0.00    -0.149 NA
HETATM    9  N   UNL     1     -42.225  56.862 -57.151  1.00  0.00    -0.279 N 
HETATM   10  H   UNL     1     -41.838  57.287 -57.987  1.00  0.00     0.189 HD
HETATM   11  C   UNL     1     -43.336  56.640 -53.691  1.00  0.00     0.074 C 
ENDROOT
BRANCH  11  12
HETATM   12  C   UNL     1     -42.642  55.599 -52.816  1.00  0.00    -0.048 A 
HETATM   13  C   UNL     1     -41.408  54.995 -53.111  1.00  0.00     0.011 A 
HETATM   14  C   UNL     1     -40.843  54.051 -52.247  1.00  0.00     0.043 A 
HETATM   15  C   UNL     1     -41.505  53.707 -51.077  1.00  0.00     0.116 A 
HETATM   16  F   UNL     1     -40.963  52.803 -50.251  1.00  0.00    -0.206 F 
HETATM   17  C   UNL     1     -42.722  54.288 -50.753  1.00  0.00     0.043 A 
HETATM   18  C   UNL     1     -43.287  55.229 -51.616  1.00  0.00     0.011 A 
ENDBRANCH  11  12
BRANCH   1  19
HETATM   19  C   UNL     1     -44.405  58.849 -53.375  1.00  0.00     0.267 C 
HETATM   20  O   UNL     1     -45.257  58.600 -54.216  1.00  0.00    -0.265 OA
BRANCH  19  21
HETATM   21  O   UNL     1     -44.479  59.851 -52.453  1.00  0.00    -0.316 OA
BRANCH  21  22
HETATM   22  C   UNL     1     -44.247  59.493 -51.077  1.00  0.00     0.123 C 
HETATM   23  C   UNL     1     -45.605  59.215 -50.443  1.00  0.00     0.040 C 
HETATM   24  C   UNL     1     -43.550  60.663 -50.398  1.00  0.00     0.040 C 
ENDBRANCH  21  22
ENDBRANCH  19  21
ENDBRANCH   1  19
BRANCH   2  25
HETATM   25  O   UNL     1     -41.995  60.276 -53.585  1.00  0.00    -0.389 OA
HETATM   26  H   UNL     1     -42.427  60.759 -54.319  1.00  0.00     0.210 HD
ENDBRANCH   2  25
BRANCH   7  27
HETATM   27  O   UNL     1     -43.663  54.150 -55.794  1.00  0.00    -0.343 OA
HETATM   28  H   UNL     1     -43.294  53.517 -56.428  1.00  0.00     0.219 HD
ENDBRANCH   7  27
TORSDOF 6
ENDMDL
MODEL 5
REMARK VINA RESULT:      -7.3      2.822      5.197
REMARK  6 active torsions:
REMARK  status: ('A' for Active; 'I' for Inactive)
REMARK    1  A    between atoms: C_2  and  O_3 
REMARK    2  A    between atoms: O_3  and  C_4 
REMARK    3  A    between atoms: C_4  and  C_5 
REMARK    4  A    between atoms: C_6  and  O_7 
REMARK    5  A    between atoms: C_12  and  O_13 
REMARK    6  A    between atoms: C_17  and  C_18 
ROOT
HETATM    1  C   UNL     1     -41.293  55.162 -53.290  1.00  0.00     0.133 C 
HETATM    2  C   UNL     1     -41.155  53.863 -52.422  1.00  0.00     0.073 C 
HETATM    3  C   UNL     1     -40.100  54.053 -51.319  1.00  0.00     0.047 C 
HETATM    4  C   UNL     1     -42.493  53.386 -51.786  1.00  0.00     0.097 C 
HETATM    5  C   UNL     1     -43.282  54.549 -51.322  1.00  0.00     0.042 A 
HETATM    6  C   UNL     1     -43.117  55.870 -51.684  1.00  0.00     0.030 A 
HETATM    7  C   UNL     1     -44.151  56.523 -50.993  1.00  0.00     0.190 A 
HETATM    8  N   UNL     1     -44.894  55.710 -50.251  1.00  0.00    -0.149 NA
HETATM    9  N   UNL     1     -44.349  54.500 -50.473  1.00  0.00    -0.279 N 
HETATM   10  H   UNL     1     -44.766  53.695 -50.016  1.00  0.00     0.189 HD
HETATM   11  C   UNL     1     -42.084  56.340 -52.650  1.00  0.00     0.074 C 
ENDROOT
BRANCH  11  12
HETATM   12  C   UNL     1     -41.188  57.380 -51.982  1.00  0.00    -0.048 A 
HETATM   13  C   UNL     1     -41.062  57.559 -50.593  1.00  0.00     0.011 A 
HETATM   14  C   UNL     1     -40.211  58.537 -50.068  1.00  0.00     0.043 A 
HETATM   15  C   UNL     1     -39.474  59.340 -50.926  1.00  0.00     0.116 A 
HETATM   16  F   UNL     1     -38.660  60.276 -50.421  1.00  0.00    -0.206 F 
HETATM   17  C   UNL     1     -39.571  59.186 -52.301  1.00  0.00     0.043 A 
HETATM   18  C   UNL     1     -40.421  58.211 -52.826  1.00  0.00     0.011 A 
ENDBRANCH  11  12
BRANCH   1  19
HETATM   19  C   UNL     1     -41.965  54.841 -54.615  1.00  0.00     0.267 C 
HETATM   20  O   UNL     1     -42.586  53.815 -54.855  1.00  0.00    -0.265 OA
BRANCH  19  21
HETATM   21  O   UNL     1     -41.746  55.853 -55.503  1.00  0.00    -0.316 OA
BRANCH  21  22
HETATM   22  C   UNL     1     -42.906  56.438 -56.126  1.00  0.00     0.123 C 
HETATM   23  C   UNL     1     -42.946  55.946 -57.567  1.00  0.00     0.040 C 
HETATM   24  C   UNL     1     -42.760  57.952 -56.063  1.00  0.00     0.040 C 
ENDBRANCH  21  22
ENDBRANCH  19  21
ENDBRANCH   1  19
BRANCH   2  25
HETATM   25  O   UNL     1     -40.621  52.798 -53.234  1.00  0.00    -0.389 OA
HETATM   26  H   UNL     1     -39.882  53.167 -53.760  1.00  0.00     0.210 HD
ENDBRANCH   2  25
BRANCH   7  27
HETATM   27  O   UNL     1     -44.471  57.818 -50.962  1.00  0.00    -0.343 OA
HETATM   28  H   UNL     1     -45.431  57.919 -51.046  1.00  0.00     0.219 HD
ENDBRANCH   7  27
TORSDOF 6
ENDMDL
MODEL 6
REMARK VINA RESULT:      -7.3      2.379      4.437
REMARK  6 active torsions:
REMARK  status: ('A' for Active; 'I' for Inactive)
REMARK    1  A    between atoms: C_2  and  O_3 
REMARK    2  A    between atoms: O_3  and  C_4 
REMARK    3  A    between atoms: C_4  and  C_5 
REMARK    4  A    between atoms: C_6  and  O_7 
REMARK    5  A    between atoms: C_12  and  O_13 
REMARK    6  A    between atoms: C_17  and  C_18 
ROOT
HETATM    1  C   UNL     1     -43.843  57.088 -52.975  1.00  0.00     0.133 C 
HETATM    2  C   UNL     1     -44.168  57.226 -51.446  1.00  0.00     0.073 C 
HETATM    3  C   UNL     1     -43.745  55.961 -50.682  1.00  0.00     0.047 C 
HETATM    4  C   UNL     1     -43.528  58.477 -50.778  1.00  0.00     0.097 C 
HETATM    5  C   UNL     1     -42.161  58.695 -51.303  1.00  0.00     0.042 A 
HETATM    6  C   UNL     1     -41.611  58.164 -52.451  1.00  0.00     0.030 A 
HETATM    7  C   UNL     1     -40.329  58.734 -52.485  1.00  0.00     0.190 A 
HETATM    8  N   UNL     1     -40.073  59.535 -51.458  1.00  0.00    -0.149 NA
HETATM    9  N   UNL     1     -41.213  59.505 -50.747  1.00  0.00    -0.279 N 
HETATM   10  H   UNL     1     -41.269  60.066 -49.903  1.00  0.00     0.189 HD
HETATM   11  C   UNL     1     -42.351  57.265 -53.383  1.00  0.00     0.074 C 
ENDROOT
BRANCH  11  12
HETATM   12  C   UNL     1     -41.601  55.943 -53.526  1.00  0.00    -0.048 A 
HETATM   13  C   UNL     1     -41.308  55.065 -52.468  1.00  0.00     0.011 A 
HETATM   14  C   UNL     1     -40.618  53.870 -52.695  1.00  0.00     0.043 A 
HETATM   15  C   UNL     1     -40.219  53.539 -53.982  1.00  0.00     0.116 A 
HETATM   16  F   UNL     1     -39.559  52.394 -54.196  1.00  0.00    -0.206 F 
HETATM   17  C   UNL     1     -40.498  54.380 -55.049  1.00  0.00     0.043 A 
HETATM   18  C   UNL     1     -41.185  55.574 -54.824  1.00  0.00     0.011 A 
ENDBRANCH  11  12
BRANCH   1  19
HETATM   19  C   UNL     1     -44.647  58.097 -53.778  1.00  0.00     0.267 C 
HETATM   20  O   UNL     1     -44.894  59.240 -53.419  1.00  0.00    -0.265 OA
BRANCH  19  21
HETATM   21  O   UNL     1     -45.077  57.528 -54.940  1.00  0.00    -0.316 OA
BRANCH  21  22
HETATM   22  C   UNL     1     -44.718  58.193 -56.167  1.00  0.00     0.123 C 
HETATM   23  C   UNL     1     -46.002  58.419 -56.955  1.00  0.00     0.040 C 
HETATM   24  C   UNL     1     -43.754  57.294 -56.926  1.00  0.00     0.040 C 
ENDBRANCH  21  22
ENDBRANCH  19  21
ENDBRANCH   1  19
BRANCH   2  25
HETATM   25  O   UNL     1     -45.597  57.282 -51.263  1.00  0.00    -0.389 OA
HETATM   26  H   UNL     1     -45.910  56.371 -51.083  1.00  0.00     0.210 HD
ENDBRANCH   2  25
BRANCH   7  27
HETATM   27  O   UNL     1     -39.346  58.571 -53.374  1.00  0.00    -0.343 OA
HETATM   28  H   UNL     1     -38.513  58.402 -52.912  1.00  0.00     0.219 HD
ENDBRANCH   7  27
TORSDOF 6
ENDMDL
MODEL 7
REMARK VINA RESULT:      -7.0      2.969      5.559
REMARK  6 active torsions:
REMARK  status: ('A' for Active; 'I' for Inactive)
REMARK    1  A    between atoms: C_2  and  O_3 
REMARK    2  A    between atoms: O_3  and  C_4 
REMARK    3  A    between atoms: C_4  and  C_5 
REMARK    4  A    between atoms: C_6  and  O_7 
REMARK    5  A    between atoms: C_12  and  O_13 
REMARK    6  A    between atoms: C_17  and  C_18 
ROOT
HETATM    1  C   UNL     1     -42.355  56.918 -53.362  1.00  0.00     0.133 C 
HETATM    2  C   UNL     1     -43.734  56.631 -52.672  1.00  0.00     0.073 C 
HETATM    3  C   UNL     1     -43.628  56.800 -51.147  1.00  0.00     0.047 C 
HETATM    4  C   UNL     1     -44.903  57.505 -53.213  1.00  0.00     0.097 C 
HETATM    5  C   UNL     1     -44.433  58.886 -53.464  1.00  0.00     0.042 A 
HETATM    6  C   UNL     1     -43.129  59.318 -53.586  1.00  0.00     0.030 A 
HETATM    7  C   UNL     1     -43.269  60.688 -53.862  1.00  0.00     0.190 A 
HETATM    8  N   UNL     1     -44.531  61.098 -53.899  1.00  0.00    -0.149 NA
HETATM    9  N   UNL     1     -45.232  59.976 -53.659  1.00  0.00    -0.279 N 
HETATM   10  H   UNL     1     -46.245  60.034 -53.654  1.00  0.00     0.189 HD
HETATM   11  C   UNL     1     -41.947  58.414 -53.494  1.00  0.00     0.074 C 
ENDROOT
BRANCH  11  12
HETATM   12  C   UNL     1     -41.020  58.891 -52.379  1.00  0.00    -0.048 A 
HETATM   13  C   UNL     1     -41.447  59.390 -51.136  1.00  0.00     0.011 A 
HETATM   14  C   UNL     1     -40.523  59.800 -50.169  1.00  0.00     0.043 A 
HETATM   15  C   UNL     1     -39.164  59.710 -50.434  1.00  0.00     0.116 A 
HETATM   16  F   UNL     1     -38.281  60.104 -49.507  1.00  0.00    -0.206 F 
HETATM   17  C   UNL     1     -38.709  59.216 -51.648  1.00  0.00     0.043 A 
HETATM   18  C   UNL     1     -39.630  58.807 -52.613  1.00  0.00     0.011 A 
ENDBRANCH  11  12
BRANCH   1  19
HETATM   19  C   UNL     1     -42.332  56.324 -54.761  1.00  0.00     0.267 C 
HETATM   20  O   UNL     1     -42.515  56.955 -55.792  1.00  0.00    -0.265 OA
BRANCH  19  21
HETATM   21  O   UNL     1     -42.107  54.981 -54.690  1.00  0.00    -0.316 OA
BRANCH  21  22
HETATM   22  C   UNL     1     -40.853  54.557 -54.120  1.00  0.00     0.123 C 
HETATM   23  C   UNL     1     -40.015  53.969 -55.248  1.00  0.00     0.040 C 
HETATM   24  C   UNL     1     -41.151  53.515 -53.052  1.00  0.00     0.040 C 
ENDBRANCH  21  22
ENDBRANCH  19  21
ENDBRANCH   1  19
BRANCH   2  25
HETATM   25  O   UNL     1     -44.076  55.240 -52.844  1.00  0.00    -0.389 OA
HETATM   26  H   UNL     1     -43.279  54.710 -52.639  1.00  0.00     0.210 HD
ENDBRANCH   2  25
BRANCH   7  27
HETATM   27  O   UNL     1     -42.333  61.616 -54.069  1.00  0.00    -0.343 OA
HETATM   28  H   UNL     1     -42.316  61.859 -55.006  1.00  0.00     0.219 HD
ENDBRANCH   7  27
TORSDOF 6
ENDMDL
MODEL 8
REMARK VINA RESULT:      -7.0     15.987     18.329
REMARK  6 active torsions:
REMARK  status: ('A' for Active; 'I' for Inactive)
REMARK    1  A    between atoms: C_2  and  O_3 
REMARK    2  A    between atoms: O_3  and  C_4 
REMARK    3  A    between atoms: C_4  and  C_5 
REMARK    4  A    between atoms: C_6  and  O_7 
REMARK    5  A    between atoms: C_12  and  O_13 
REMARK    6  A    between atoms: C_17  and  C_18 
ROOT
HETATM    1  C   UNL     1     -34.988  40.432 -53.650  1.00  0.00     0.133 C 
HETATM    2  C   UNL     1     -36.000  39.389 -53.059  1.00  0.00     0.073 C 
HETATM    3  C   UNL     1     -35.696  37.975 -53.583  1.00  0.00     0.047 C 
HETATM    4  C   UNL     1     -36.047  39.369 -51.503  1.00  0.00     0.097 C 
HETATM    5  C   UNL     1     -34.684  39.528 -50.949  1.00  0.00     0.042 A 
HETATM    6  C   UNL     1     -33.562  39.993 -51.604  1.00  0.00     0.030 A 
HETATM    7  C   UNL     1     -32.578  39.979 -50.603  1.00  0.00     0.190 A 
HETATM    8  N   UNL     1     -33.014  39.536 -49.431  1.00  0.00    -0.149 NA
HETATM    9  N   UNL     1     -34.313  39.271 -49.661  1.00  0.00    -0.279 N 
HETATM   10  H   UNL     1     -34.877  38.927 -48.890  1.00  0.00     0.189 HD
HETATM   11  C   UNL     1     -33.562  40.440 -53.026  1.00  0.00     0.074 C 
ENDROOT
BRANCH  11  12
HETATM   12  C   UNL     1     -32.547  39.624 -53.822  1.00  0.00    -0.048 A 
HETATM   13  C   UNL     1     -32.044  38.369 -53.437  1.00  0.00     0.011 A 
HETATM   14  C   UNL     1     -31.118  37.689 -54.233  1.00  0.00     0.043 A 
HETATM   15  C   UNL     1     -30.689  38.255 -55.425  1.00  0.00     0.116 A 
HETATM   16  F   UNL     1     -29.801  37.602 -56.187  1.00  0.00    -0.206 F 
HETATM   17  C   UNL     1     -31.169  39.489 -55.838  1.00  0.00     0.043 A 
HETATM   18  C   UNL     1     -32.093  40.169 -55.043  1.00  0.00     0.011 A 
ENDBRANCH  11  12
BRANCH   1  19
HETATM   19  C   UNL     1     -35.543  41.840 -53.514  1.00  0.00     0.267 C 
HETATM   20  O   UNL     1     -36.014  42.311 -52.488  1.00  0.00    -0.265 OA
BRANCH  19  21
HETATM   21  O   UNL     1     -35.465  42.487 -54.712  1.00  0.00    -0.316 OA
BRANCH  21  22
HETATM   22  C   UNL     1     -35.861  41.745 -55.882  1.00  0.00     0.123 C 
HETATM   23  C   UNL     1     -34.873  42.082 -56.991  1.00  0.00     0.040 C 
HETATM   24  C   UNL     1     -37.274  42.172 -56.253  1.00  0.00     0.040 C 
ENDBRANCH  21  22
ENDBRANCH  19  21
ENDBRANCH   1  19
BRANCH   2  25
HETATM   25  O   UNL     1     -37.323  39.668 -53.560  1.00  0.00    -0.389 OA
HETATM   26  H   UNL     1     -37.509  39.031 -54.280  1.00  0.00     0.210 HD
ENDBRANCH   2  25
BRANCH   7  27
HETATM   27  O   UNL     1     -31.290  40.322 -50.669  1.00  0.00    -0.343 OA
HETATM   28  H   UNL     1     -30.892  40.268 -49.788  1.00  0.00     0.219 HD
ENDBRANCH   7  27
TORSDOF 6
ENDMDL
MODEL 9
REMARK VINA RESULT:      -6.9      5.675      8.091
REMARK  6 active torsions:
REMARK  status: ('A' for Active; 'I' for Inactive)
REMARK    1  A    between atoms: C_2  and  O_3 
REMARK    2  A    between atoms: O_3  and  C_4 
REMARK    3  A    between atoms: C_4  and  C_5 
REMARK    4  A    between atoms: C_6  and  O_7 
REMARK    5  A    between atoms: C_12  and  O_13 
REMARK    6  A    between atoms: C_17  and  C_18 
ROOT
HETATM    1  C   UNL     1     -44.193  58.964 -57.183  1.00  0.00     0.133 C 
HETATM    2  C   UNL     1     -45.642  58.911 -57.781  1.00  0.00     0.073 C 
HETATM    3  C   UNL     1     -45.873  60.080 -58.754  1.00  0.00     0.047 C 
HETATM    4  C   UNL     1     -45.982  57.568 -58.490  1.00  0.00     0.097 C 
HETATM    5  C   UNL     1     -44.809  57.081 -59.251  1.00  0.00     0.042 A 
HETATM    6  C   UNL     1     -43.496  57.479 -59.112  1.00  0.00     0.030 A 
HETATM    7  C   UNL     1     -42.816  56.670 -60.036  1.00  0.00     0.190 A 
HETATM    8  N   UNL     1     -43.610  55.848 -60.711  1.00  0.00    -0.149 NA
HETATM    9  N   UNL     1     -44.830  56.109 -60.210  1.00  0.00    -0.279 N 
HETATM   10  H   UNL     1     -45.620  55.580 -60.566  1.00  0.00     0.189 HD
HETATM   11  C   UNL     1     -43.041  58.494 -58.119  1.00  0.00     0.074 C 
ENDROOT
BRANCH  11  12
HETATM   12  C   UNL     1     -42.339  59.641 -58.840  1.00  0.00    -0.048 A 
HETATM   13  C   UNL     1     -42.431  59.902 -60.218  1.00  0.00     0.011 A 
HETATM   14  C   UNL     1     -41.755  60.983 -60.793  1.00  0.00     0.043 A 
HETATM   15  C   UNL     1     -40.985  61.816 -59.995  1.00  0.00     0.116 A 
HETATM   16  F   UNL     1     -40.337  62.850 -60.548  1.00  0.00    -0.206 F 
HETATM   17  C   UNL     1     -40.877  61.590 -58.631  1.00  0.00     0.043 A 
HETATM   18  C   UNL     1     -41.551  60.512 -58.056  1.00  0.00     0.011 A 
ENDBRANCH  11  12
BRANCH   1  19
HETATM   19  C   UNL     1     -44.113  58.121 -55.920  1.00  0.00     0.267 C 
HETATM   20  O   UNL     1     -44.944  58.124 -55.023  1.00  0.00    -0.265 OA
BRANCH  19  21
HETATM   21  O   UNL     1     -42.964  57.386 -55.925  1.00  0.00    -0.316 OA
BRANCH  21  22
HETATM   22  C   UNL     1     -43.011  56.095 -55.288  1.00  0.00     0.123 C 
HETATM   23  C   UNL     1     -41.863  56.038 -54.288  1.00  0.00     0.040 C 
HETATM   24  C   UNL     1     -42.857  55.032 -56.366  1.00  0.00     0.040 C 
ENDBRANCH  21  22
ENDBRANCH  19  21
ENDBRANCH   1  19
BRANCH   2  25
HETATM   25  O   UNL     1     -46.603  59.138 -56.730  1.00  0.00    -0.389 OA
HETATM   26  H   UNL     1     -47.439  59.429 -57.149  1.00  0.00     0.210 HD
ENDBRANCH   2  25
BRANCH   7  27
HETATM   27  O   UNL     1     -41.517  56.627 -60.337  1.00  0.00    -0.343 OA
HETATM   28  H   UNL     1     -41.021  56.255 -59.593  1.00  0.00     0.219 HD
ENDBRANCH   7  27
TORSDOF 6
ENDMDL
MODEL 10
REMARK VINA RESULT:      -6.9      3.118      4.464
REMARK  6 active torsions:
REMARK  status: ('A' for Active; 'I' for Inactive)
REMARK    1  A    between atoms: C_2  and  O_3 
REMARK    2  A    between atoms: O_3  and  C_4 
REMARK    3  A    between atoms: C_4  and  C_5 
REMARK    4  A    between atoms: C_6  and  O_7 
REMARK    5  A    between atoms: C_12  and  O_13 
REMARK    6  A    between atoms: C_17  and  C_18 
ROOT
HETATM    1  C   UNL     1     -42.756  58.093 -54.409  1.00  0.00     0.133 C 
HETATM    2  C   UNL     1     -43.970  57.548 -53.580  1.00  0.00     0.073 C 
HETATM    3  C   UNL     1     -45.157  57.218 -54.501  1.00  0.00     0.047 C 
HETATM    4  C   UNL     1     -43.629  56.307 -52.705  1.00  0.00     0.097 C 
HETATM    5  C   UNL     1     -42.722  55.398 -53.441  1.00  0.00     0.042 A 
HETATM    6  C   UNL     1     -41.962  55.692 -54.553  1.00  0.00     0.030 A 
HETATM    7  C   UNL     1     -41.269  54.495 -54.795  1.00  0.00     0.190 A 
HETATM    8  N   UNL     1     -41.564  53.525 -53.938  1.00  0.00    -0.149 NA
HETATM    9  N   UNL     1     -42.452  54.101 -53.109  1.00  0.00    -0.279 N 
HETATM   10  H   UNL     1     -42.820  53.549 -52.340  1.00  0.00     0.189 HD
HETATM   11  C   UNL     1     -41.929  57.036 -55.199  1.00  0.00     0.074 C 
ENDROOT
BRANCH  11  12
HETATM   12  C   UNL     1     -42.342  56.913 -56.663  1.00  0.00    -0.048 A 
HETATM   13  C   UNL     1     -42.984  55.797 -57.228  1.00  0.00     0.011 A 
HETATM   14  C   UNL     1     -43.332  55.774 -58.582  1.00  0.00     0.043 A 
HETATM   15  C   UNL     1     -43.045  56.870 -59.384  1.00  0.00     0.116 A 
HETATM   16  F   UNL     1     -43.378  56.846 -60.681  1.00  0.00    -0.206 F 
HETATM   17  C   UNL     1     -42.418  57.989 -58.858  1.00  0.00     0.043 A 
HETATM   18  C   UNL     1     -42.070  58.012 -57.506  1.00  0.00     0.011 A 
ENDBRANCH  11  12
BRANCH   1  19
HETATM   19  C   UNL     1     -41.785  58.830 -53.501  1.00  0.00     0.267 C 
HETATM   20  O   UNL     1     -40.937  59.625 -53.881  1.00  0.00    -0.265 OA
BRANCH  19  21
HETATM   21  O   UNL     1     -41.982  58.449 -52.207  1.00  0.00    -0.316 OA
BRANCH  21  22
HETATM   22  C   UNL     1     -40.819  58.391 -51.358  1.00  0.00     0.123 C 
HETATM   23  C   UNL     1     -40.876  57.074 -50.594  1.00  0.00     0.040 C 
HETATM   24  C   UNL     1     -40.869  59.582 -50.411  1.00  0.00     0.040 C 
ENDBRANCH  21  22
ENDBRANCH  19  21
ENDBRANCH   1  19
BRANCH   2  25
HETATM   25  O   UNL     1     -44.474  58.594 -52.725  1.00  0.00    -0.389 OA
HETATM   26  H   UNL     1     -43.778  58.805 -52.070  1.00  0.00     0.210 HD
ENDBRANCH   2  25
BRANCH   7  27
HETATM   27  O   UNL     1     -40.392  54.197 -55.756  1.00  0.00    -0.343 OA
HETATM   28  H   UNL     1     -40.458  53.256 -55.977  1.00  0.00     0.219 HD
ENDBRANCH   7  27
TORSDOF 6
ENDMDL
