MODEL 1
REMARK VINA RESULT:      -8.8      0.000      0.000
REMARK  9 active torsions:
REMARK  status: ('A' for Active; 'I' for Inactive)
REMARK    1  A    between atoms: C_2  and  O_3 
REMARK    2  A    between atoms: O_3  and  C_4 
REMARK    3  A    between atoms: C_7  and  C_8 
REMARK    4  A    between atoms: C_9  and  C_10 
REMARK       I    between atoms: C_10  and  N_11 
REMARK    5  A    between atoms: N_11  and  C_12 
REMARK    6  A    between atoms: C_22  and  S_23 
REMARK    7  A    between atoms: S_23  and  C_24 
REMARK    8  A    between atoms: C_24  and  C_25 
REMARK       I    between atoms: C_25  and  N_26 
REMARK    9  A    between atoms: N_26  and  C_27 
ROOT
HETATM    1  C   UNL     1     -44.383  58.770 -57.364  1.00  0.00     0.104 C 
HETATM    2  C   UNL     1     -44.319  57.653 -58.409  1.00  0.00     0.046 C 
HETATM    3  C   UNL     1     -43.711  56.481 -58.116  1.00  0.00     0.019 C 
HETATM    4  C   UNL     1     -43.394  55.385 -59.105  1.00  0.00     0.069 C 
HETATM    5  N   UNL     1     -43.323  56.225 -56.811  1.00  0.00    -0.353 N 
HETATM    6  C   UNL     1     -43.669  57.001 -55.714  1.00  0.00     0.087 C 
HETATM    7  C   UNL     1     -44.129  58.263 -55.943  1.00  0.00     0.055 C 
HETATM    8  C   UNL     1     -44.412  59.217 -54.794  1.00  0.00     0.019 C 
HETATM    9  N   UNL     1     -44.647  60.010 -53.842  1.00  0.00    -0.096 N 
HETATM   10  H   UNL     1     -42.960  55.287 -56.644  1.00  0.00     0.166 HD
ENDROOT
BRANCH   1  11
HETATM   11  C   UNL     1     -43.450  59.938 -57.691  1.00  0.00    -0.044 A 
HETATM   12  C   UNL     1     -43.986  61.209 -57.956  1.00  0.00     0.011 A 
HETATM   13  C   UNL     1     -43.152  62.294 -58.247  1.00  0.00     0.037 A 
HETATM   14  C   UNL     1     -41.768  62.128 -58.282  1.00  0.00     0.068 A 
HETATM   15  C   UNL     1     -41.228  60.870 -58.014  1.00  0.00     0.037 A 
HETATM   16  C   UNL     1     -42.055  59.786 -57.711  1.00  0.00     0.011 A 
BRANCH  14  17
HETATM   17  O   UNL     1     -40.847  63.097 -58.566  1.00  0.00    -0.352 OA
BRANCH  17  18
HETATM   18  C   UNL     1     -39.772  62.734 -59.431  1.00  0.00     0.171 C 
HETATM   19  C   UNL     1     -40.269  62.837 -60.862  1.00  0.00     0.034 C 
ENDBRANCH  17  18
ENDBRANCH  14  17
ENDBRANCH   1  11
BRANCH   6  20
HETATM   20  S   UNL     1     -43.617  56.424 -54.047  1.00  0.00    -0.102 SA
BRANCH  20  21
HETATM   21  C   UNL     1     -41.936  55.859 -53.744  1.00  0.00     0.184 C 
BRANCH  21  22
HETATM   22  C   UNL     1     -41.852  54.417 -53.286  1.00  0.00     0.231 C 
HETATM   23  N   UNL     1     -40.598  53.845 -53.375  1.00  0.00    -0.326 N 
HETATM   24  H   UNL     1     -39.819  54.488 -53.441  1.00  0.00     0.169 HD
HETATM   25  O   UNL     1     -42.861  53.873 -52.835  1.00  0.00    -0.272 OA
BRANCH  23  26
HETATM   26  C   UNL     1     -40.293  52.474 -53.188  1.00  0.00     0.040 A 
HETATM   27  C   UNL     1     -39.905  52.013 -51.913  1.00  0.00    -0.035 A 
HETATM   28  C   UNL     1     -39.881  52.907 -50.704  1.00  0.00     0.050 C 
HETATM   29  C   UNL     1     -39.540  50.663 -51.752  1.00  0.00     0.009 A 
HETATM   30  C   UNL     1     -39.561  49.780 -52.829  1.00  0.00     0.001 A 
HETATM   31  C   UNL     1     -39.951  50.233 -54.083  1.00  0.00     0.002 A 
HETATM   32  C   UNL     1     -40.315  51.571 -54.260  1.00  0.00     0.030 A 
ENDBRANCH  23  26
ENDBRANCH  21  22
ENDBRANCH  20  21
ENDBRANCH   6  20
BRANCH   2  33
HETATM   33  C   UNL     1     -44.996  57.933 -59.716  1.00  0.00     0.255 C 
HETATM   34  N   UNL     1     -46.346  57.638 -59.693  1.00  0.00    -0.323 N 
HETATM   35  H   UNL     1     -46.725  57.285 -58.824  1.00  0.00     0.169 HD
HETATM   36  O   UNL     1     -44.376  58.447 -60.634  1.00  0.00    -0.268 OA
BRANCH  34  37
HETATM   37  C   UNL     1     -47.264  57.708 -60.762  1.00  0.00     0.035 A 
HETATM   38  C   UNL     1     -47.728  56.599 -61.469  1.00  0.00     0.029 A 
HETATM   39  C   UNL     1     -48.654  56.759 -62.505  1.00  0.00     0.002 A 
HETATM   40  C   UNL     1     -49.132  58.026 -62.834  1.00  0.00     0.000 A 
HETATM   41  C   UNL     1     -48.679  59.138 -62.131  1.00  0.00     0.002 A 
HETATM   42  C   UNL     1     -47.744  58.981 -61.105  1.00  0.00     0.029 A 
ENDBRANCH  34  37
ENDBRANCH   2  33
TORSDOF 9
ENDMDL
MODEL 2
REMARK VINA RESULT:      -8.6      1.777      5.119
REMARK  9 active torsions:
REMARK  status: ('A' for Active; 'I' for Inactive)
REMARK    1  A    between atoms: C_2  and  O_3 
REMARK    2  A    between atoms: O_3  and  C_4 
REMARK    3  A    between atoms: C_7  and  C_8 
REMARK    4  A    between atoms: C_9  and  C_10 
REMARK       I    between atoms: C_10  and  N_11 
REMARK    5  A    between atoms: N_11  and  C_12 
REMARK    6  A    between atoms: C_22  and  S_23 
REMARK    7  A    between atoms: S_23  and  C_24 
REMARK    8  A    between atoms: C_24  and  C_25 
REMARK       I    between atoms: C_25  and  N_26 
REMARK    9  A    between atoms: N_26  and  C_27 
ROOT
HETATM    1  C   UNL     1     -43.011  57.718 -57.070  1.00  0.00     0.104 C 
HETATM    2  C   UNL     1     -42.936  59.239 -56.916  1.00  0.00     0.046 C 
HETATM    3  C   UNL     1     -43.535  59.847 -55.867  1.00  0.00     0.019 C 
HETATM    4  C   UNL     1     -43.719  61.337 -55.703  1.00  0.00     0.069 C 
HETATM    5  N   UNL     1     -44.044  59.075 -54.835  1.00  0.00    -0.353 N 
HETATM    6  C   UNL     1     -43.833  57.712 -54.686  1.00  0.00     0.087 C 
HETATM    7  C   UNL     1     -43.390  57.011 -55.766  1.00  0.00     0.055 C 
HETATM    8  C   UNL     1     -43.252  55.498 -55.720  1.00  0.00     0.019 C 
HETATM    9  N   UNL     1     -43.137  54.243 -55.683  1.00  0.00    -0.096 N 
HETATM   10  H   UNL     1     -44.393  59.601 -54.034  1.00  0.00     0.166 HD
ENDROOT
BRANCH   1  11
HETATM   11  C   UNL     1     -43.940  57.283 -58.205  1.00  0.00    -0.044 A 
HETATM   12  C   UNL     1     -43.449  56.476 -59.243  1.00  0.00     0.011 A 
HETATM   13  C   UNL     1     -44.283  56.058 -60.286  1.00  0.00     0.037 A 
HETATM   14  C   UNL     1     -45.622  56.444 -60.312  1.00  0.00     0.068 A 
HETATM   15  C   UNL     1     -46.120  57.242 -59.281  1.00  0.00     0.037 A 
HETATM   16  C   UNL     1     -45.294  57.651 -58.231  1.00  0.00     0.011 A 
BRANCH  14  17
HETATM   17  O   UNL     1     -46.536  56.118 -61.276  1.00  0.00    -0.352 OA
BRANCH  17  18
HETATM   18  C   UNL     1     -47.767  56.839 -61.269  1.00  0.00     0.171 C 
HETATM   19  C   UNL     1     -48.416  56.667 -62.630  1.00  0.00     0.034 C 
ENDBRANCH  17  18
ENDBRANCH  14  17
ENDBRANCH   1  11
BRANCH   6  20
HETATM   20  S   UNL     1     -44.034  56.849 -53.160  1.00  0.00    -0.102 SA
BRANCH  20  21
HETATM   21  C   UNL     1     -42.382  56.463 -52.558  1.00  0.00     0.184 C 
BRANCH  21  22
HETATM   22  C   UNL     1     -42.137  54.981 -52.361  1.00  0.00     0.231 C 
HETATM   23  N   UNL     1     -40.901  54.529 -52.781  1.00  0.00    -0.326 N 
HETATM   24  H   UNL     1     -40.184  55.235 -52.894  1.00  0.00     0.169 HD
HETATM   25  O   UNL     1     -43.004  54.299 -51.814  1.00  0.00    -0.272 OA
BRANCH  23  26
HETATM   26  C   UNL     1     -40.499  53.175 -52.877  1.00  0.00     0.040 A 
HETATM   27  C   UNL     1     -39.960  52.525 -51.747  1.00  0.00    -0.035 A 
HETATM   28  C   UNL     1     -39.869  53.189 -50.401  1.00  0.00     0.050 C 
HETATM   29  C   UNL     1     -39.501  51.200 -51.870  1.00  0.00     0.009 A 
HETATM   30  C   UNL     1     -39.577  50.523 -53.085  1.00  0.00     0.001 A 
HETATM   31  C   UNL     1     -40.114  51.162 -54.195  1.00  0.00     0.002 A 
HETATM   32  C   UNL     1     -40.572  52.477 -54.091  1.00  0.00     0.030 A 
ENDBRANCH  23  26
ENDBRANCH  21  22
ENDBRANCH  20  21
ENDBRANCH   6  20
BRANCH   2  33
HETATM   33  C   UNL     1     -42.141  59.968 -57.955  1.00  0.00     0.255 C 
HETATM   34  N   UNL     1     -42.891  60.297 -59.069  1.00  0.00    -0.323 N 
HETATM   35  H   UNL     1     -43.866  60.029 -59.063  1.00  0.00     0.169 HD
HETATM   36  O   UNL     1     -40.980  60.280 -57.738  1.00  0.00    -0.268 OA
BRANCH  34  37
HETATM   37  C   UNL     1     -42.448  60.913 -60.258  1.00  0.00     0.035 A 
HETATM   38  C   UNL     1     -41.434  61.869 -60.314  1.00  0.00     0.029 A 
HETATM   39  C   UNL     1     -41.044  62.416 -61.541  1.00  0.00     0.002 A 
HETATM   40  C   UNL     1     -41.657  62.002 -62.723  1.00  0.00     0.000 A 
HETATM   41  C   UNL     1     -42.667  61.045 -62.678  1.00  0.00     0.002 A 
HETATM   42  C   UNL     1     -43.065  60.509 -61.451  1.00  0.00     0.029 A 
ENDBRANCH  34  37
ENDBRANCH   2  33
TORSDOF 9
ENDMDL
MODEL 3
REMARK VINA RESULT:      -8.3      3.031      5.970
REMARK  9 active torsions:
REMARK  status: ('A' for Active; 'I' for Inactive)
REMARK    1  A    between atoms: C_2  and  O_3 
REMARK    2  A    between atoms: O_3  and  C_4 
REMARK    3  A    between atoms: C_7  and  C_8 
REMARK    4  A    between atoms: C_9  and  C_10 
REMARK       I    between atoms: C_10  and  N_11 
REMARK    5  A    between atoms: N_11  and  C_12 
REMARK    6  A    between atoms: C_22  and  S_23 
REMARK    7  A    between atoms: S_23  and  C_24 
REMARK    8  A    between atoms: C_24  and  C_25 
REMARK       I    between atoms: C_25  and  N_26 
REMARK    9  A    between atoms: N_26  and  C_27 
ROOT
HETATM    1  C   UNL     1     -42.171  58.005 -55.307  1.00  0.00     0.104 C 
HETATM    2  C   UNL     1     -43.461  58.270 -56.087  1.00  0.00     0.046 C 
HETATM    3  C   UNL     1     -44.503  58.892 -55.488  1.00  0.00     0.019 C 
HETATM    4  C   UNL     1     -45.892  59.030 -56.064  1.00  0.00     0.069 C 
HETATM    5  N   UNL     1     -44.325  59.461 -54.237  1.00  0.00    -0.353 N 
HETATM    6  C   UNL     1     -43.102  59.612 -53.601  1.00  0.00     0.087 C 
HETATM    7  C   UNL     1     -42.049  58.877 -54.055  1.00  0.00     0.055 C 
HETATM    8  C   UNL     1     -40.710  58.893 -53.336  1.00  0.00     0.019 C 
HETATM    9  N   UNL     1     -39.598  58.906 -52.741  1.00  0.00    -0.096 N 
HETATM   10  H   UNL     1     -45.121  59.996 -53.889  1.00  0.00     0.166 HD
ENDROOT
BRANCH   1  11
HETATM   11  C   UNL     1     -41.987  56.529 -54.952  1.00  0.00    -0.044 A 
HETATM   12  C   UNL     1     -43.108  55.689 -54.846  1.00  0.00     0.011 A 
HETATM   13  C   UNL     1     -42.964  54.333 -54.531  1.00  0.00     0.037 A 
HETATM   14  C   UNL     1     -41.697  53.793 -54.315  1.00  0.00     0.068 A 
HETATM   15  C   UNL     1     -40.578  54.619 -54.424  1.00  0.00     0.037 A 
HETATM   16  C   UNL     1     -40.716  55.971 -54.749  1.00  0.00     0.011 A 
BRANCH  14  17
HETATM   17  O   UNL     1     -41.420  52.494 -53.989  1.00  0.00    -0.352 OA
BRANCH  17  18
HETATM   18  C   UNL     1     -40.051  52.094 -54.036  1.00  0.00     0.171 C 
HETATM   19  C   UNL     1     -40.010  50.607 -54.339  1.00  0.00     0.034 C 
ENDBRANCH  17  18
ENDBRANCH  14  17
ENDBRANCH   1  11
BRANCH   6  20
HETATM   20  S   UNL     1     -42.812  60.756 -52.288  1.00  0.00    -0.102 SA
BRANCH  20  21
HETATM   21  C   UNL     1     -43.953  60.327 -50.964  1.00  0.00     0.184 C 
BRANCH  21  22
HETATM   22  C   UNL     1     -44.157  58.835 -50.796  1.00  0.00     0.231 C 
HETATM   23  N   UNL     1     -42.997  58.090 -50.712  1.00  0.00    -0.326 N 
HETATM   24  H   UNL     1     -42.156  58.600 -50.471  1.00  0.00     0.169 HD
HETATM   25  O   UNL     1     -45.303  58.394 -50.701  1.00  0.00    -0.272 OA
BRANCH  23  26
HETATM   26  C   UNL     1     -42.912  56.676 -50.739  1.00  0.00     0.040 A 
HETATM   27  C   UNL     1     -41.662  56.048 -50.557  1.00  0.00    -0.035 A 
HETATM   28  C   UNL     1     -40.409  56.820 -50.248  1.00  0.00     0.050 C 
HETATM   29  C   UNL     1     -41.577  54.646 -50.651  1.00  0.00     0.009 A 
HETATM   30  C   UNL     1     -42.706  53.874 -50.915  1.00  0.00     0.001 A 
HETATM   31  C   UNL     1     -43.938  54.493 -51.087  1.00  0.00     0.002 A 
HETATM   32  C   UNL     1     -44.039  55.883 -50.998  1.00  0.00     0.030 A 
ENDBRANCH  23  26
ENDBRANCH  21  22
ENDBRANCH  20  21
ENDBRANCH   6  20
BRANCH   2  33
HETATM   33  C   UNL     1     -43.464  57.842 -57.522  1.00  0.00     0.255 C 
HETATM   34  N   UNL     1     -44.528  57.015 -57.831  1.00  0.00    -0.323 N 
HETATM   35  H   UNL     1     -45.177  56.801 -57.085  1.00  0.00     0.169 HD
HETATM   36  O   UNL     1     -42.632  58.282 -58.300  1.00  0.00    -0.268 OA
BRANCH  34  37
HETATM   37  C   UNL     1     -44.795  56.371 -59.058  1.00  0.00     0.035 A 
HETATM   38  C   UNL     1     -43.991  55.374 -59.610  1.00  0.00     0.029 A 
HETATM   39  C   UNL     1     -44.341  54.775 -60.824  1.00  0.00     0.002 A 
HETATM   40  C   UNL     1     -45.503  55.161 -61.491  1.00  0.00     0.000 A 
HETATM   41  C   UNL     1     -46.314  56.152 -60.947  1.00  0.00     0.002 A 
HETATM   42  C   UNL     1     -45.958  56.760 -59.740  1.00  0.00     0.029 A 
ENDBRANCH  34  37
ENDBRANCH   2  33
TORSDOF 9
ENDMDL
MODEL 4
REMARK VINA RESULT:      -8.3      1.533      2.284
REMARK  9 active torsions:
REMARK  status: ('A' for Active; 'I' for Inactive)
REMARK    1  A    between atoms: C_2  and  O_3 
REMARK    2  A    between atoms: O_3  and  C_4 
REMARK    3  A    between atoms: C_7  and  C_8 
REMARK    4  A    between atoms: C_9  and  C_10 
REMARK       I    between atoms: C_10  and  N_11 
REMARK    5  A    between atoms: N_11  and  C_12 
REMARK    6  A    between atoms: C_22  and  S_23 
REMARK    7  A    between atoms: S_23  and  C_24 
REMARK    8  A    between atoms: C_24  and  C_25 
REMARK       I    between atoms: C_25  and  N_26 
REMARK    9  A    between atoms: N_26  and  C_27 
ROOT
HETATM    1  C   UNL     1     -43.553  58.942 -55.559  1.00  0.00     0.104 C 
HETATM    2  C   UNL     1     -43.940  57.708 -56.379  1.00  0.00     0.046 C 
HETATM    3  C   UNL     1     -43.170  56.596 -56.340  1.00  0.00     0.019 C 
HETATM    4  C   UNL     1     -43.314  55.397 -57.246  1.00  0.00     0.069 C 
HETATM    5  N   UNL     1     -42.148  56.511 -55.409  1.00  0.00    -0.353 N 
HETATM    6  C   UNL     1     -41.947  57.405 -54.368  1.00  0.00     0.087 C 
HETATM    7  C   UNL     1     -42.564  58.617 -54.436  1.00  0.00     0.055 C 
HETATM    8  C   UNL     1     -42.298  59.696 -53.400  1.00  0.00     0.019 C 
HETATM    9  N   UNL     1     -42.078  60.592 -52.540  1.00  0.00    -0.096 N 
HETATM   10  H   UNL     1     -41.673  55.609 -55.371  1.00  0.00     0.166 HD
ENDROOT
BRANCH   1  11
HETATM   11  C   UNL     1     -43.023  60.085 -56.426  1.00  0.00    -0.044 A 
HETATM   12  C   UNL     1     -41.871  59.898 -57.205  1.00  0.00     0.011 A 
HETATM   13  C   UNL     1     -41.373  60.926 -58.013  1.00  0.00     0.037 A 
HETATM   14  C   UNL     1     -42.017  62.162 -58.053  1.00  0.00     0.068 A 
HETATM   15  C   UNL     1     -43.166  62.355 -57.286  1.00  0.00     0.037 A 
HETATM   16  C   UNL     1     -43.674  61.328 -56.487  1.00  0.00     0.011 A 
BRANCH  14  17
HETATM   17  O   UNL     1     -41.629  63.250 -58.785  1.00  0.00    -0.352 OA
BRANCH  17  18
HETATM   18  C   UNL     1     -40.228  63.418 -58.999  1.00  0.00     0.171 C 
HETATM   19  C   UNL     1     -39.972  63.344 -60.493  1.00  0.00     0.034 C 
ENDBRANCH  17  18
ENDBRANCH  14  17
ENDBRANCH   1  11
BRANCH   6  20
HETATM   20  S   UNL     1     -40.998  57.036 -52.926  1.00  0.00    -0.102 SA
BRANCH  20  21
HETATM   21  C   UNL     1     -42.063  56.082 -51.833  1.00  0.00     0.184 C 
BRANCH  21  22
HETATM   22  C   UNL     1     -41.923  54.582 -52.003  1.00  0.00     0.231 C 
HETATM   23  N   UNL     1     -40.624  54.121 -52.090  1.00  0.00    -0.326 N 
HETATM   24  H   UNL     1     -39.905  54.744 -51.743  1.00  0.00     0.169 HD
HETATM   25  O   UNL     1     -42.936  53.883 -52.007  1.00  0.00    -0.272 OA
BRANCH  23  26
HETATM   26  C   UNL     1     -40.230  52.805 -52.433  1.00  0.00     0.040 A 
HETATM   27  C   UNL     1     -40.217  52.409 -53.786  1.00  0.00    -0.035 A 
HETATM   28  C   UNL     1     -40.526  53.362 -54.909  1.00  0.00     0.050 C 
HETATM   29  C   UNL     1     -39.888  51.080 -54.112  1.00  0.00     0.009 A 
HETATM   30  C   UNL     1     -39.571  50.155 -53.119  1.00  0.00     0.001 A 
HETATM   31  C   UNL     1     -39.577  50.547 -51.787  1.00  0.00     0.002 A 
HETATM   32  C   UNL     1     -39.903  51.862 -51.447  1.00  0.00     0.030 A 
ENDBRANCH  23  26
ENDBRANCH  21  22
ENDBRANCH  20  21
ENDBRANCH   6  20
BRANCH   2  33
HETATM   33  C   UNL     1     -45.212  57.810 -57.163  1.00  0.00     0.255 C 
HETATM   34  N   UNL     1     -45.046  57.484 -58.496  1.00  0.00    -0.323 N 
HETATM   35  H   UNL     1     -44.117  57.211 -58.791  1.00  0.00     0.169 HD
HETATM   36  O   UNL     1     -46.263  58.077 -56.602  1.00  0.00    -0.268 OA
BRANCH  34  37
HETATM   37  C   UNL     1     -46.006  57.545 -59.527  1.00  0.00     0.035 A 
HETATM   38  C   UNL     1     -46.539  58.732 -60.032  1.00  0.00     0.029 A 
HETATM   39  C   UNL     1     -47.475  58.701 -61.070  1.00  0.00     0.002 A 
HETATM   40  C   UNL     1     -47.878  57.485 -61.619  1.00  0.00     0.000 A 
HETATM   41  C   UNL     1     -47.350  56.296 -61.126  1.00  0.00     0.002 A 
HETATM   42  C   UNL     1     -46.425  56.326 -60.080  1.00  0.00     0.029 A 
ENDBRANCH  34  37
ENDBRANCH   2  33
TORSDOF 9
ENDMDL
MODEL 5
REMARK VINA RESULT:      -8.1      4.571      8.871
REMARK  9 active torsions:
REMARK  status: ('A' for Active; 'I' for Inactive)
REMARK    1  A    between atoms: C_2  and  O_3 
REMARK    2  A    between atoms: O_3  and  C_4 
REMARK    3  A    between atoms: C_7  and  C_8 
REMARK    4  A    between atoms: C_9  and  C_10 
REMARK       I    between atoms: C_10  and  N_11 
REMARK    5  A    between atoms: N_11  and  C_12 
REMARK    6  A    between atoms: C_22  and  S_23 
REMARK    7  A    between atoms: S_23  and  C_24 
REMARK    8  A    between atoms: C_24  and  C_25 
REMARK       I    between atoms: C_25  and  N_26 
REMARK    9  A    between atoms: N_26  and  C_27 
ROOT
HETATM    1  C   UNL     1     -42.416  57.269 -54.201  1.00  0.00     0.104 C 
HETATM    2  C   UNL     1     -43.405  57.633 -55.311  1.00  0.00     0.046 C 
HETATM    3  C   UNL     1     -44.730  57.700 -55.047  1.00  0.00     0.019 C 
HETATM    4  C   UNL     1     -45.825  57.840 -56.078  1.00  0.00     0.069 C 
HETATM    5  N   UNL     1     -45.165  57.633 -53.733  1.00  0.00    -0.353 N 
HETATM    6  C   UNL     1     -44.338  57.684 -52.621  1.00  0.00     0.087 C 
HETATM    7  C   UNL     1     -43.008  57.453 -52.801  1.00  0.00     0.055 C 
HETATM    8  C   UNL     1     -42.056  57.370 -51.619  1.00  0.00     0.019 C 
HETATM    9  N   UNL     1     -41.266  57.301 -50.639  1.00  0.00    -0.096 N 
HETATM   10  H   UNL     1     -46.164  57.787 -53.601  1.00  0.00     0.166 HD
ENDROOT
BRANCH   1  11
HETATM   11  C   UNL     1     -41.842  55.861 -54.359  1.00  0.00    -0.044 A 
HETATM   12  C   UNL     1     -40.502  55.689 -54.744  1.00  0.00     0.011 A 
HETATM   13  C   UNL     1     -39.952  54.410 -54.886  1.00  0.00     0.037 A 
HETATM   14  C   UNL     1     -40.733  53.280 -54.649  1.00  0.00     0.068 A 
HETATM   15  C   UNL     1     -42.063  53.441 -54.261  1.00  0.00     0.037 A 
HETATM   16  C   UNL     1     -42.614  54.716 -54.107  1.00  0.00     0.011 A 
BRANCH  14  17
HETATM   17  O   UNL     1     -40.324  51.980 -54.766  1.00  0.00    -0.352 OA
BRANCH  17  18
HETATM   18  C   UNL     1     -39.838  51.347 -53.583  1.00  0.00     0.171 C 
HETATM   19  C   UNL     1     -39.766  49.855 -53.849  1.00  0.00     0.034 C 
ENDBRANCH  17  18
ENDBRANCH  14  17
ENDBRANCH   1  11
BRANCH   6  20
HETATM   20  S   UNL     1     -44.897  58.104 -51.001  1.00  0.00    -0.102 SA
BRANCH  20  21
HETATM   21  C   UNL     1     -45.356  59.844 -51.043  1.00  0.00     0.184 C 
BRANCH  21  22
HETATM   22  C   UNL     1     -44.767  60.657 -49.907  1.00  0.00     0.231 C 
HETATM   23  N   UNL     1     -45.686  61.150 -49.002  1.00  0.00    -0.326 N 
HETATM   24  H   UNL     1     -46.592  60.698 -48.995  1.00  0.00     0.169 HD
HETATM   25  O   UNL     1     -43.545  60.786 -49.835  1.00  0.00    -0.272 OA
BRANCH  23  26
HETATM   26  C   UNL     1     -45.418  62.081 -47.969  1.00  0.00     0.040 A 
HETATM   27  C   UNL     1     -45.562  61.689 -46.622  1.00  0.00    -0.035 A 
HETATM   28  C   UNL     1     -45.909  60.281 -46.223  1.00  0.00     0.050 C 
HETATM   29  C   UNL     1     -45.358  62.640 -45.603  1.00  0.00     0.009 A 
HETATM   30  C   UNL     1     -45.014  63.955 -45.907  1.00  0.00     0.001 A 
HETATM   31  C   UNL     1     -44.866  64.338 -47.234  1.00  0.00     0.002 A 
HETATM   32  C   UNL     1     -45.066  63.407 -48.256  1.00  0.00     0.030 A 
ENDBRANCH  23  26
ENDBRANCH  21  22
ENDBRANCH  20  21
ENDBRANCH   6  20
BRANCH   2  33
HETATM   33  C   UNL     1     -42.809  57.940 -56.651  1.00  0.00     0.255 C 
HETATM   34  N   UNL     1     -42.690  59.297 -56.885  1.00  0.00    -0.323 N 
HETATM   35  H   UNL     1     -42.998  59.920 -56.150  1.00  0.00     0.169 HD
HETATM   36  O   UNL     1     -42.415  57.037 -57.372  1.00  0.00    -0.268 OA
BRANCH  34  37
HETATM   37  C   UNL     1     -42.245  59.935 -58.062  1.00  0.00     0.035 A 
HETATM   38  C   UNL     1     -42.581  59.523 -59.351  1.00  0.00     0.029 A 
HETATM   39  C   UNL     1     -42.109  60.226 -60.464  1.00  0.00     0.002 A 
HETATM   40  C   UNL     1     -41.308  61.354 -60.297  1.00  0.00     0.000 A 
HETATM   41  C   UNL     1     -40.970  61.776 -59.014  1.00  0.00     0.002 A 
HETATM   42  C   UNL     1     -41.430  61.066 -57.903  1.00  0.00     0.029 A 
ENDBRANCH  34  37
ENDBRANCH   2  33
TORSDOF 9
ENDMDL
MODEL 6
REMARK VINA RESULT:      -8.1      3.112      9.424
REMARK  9 active torsions:
REMARK  status: ('A' for Active; 'I' for Inactive)
REMARK    1  A    between atoms: C_2  and  O_3 
REMARK    2  A    between atoms: O_3  and  C_4 
REMARK    3  A    between atoms: C_7  and  C_8 
REMARK    4  A    between atoms: C_9  and  C_10 
REMARK       I    between atoms: C_10  and  N_11 
REMARK    5  A    between atoms: N_11  and  C_12 
REMARK    6  A    between atoms: C_22  and  S_23 
REMARK    7  A    between atoms: S_23  and  C_24 
REMARK    8  A    between atoms: C_24  and  C_25 
REMARK       I    between atoms: C_25  and  N_26 
REMARK    9  A    between atoms: N_26  and  C_27 
ROOT
HETATM    1  C   UNL     1     -42.102  57.383 -55.892  1.00  0.00     0.104 C 
HETATM    2  C   UNL     1     -42.188  55.915 -55.466  1.00  0.00     0.046 C 
HETATM    3  C   UNL     1     -42.919  55.038 -56.190  1.00  0.00     0.019 C 
HETATM    4  C   UNL     1     -43.258  53.626 -55.777  1.00  0.00     0.069 C 
HETATM    5  N   UNL     1     -43.425  55.428 -57.419  1.00  0.00    -0.353 N 
HETATM    6  C   UNL     1     -43.094  56.604 -58.076  1.00  0.00     0.087 C 
HETATM    7  C   UNL     1     -42.506  57.598 -57.352  1.00  0.00     0.055 C 
HETATM    8  C   UNL     1     -42.226  58.959 -57.968  1.00  0.00     0.019 C 
HETATM    9  N   UNL     1     -41.992  60.088 -58.477  1.00  0.00    -0.096 N 
HETATM   10  H   UNL     1     -43.882  54.689 -57.952  1.00  0.00     0.166 HD
ENDROOT
BRANCH   1  11
HETATM   11  C   UNL     1     -42.899  58.312 -54.974  1.00  0.00    -0.044 A 
HETATM   12  C   UNL     1     -42.236  59.311 -54.242  1.00  0.00     0.011 A 
HETATM   13  C   UNL     1     -42.945  60.178 -53.403  1.00  0.00     0.037 A 
HETATM   14  C   UNL     1     -44.328  60.060 -53.279  1.00  0.00     0.068 A 
HETATM   15  C   UNL     1     -44.995  59.075 -54.007  1.00  0.00     0.037 A 
HETATM   16  C   UNL     1     -44.294  58.214 -54.854  1.00  0.00     0.011 A 
BRANCH  14  17
HETATM   17  O   UNL     1     -45.134  60.830 -52.487  1.00  0.00    -0.352 OA
BRANCH  17  18
HETATM   18  C   UNL     1     -46.102  60.147 -51.691  1.00  0.00     0.171 C 
HETATM   19  C   UNL     1     -45.411  59.664 -50.430  1.00  0.00     0.034 C 
ENDBRANCH  17  18
ENDBRANCH  14  17
ENDBRANCH   1  11
BRANCH   6  20
HETATM   20  S   UNL     1     -43.322  56.861 -59.807  1.00  0.00    -0.102 SA
BRANCH  20  21
HETATM   21  C   UNL     1     -44.766  55.901 -60.289  1.00  0.00     0.184 C 
BRANCH  21  22
HETATM   22  C   UNL     1     -46.067  56.674 -60.204  1.00  0.00     0.231 C 
HETATM   23  N   UNL     1     -45.929  58.042 -60.078  1.00  0.00    -0.326 N 
HETATM   24  H   UNL     1     -45.032  58.426 -60.349  1.00  0.00     0.169 HD
HETATM   25  O   UNL     1     -47.133  56.063 -60.296  1.00  0.00    -0.272 OA
BRANCH  23  26
HETATM   26  C   UNL     1     -46.969  58.961 -59.797  1.00  0.00     0.040 A 
HETATM   27  C   UNL     1     -47.406  59.136 -58.468  1.00  0.00    -0.035 A 
HETATM   28  C   UNL     1     -46.749  58.444 -57.304  1.00  0.00     0.050 C 
HETATM   29  C   UNL     1     -48.484  60.002 -58.206  1.00  0.00     0.009 A 
HETATM   30  C   UNL     1     -49.121  60.688 -59.239  1.00  0.00     0.001 A 
HETATM   31  C   UNL     1     -48.686  60.520 -60.547  1.00  0.00     0.002 A 
HETATM   32  C   UNL     1     -47.618  59.663 -60.823  1.00  0.00     0.030 A 
ENDBRANCH  23  26
ENDBRANCH  21  22
ENDBRANCH  20  21
ENDBRANCH   6  20
BRANCH   2  33
HETATM   33  C   UNL     1     -41.392  55.533 -54.255  1.00  0.00     0.255 C 
HETATM   34  N   UNL     1     -42.165  55.451 -53.112  1.00  0.00    -0.323 N 
HETATM   35  H   UNL     1     -43.154  55.643 -53.210  1.00  0.00     0.169 HD
HETATM   36  O   UNL     1     -40.207  55.255 -54.357  1.00  0.00    -0.268 OA
BRANCH  34  37
HETATM   37  C   UNL     1     -41.734  55.194 -51.794  1.00  0.00     0.035 A 
HETATM   38  C   UNL     1     -41.694  56.152 -50.782  1.00  0.00     0.029 A 
HETATM   39  C   UNL     1     -41.270  55.805 -49.495  1.00  0.00     0.002 A 
HETATM   40  C   UNL     1     -40.892  54.494 -49.208  1.00  0.00     0.000 A 
HETATM   41  C   UNL     1     -40.932  53.530 -50.210  1.00  0.00     0.002 A 
HETATM   42  C   UNL     1     -41.344  53.879 -51.498  1.00  0.00     0.029 A 
ENDBRANCH  34  37
ENDBRANCH   2  33
TORSDOF 9
ENDMDL
MODEL 7
REMARK VINA RESULT:      -8.0      3.186      9.276
REMARK  9 active torsions:
REMARK  status: ('A' for Active; 'I' for Inactive)
REMARK    1  A    between atoms: C_2  and  O_3 
REMARK    2  A    between atoms: O_3  and  C_4 
REMARK    3  A    between atoms: C_7  and  C_8 
REMARK    4  A    between atoms: C_9  and  C_10 
REMARK       I    between atoms: C_10  and  N_11 
REMARK    5  A    between atoms: N_11  and  C_12 
REMARK    6  A    between atoms: C_22  and  S_23 
REMARK    7  A    between atoms: S_23  and  C_24 
REMARK    8  A    between atoms: C_24  and  C_25 
REMARK       I    between atoms: C_25  and  N_26 
REMARK    9  A    between atoms: N_26  and  C_27 
ROOT
HETATM    1  C   UNL     1     -41.897  57.353 -55.727  1.00  0.00     0.104 C 
HETATM    2  C   UNL     1     -42.071  55.857 -55.451  1.00  0.00     0.046 C 
HETATM    3  C   UNL     1     -43.002  55.144 -56.124  1.00  0.00     0.019 C 
HETATM    4  C   UNL     1     -43.421  53.728 -55.809  1.00  0.00     0.069 C 
HETATM    5  N   UNL     1     -43.657  55.727 -57.198  1.00  0.00    -0.353 N 
HETATM    6  C   UNL     1     -43.311  56.940 -57.774  1.00  0.00     0.087 C 
HETATM    7  C   UNL     1     -42.508  57.780 -57.064  1.00  0.00     0.055 C 
HETATM    8  C   UNL     1     -42.185  59.176 -57.571  1.00  0.00     0.019 C 
HETATM    9  N   UNL     1     -41.916  60.334 -57.992  1.00  0.00    -0.096 N 
HETATM   10  H   UNL     1     -44.273  55.102 -57.717  1.00  0.00     0.166 HD
ENDROOT
BRANCH   1  11
HETATM   11  C   UNL     1     -42.426  58.230 -54.592  1.00  0.00    -0.044 A 
HETATM   12  C   UNL     1     -43.685  57.964 -54.029  1.00  0.00     0.011 A 
HETATM   13  C   UNL     1     -44.186  58.747 -52.983  1.00  0.00     0.037 A 
HETATM   14  C   UNL     1     -43.438  59.812 -52.483  1.00  0.00     0.068 A 
HETATM   15  C   UNL     1     -42.184  60.079 -53.032  1.00  0.00     0.037 A 
HETATM   16  C   UNL     1     -41.674  59.293 -54.068  1.00  0.00     0.011 A 
BRANCH  14  17
HETATM   17  O   UNL     1     -43.815  60.659 -51.478  1.00  0.00    -0.352 OA
BRANCH  17  18
HETATM   18  C   UNL     1     -42.778  61.178 -50.647  1.00  0.00     0.171 C 
HETATM   19  C   UNL     1     -43.062  62.651 -50.412  1.00  0.00     0.034 C 
ENDBRANCH  17  18
ENDBRANCH  14  17
ENDBRANCH   1  11
BRANCH   6  20
HETATM   20  S   UNL     1     -43.790  57.426 -59.402  1.00  0.00    -0.102 SA
BRANCH  20  21
HETATM   21  C   UNL     1     -45.587  57.339 -59.463  1.00  0.00     0.184 C 
BRANCH  21  22
HETATM   22  C   UNL     1     -46.273  58.174 -58.401  1.00  0.00     0.231 C 
HETATM   23  N   UNL     1     -45.804  59.466 -58.277  1.00  0.00    -0.326 N 
HETATM   24  H   UNL     1     -45.284  59.829 -59.067  1.00  0.00     0.169 HD
HETATM   25  O   UNL     1     -47.206  57.683 -57.765  1.00  0.00    -0.272 OA
BRANCH  23  26
HETATM   26  C   UNL     1     -46.144  60.380 -57.250  1.00  0.00     0.040 A 
HETATM   27  C   UNL     1     -47.223  61.269 -57.435  1.00  0.00    -0.035 A 
HETATM   28  C   UNL     1     -48.098  61.233 -58.658  1.00  0.00     0.050 C 
HETATM   29  C   UNL     1     -47.512  62.218 -56.437  1.00  0.00     0.009 A 
HETATM   30  C   UNL     1     -46.752  62.288 -55.271  1.00  0.00     0.001 A 
HETATM   31  C   UNL     1     -45.693  61.408 -55.087  1.00  0.00     0.002 A 
HETATM   32  C   UNL     1     -45.393  60.461 -56.069  1.00  0.00     0.030 A 
ENDBRANCH  23  26
ENDBRANCH  21  22
ENDBRANCH  20  21
ENDBRANCH   6  20
BRANCH   2  33
HETATM   33  C   UNL     1     -41.135  55.260 -54.445  1.00  0.00     0.255 C 
HETATM   34  N   UNL     1     -41.734  55.048 -53.217  1.00  0.00    -0.323 N 
HETATM   35  H   UNL     1     -42.710  55.301 -53.131  1.00  0.00     0.169 HD
HETATM   36  O   UNL     1     -40.001  54.941 -54.770  1.00  0.00    -0.268 OA
BRANCH  34  37
HETATM   37  C   UNL     1     -41.132  54.576 -52.032  1.00  0.00     0.035 A 
HETATM   38  C   UNL     1     -40.619  53.289 -51.874  1.00  0.00     0.029 A 
HETATM   39  C   UNL     1     -40.021  52.909 -50.668  1.00  0.00     0.002 A 
HETATM   40  C   UNL     1     -39.922  53.817 -49.615  1.00  0.00     0.000 A 
HETATM   41  C   UNL     1     -40.427  55.105 -49.764  1.00  0.00     0.002 A 
HETATM   42  C   UNL     1     -41.036  55.480 -50.964  1.00  0.00     0.029 A 
ENDBRANCH  34  37
ENDBRANCH   2  33
TORSDOF 9
ENDMDL
MODEL 8
REMARK VINA RESULT:      -8.0      4.867      9.015
REMARK  9 active torsions:
REMARK  status: ('A' for Active; 'I' for Inactive)
REMARK    1  A    between atoms: C_2  and  O_3 
REMARK    2  A    between atoms: O_3  and  C_4 
REMARK    3  A    between atoms: C_7  and  C_8 
REMARK    4  A    between atoms: C_9  and  C_10 
REMARK       I    between atoms: C_10  and  N_11 
REMARK    5  A    between atoms: N_11  and  C_12 
REMARK    6  A    between atoms: C_22  and  S_23 
REMARK    7  A    between atoms: S_23  and  C_24 
REMARK    8  A    between atoms: C_24  and  C_25 
REMARK       I    between atoms: C_25  and  N_26 
REMARK    9  A    between atoms: N_26  and  C_27 
ROOT
HETATM    1  C   UNL     1     -41.649  58.425 -53.842  1.00  0.00     0.104 C 
HETATM    2  C   UNL     1     -42.908  58.821 -54.617  1.00  0.00     0.046 C 
HETATM    3  C   UNL     1     -43.968  59.355 -53.968  1.00  0.00     0.019 C 
HETATM    4  C   UNL     1     -45.334  59.595 -54.565  1.00  0.00     0.069 C 
HETATM    5  N   UNL     1     -43.834  59.723 -52.639  1.00  0.00    -0.353 N 
HETATM    6  C   UNL     1     -42.634  59.762 -51.944  1.00  0.00     0.087 C 
HETATM    7  C   UNL     1     -41.569  59.092 -52.467  1.00  0.00     0.055 C 
HETATM    8  C   UNL     1     -40.258  58.983 -51.707  1.00  0.00     0.019 C 
HETATM    9  N   UNL     1     -39.169  58.892 -51.077  1.00  0.00    -0.096 N 
HETATM   10  H   UNL     1     -44.639  60.207 -52.242  1.00  0.00     0.166 HD
ENDROOT
BRANCH   1  11
HETATM   11  C   UNL     1     -41.487  56.909 -53.712  1.00  0.00    -0.044 A 
HETATM   12  C   UNL     1     -40.598  56.225 -54.556  1.00  0.00     0.011 A 
HETATM   13  C   UNL     1     -40.427  54.840 -54.449  1.00  0.00     0.037 A 
HETATM   14  C   UNL     1     -41.143  54.115 -53.498  1.00  0.00     0.068 A 
HETATM   15  C   UNL     1     -42.025  54.788 -52.652  1.00  0.00     0.037 A 
HETATM   16  C   UNL     1     -42.191  56.172 -52.747  1.00  0.00     0.011 A 
BRANCH  14  17
HETATM   17  O   UNL     1     -41.080  52.763 -53.300  1.00  0.00    -0.352 OA
BRANCH  17  18
HETATM   18  C   UNL     1     -39.840  52.123 -53.599  1.00  0.00     0.171 C 
HETATM   19  C   UNL     1     -40.150  50.795 -54.265  1.00  0.00     0.034 C 
ENDBRANCH  17  18
ENDBRANCH  14  17
ENDBRANCH   1  11
BRANCH   6  20
HETATM   20  S   UNL     1     -42.387  60.687 -50.461  1.00  0.00    -0.102 SA
BRANCH  20  21
HETATM   21  C   UNL     1     -43.036  62.338 -50.764  1.00  0.00     0.184 C 
BRANCH  21  22
HETATM   22  C   UNL     1     -44.344  62.619 -50.051  1.00  0.00     0.231 C 
HETATM   23  N   UNL     1     -44.219  63.185 -48.798  1.00  0.00    -0.326 N 
HETATM   24  H   UNL     1     -43.331  63.628 -48.596  1.00  0.00     0.169 HD
HETATM   25  O   UNL     1     -45.404  62.376 -50.629  1.00  0.00    -0.272 OA
BRANCH  23  26
HETATM   26  C   UNL     1     -45.264  63.373 -47.862  1.00  0.00     0.040 A 
HETATM   27  C   UNL     1     -45.564  62.351 -46.936  1.00  0.00    -0.035 A 
HETATM   28  C   UNL     1     -44.756  61.086 -46.840  1.00  0.00     0.050 C 
HETATM   29  C   UNL     1     -46.647  62.519 -46.053  1.00  0.00     0.009 A 
HETATM   30  C   UNL     1     -47.421  63.678 -46.078  1.00  0.00     0.001 A 
HETATM   31  C   UNL     1     -47.121  64.685 -46.985  1.00  0.00     0.002 A 
HETATM   32  C   UNL     1     -46.050  64.534 -47.869  1.00  0.00     0.030 A 
ENDBRANCH  23  26
ENDBRANCH  21  22
ENDBRANCH  20  21
ENDBRANCH   6  20
BRANCH   2  33
HETATM   33  C   UNL     1     -42.860  58.617 -56.101  1.00  0.00     0.255 C 
HETATM   34  N   UNL     1     -43.656  57.569 -56.523  1.00  0.00    -0.323 N 
HETATM   35  H   UNL     1     -44.177  57.071 -55.812  1.00  0.00     0.169 HD
HETATM   36  O   UNL     1     -42.230  59.387 -56.809  1.00  0.00    -0.268 OA
BRANCH  34  37
HETATM   37  C   UNL     1     -43.787  57.055 -57.830  1.00  0.00     0.035 A 
HETATM   38  C   UNL     1     -43.113  55.929 -58.300  1.00  0.00     0.029 A 
HETATM   39  C   UNL     1     -43.317  55.477 -59.608  1.00  0.00     0.002 A 
HETATM   40  C   UNL     1     -44.205  56.141 -60.452  1.00  0.00     0.000 A 
HETATM   41  C   UNL     1     -44.886  57.264 -59.991  1.00  0.00     0.002 A 
HETATM   42  C   UNL     1     -44.673  57.723 -58.689  1.00  0.00     0.029 A 
ENDBRANCH  34  37
ENDBRANCH   2  33
TORSDOF 9
ENDMDL
MODEL 9
REMARK VINA RESULT:      -7.9      3.837      9.354
REMARK  9 active torsions:
REMARK  status: ('A' for Active; 'I' for Inactive)
REMARK    1  A    between atoms: C_2  and  O_3 
REMARK    2  A    between atoms: O_3  and  C_4 
REMARK    3  A    between atoms: C_7  and  C_8 
REMARK    4  A    between atoms: C_9  and  C_10 
REMARK       I    between atoms: C_10  and  N_11 
REMARK    5  A    between atoms: N_11  and  C_12 
REMARK    6  A    between atoms: C_22  and  S_23 
REMARK    7  A    between atoms: S_23  and  C_24 
REMARK    8  A    between atoms: C_24  and  C_25 
REMARK       I    between atoms: C_25  and  N_26 
REMARK    9  A    between atoms: N_26  and  C_27 
ROOT
HETATM    1  C   UNL     1     -42.522  60.538 -53.085  1.00  0.00     0.104 C 
HETATM    2  C   UNL     1     -42.318  59.147 -53.691  1.00  0.00     0.046 C 
HETATM    3  C   UNL     1     -42.900  58.825 -54.868  1.00  0.00     0.019 C 
HETATM    4  C   UNL     1     -42.957  57.442 -55.471  1.00  0.00     0.069 C 
HETATM    5  N   UNL     1     -43.514  59.817 -55.615  1.00  0.00    -0.353 N 
HETATM    6  C   UNL     1     -43.431  61.176 -55.350  1.00  0.00     0.087 C 
HETATM    7  C   UNL     1     -43.011  61.562 -54.113  1.00  0.00     0.055 C 
HETATM    8  C   UNL     1     -43.010  63.025 -53.703  1.00  0.00     0.019 C 
HETATM    9  N   UNL     1     -43.009  64.239 -53.362  1.00  0.00    -0.096 N 
HETATM   10  H   UNL     1     -43.846  59.523 -56.534  1.00  0.00     0.166 HD
ENDROOT
BRANCH   1  11
HETATM   11  C   UNL     1     -43.443  60.522 -51.864  1.00  0.00    -0.044 A 
HETATM   12  C   UNL     1     -44.712  59.927 -51.951  1.00  0.00     0.011 A 
HETATM   13  C   UNL     1     -45.568  59.893 -50.844  1.00  0.00     0.037 A 
HETATM   14  C   UNL     1     -45.171  60.455 -49.632  1.00  0.00     0.068 A 
HETATM   15  C   UNL     1     -43.910  61.044 -49.535  1.00  0.00     0.037 A 
HETATM   16  C   UNL     1     -43.047  61.070 -50.634  1.00  0.00     0.011 A 
BRANCH  14  17
HETATM   17  O   UNL     1     -45.913  60.502 -48.484  1.00  0.00    -0.352 OA
BRANCH  17  18
HETATM   18  C   UNL     1     -45.443  61.358 -47.444  1.00  0.00     0.171 C 
HETATM   19  C   UNL     1     -45.512  60.587 -46.138  1.00  0.00     0.034 C 
ENDBRANCH  17  18
ENDBRANCH  14  17
ENDBRANCH   1  11
BRANCH   6  20
HETATM   20  S   UNL     1     -43.765  62.432 -56.543  1.00  0.00    -0.102 SA
BRANCH  20  21
HETATM   21  C   UNL     1     -42.546  62.244 -57.853  1.00  0.00     0.184 C 
BRANCH  21  22
HETATM   22  C   UNL     1     -42.200  60.800 -58.159  1.00  0.00     0.231 C 
HETATM   23  N   UNL     1     -43.091  60.147 -58.988  1.00  0.00    -0.326 N 
HETATM   24  H   UNL     1     -43.699  60.737 -59.542  1.00  0.00     0.169 HD
HETATM   25  O   UNL     1     -41.158  60.325 -57.705  1.00  0.00    -0.272 OA
BRANCH  23  26
HETATM   26  C   UNL     1     -43.097  58.760 -59.274  1.00  0.00     0.040 A 
HETATM   27  C   UNL     1     -44.211  57.976 -58.908  1.00  0.00    -0.035 A 
HETATM   28  C   UNL     1     -45.449  58.570 -58.295  1.00  0.00     0.050 C 
HETATM   29  C   UNL     1     -44.181  56.588 -59.137  1.00  0.00     0.009 A 
HETATM   30  C   UNL     1     -43.071  55.980 -59.721  1.00  0.00     0.001 A 
HETATM   31  C   UNL     1     -41.977  56.754 -60.087  1.00  0.00     0.002 A 
HETATM   32  C   UNL     1     -41.991  58.133 -59.865  1.00  0.00     0.030 A 
ENDBRANCH  23  26
ENDBRANCH  21  22
ENDBRANCH  20  21
ENDBRANCH   6  20
BRANCH   2  33
HETATM   33  C   UNL     1     -41.423  58.220 -52.927  1.00  0.00     0.255 C 
HETATM   34  N   UNL     1     -42.107  57.160 -52.361  1.00  0.00    -0.323 N 
HETATM   35  H   UNL     1     -43.105  57.117 -52.524  1.00  0.00     0.169 HD
HETATM   36  O   UNL     1     -40.214  58.398 -52.917  1.00  0.00    -0.268 OA
BRANCH  34  37
HETATM   37  C   UNL     1     -41.595  56.151 -51.520  1.00  0.00     0.035 A 
HETATM   38  C   UNL     1     -41.514  56.254 -50.132  1.00  0.00     0.029 A 
HETATM   39  C   UNL     1     -41.008  55.195 -49.372  1.00  0.00     0.002 A 
HETATM   40  C   UNL     1     -40.589  54.020 -49.993  1.00  0.00     0.000 A 
HETATM   41  C   UNL     1     -40.669  53.905 -51.377  1.00  0.00     0.002 A 
HETATM   42  C   UNL     1     -41.162  54.968 -52.138  1.00  0.00     0.029 A 
ENDBRANCH  34  37
ENDBRANCH   2  33
TORSDOF 9
ENDMDL
MODEL 10
REMARK VINA RESULT:      -7.9      3.172      9.825
REMARK  9 active torsions:
REMARK  status: ('A' for Active; 'I' for Inactive)
REMARK    1  A    between atoms: C_2  and  O_3 
REMARK    2  A    between atoms: O_3  and  C_4 
REMARK    3  A    between atoms: C_7  and  C_8 
REMARK    4  A    between atoms: C_9  and  C_10 
REMARK       I    between atoms: C_10  and  N_11 
REMARK    5  A    between atoms: N_11  and  C_12 
REMARK    6  A    between atoms: C_22  and  S_23 
REMARK    7  A    between atoms: S_23  and  C_24 
REMARK    8  A    between atoms: C_24  and  C_25 
REMARK       I    between atoms: C_25  and  N_26 
REMARK    9  A    between atoms: N_26  and  C_27 
ROOT
HETATM    1  C   UNL     1     -42.877  58.159 -54.253  1.00  0.00     0.104 C 
HETATM    2  C   UNL     1     -42.694  56.641 -54.310  1.00  0.00     0.046 C 
HETATM    3  C   UNL     1     -43.419  55.899 -55.178  1.00  0.00     0.019 C 
HETATM    4  C   UNL     1     -43.493  54.391 -55.197  1.00  0.00     0.069 C 
HETATM    5  N   UNL     1     -44.179  56.537 -56.145  1.00  0.00    -0.353 N 
HETATM    6  C   UNL     1     -44.125  57.894 -56.429  1.00  0.00     0.087 C 
HETATM    7  C   UNL     1     -43.555  58.718 -55.507  1.00  0.00     0.055 C 
HETATM    8  C   UNL     1     -43.567  60.227 -55.687  1.00  0.00     0.019 C 
HETATM    9  N   UNL     1     -43.576  61.479 -55.835  1.00  0.00    -0.096 N 
HETATM   10  H   UNL     1     -44.621  55.918 -56.824  1.00  0.00     0.166 HD
ENDROOT
BRANCH   1  11
HETATM   11  C   UNL     1     -43.615  58.619 -52.995  1.00  0.00    -0.044 A 
HETATM   12  C   UNL     1     -43.026  59.567 -52.144  1.00  0.00     0.011 A 
HETATM   13  C   UNL     1     -43.686  60.010 -50.992  1.00  0.00     0.037 A 
HETATM   14  C   UNL     1     -44.947  59.510 -50.670  1.00  0.00     0.068 A 
HETATM   15  C   UNL     1     -45.543  58.571 -51.513  1.00  0.00     0.037 A 
HETATM   16  C   UNL     1     -44.892  58.135 -52.670  1.00  0.00     0.011 A 
BRANCH  14  17
HETATM   17  O   UNL     1     -45.690  59.846 -49.572  1.00  0.00    -0.352 OA
BRANCH  17  18
HETATM   18  C   UNL     1     -45.411  61.105 -48.963  1.00  0.00     0.171 C 
HETATM   19  C   UNL     1     -46.340  62.137 -49.576  1.00  0.00     0.034 C 
ENDBRANCH  17  18
ENDBRANCH  14  17
ENDBRANCH   1  11
BRANCH   6  20
HETATM   20  S   UNL     1     -44.684  58.603 -57.945  1.00  0.00    -0.102 SA
BRANCH  20  21
HETATM   21  C   UNL     1     -43.657  57.912 -59.253  1.00  0.00     0.184 C 
BRANCH  21  22
HETATM   22  C   UNL     1     -42.442  58.755 -59.582  1.00  0.00     0.231 C 
HETATM   23  N   UNL     1     -42.538  60.086 -59.229  1.00  0.00    -0.326 N 
HETATM   24  H   UNL     1     -43.245  60.315 -58.539  1.00  0.00     0.169 HD
HETATM   25  O   UNL     1     -41.456  58.213 -60.084  1.00  0.00    -0.272 OA
BRANCH  23  26
HETATM   26  C   UNL     1     -41.629  61.111 -59.588  1.00  0.00     0.040 A 
HETATM   27  C   UNL     1     -41.565  61.549 -60.927  1.00  0.00    -0.035 A 
HETATM   28  C   UNL     1     -42.492  61.031 -61.992  1.00  0.00     0.050 C 
HETATM   29  C   UNL     1     -40.612  62.521 -61.288  1.00  0.00     0.009 A 
HETATM   30  C   UNL     1     -39.738  63.055 -60.343  1.00  0.00     0.001 A 
HETATM   31  C   UNL     1     -39.807  62.628 -59.023  1.00  0.00     0.002 A 
HETATM   32  C   UNL     1     -40.746  61.663 -58.650  1.00  0.00     0.030 A 
ENDBRANCH  23  26
ENDBRANCH  21  22
ENDBRANCH  20  21
ENDBRANCH   6  20
BRANCH   2  33
HETATM   33  C   UNL     1     -41.656  56.067 -53.394  1.00  0.00     0.255 C 
HETATM   34  N   UNL     1     -42.205  55.421 -52.302  1.00  0.00    -0.323 N 
HETATM   35  H   UNL     1     -43.214  55.396 -52.242  1.00  0.00     0.169 HD
HETATM   36  O   UNL     1     -40.472  56.129 -53.687  1.00  0.00    -0.268 OA
BRANCH  34  37
HETATM   37  C   UNL     1     -41.526  54.839 -51.211  1.00  0.00     0.035 A 
HETATM   38  C   UNL     1     -40.729  53.699 -51.303  1.00  0.00     0.029 A 
HETATM   39  C   UNL     1     -40.076  53.199 -50.172  1.00  0.00     0.002 A 
HETATM   40  C   UNL     1     -40.206  53.842 -48.942  1.00  0.00     0.000 A 
HETATM   41  C   UNL     1     -40.996  54.983 -48.840  1.00  0.00     0.002 A 
HETATM   42  C   UNL     1     -41.659  55.474 -49.967  1.00  0.00     0.029 A 
ENDBRANCH  34  37
ENDBRANCH   2  33
TORSDOF 9
ENDMDL
