MODEL 1
REMARK VINA RESULT:      -8.1      0.000      0.000
REMARK  3 active torsions:
REMARK  status: ('A' for Active; 'I' for Inactive)
REMARK    1  A    between atoms: C_3  and  N_4 
REMARK       I    between atoms: N_4  and  C_5 
REMARK    2  A    between atoms: C_5  and  C_6 
REMARK    3  A    between atoms: C_6  and  C_7 
ROOT
HETATM    1  C   UNL     1     -42.414  54.273 -51.540  1.00  0.00     0.286 C 
HETATM    2  N   UNL     1     -41.473  55.303 -52.161  1.00  0.00    -0.056 N 
HETATM    3  H   UNL     1     -41.052  55.810 -51.353  1.00  0.00     0.278 HD
HETATM    4  H   UNL     1     -40.691  54.842 -52.640  1.00  0.00     0.278 HD
HETATM    5  C   UNL     1     -42.142  56.319 -53.044  1.00  0.00     0.209 C 
HETATM    6  C   UNL     1     -43.300  56.989 -52.266  1.00  0.00     0.115 C 
HETATM    7  N   UNL     1     -44.189  56.019 -51.628  1.00  0.00    -0.353 N 
HETATM    8  C   UNL     1     -43.734  54.880 -51.013  1.00  0.00     0.249 C 
HETATM    9  O   UNL     1     -44.412  54.338 -50.148  1.00  0.00    -0.271 OA
HETATM   10  C   UNL     1     -42.594  55.664 -54.351  1.00  0.00     0.035 C 
HETATM   11  C   UNL     1     -43.365  56.654 -55.222  1.00  0.00     0.002 C 
HETATM   12  C   UNL     1     -44.542  57.267 -54.468  1.00  0.00     0.002 C 
HETATM   13  C   UNL     1     -44.091  57.939 -53.170  1.00  0.00     0.027 C 
HETATM   14  H   UNL     1     -45.039  56.373 -51.192  1.00  0.00     0.163 HD
ENDROOT
BRANCH   1  15
HETATM   15  C   UNL     1     -41.704  53.480 -50.438  1.00  0.00     0.146 C 
BRANCH  15  16
HETATM   16  C   UNL     1     -40.217  53.741 -50.500  1.00  0.00     0.224 C 
HETATM   17  N   UNL     1     -39.365  52.943 -51.192  1.00  0.00    -0.325 N 
HETATM   18  H   UNL     1     -38.391  53.108 -50.951  1.00  0.00     0.169 HD
HETATM   19  O   UNL     1     -39.770  54.697 -49.850  1.00  0.00    -0.273 OA
BRANCH  17  20
HETATM   20  C   UNL     1     -39.591  51.897 -52.112  1.00  0.00     0.073 A 
HETATM   21  C   UNL     1     -39.968  52.274 -53.408  1.00  0.00     0.033 A 
HETATM   22  C   UNL     1     -40.197  51.311 -54.396  1.00  0.00     0.002 A 
HETATM   23  C   UNL     1     -40.082  49.956 -54.093  1.00  0.00     0.003 A 
HETATM   24  C   UNL     1     -39.754  49.565 -52.799  1.00  0.00     0.044 A 
HETATM   25  C   UNL     1     -39.520  50.530 -51.819  1.00  0.00     0.143 A 
HETATM   26  F   UNL     1     -39.300  50.099 -50.569  1.00  0.00    -0.204 F 
ENDBRANCH  17  20
ENDBRANCH  15  16
ENDBRANCH   1  15
TORSDOF 3
ENDMDL
MODEL 2
REMARK VINA RESULT:      -7.9      1.757      2.321
REMARK  3 active torsions:
REMARK  status: ('A' for Active; 'I' for Inactive)
REMARK    1  A    between atoms: C_3  and  N_4 
REMARK       I    between atoms: N_4  and  C_5 
REMARK    2  A    between atoms: C_5  and  C_6 
REMARK    3  A    between atoms: C_6  and  C_7 
ROOT
HETATM    1  C   UNL     1     -42.154  55.406 -51.667  1.00  0.00     0.286 C 
HETATM    2  N   UNL     1     -42.527  56.472 -50.640  1.00  0.00    -0.056 N 
HETATM    3  H   UNL     1     -43.268  56.035 -50.049  1.00  0.00     0.278 HD
HETATM    4  H   UNL     1     -41.741  56.661 -50.007  1.00  0.00     0.278 HD
HETATM    5  C   UNL     1     -43.088  57.739 -51.220  1.00  0.00     0.209 C 
HETATM    6  C   UNL     1     -44.275  57.393 -52.152  1.00  0.00     0.115 C 
HETATM    7  N   UNL     1     -43.949  56.344 -53.116  1.00  0.00    -0.353 N 
HETATM    8  C   UNL     1     -43.195  55.242 -52.795  1.00  0.00     0.249 C 
HETATM    9  O   UNL     1     -43.302  54.214 -53.455  1.00  0.00    -0.271 OA
HETATM   10  C   UNL     1     -41.983  58.532 -51.922  1.00  0.00     0.035 C 
HETATM   11  C   UNL     1     -42.549  59.775 -52.606  1.00  0.00     0.002 C 
HETATM   12  C   UNL     1     -43.679  59.420 -53.568  1.00  0.00     0.002 C 
HETATM   13  C   UNL     1     -44.794  58.645 -52.866  1.00  0.00     0.027 C 
HETATM   14  H   UNL     1     -44.638  56.136 -53.839  1.00  0.00     0.163 HD
ENDROOT
BRANCH   1  15
HETATM   15  C   UNL     1     -41.880  54.062 -50.982  1.00  0.00     0.146 C 
BRANCH  15  16
HETATM   16  C   UNL     1     -40.425  53.977 -50.589  1.00  0.00     0.224 C 
HETATM   17  N   UNL     1     -39.597  53.009 -51.060  1.00  0.00    -0.325 N 
HETATM   18  H   UNL     1     -38.729  52.946 -50.534  1.00  0.00     0.169 HD
HETATM   19  O   UNL     1     -39.998  54.801 -49.768  1.00  0.00    -0.273 OA
BRANCH  17  20
HETATM   20  C   UNL     1     -39.757  52.048 -52.081  1.00  0.00     0.073 A 
HETATM   21  C   UNL     1     -39.528  50.712 -51.723  1.00  0.00     0.033 A 
HETATM   22  C   UNL     1     -39.679  49.684 -52.659  1.00  0.00     0.002 A 
HETATM   23  C   UNL     1     -40.030  49.980 -53.974  1.00  0.00     0.003 A 
HETATM   24  C   UNL     1     -40.215  51.305 -54.355  1.00  0.00     0.044 A 
HETATM   25  C   UNL     1     -40.070  52.326 -53.416  1.00  0.00     0.143 A 
HETATM   26  F   UNL     1     -40.166  53.588 -53.856  1.00  0.00    -0.204 F 
ENDBRANCH  17  20
ENDBRANCH  15  16
ENDBRANCH   1  15
TORSDOF 3
ENDMDL
MODEL 3
REMARK VINA RESULT:      -7.8      2.417      3.141
REMARK  3 active torsions:
REMARK  status: ('A' for Active; 'I' for Inactive)
REMARK    1  A    between atoms: C_3  and  N_4 
REMARK       I    between atoms: N_4  and  C_5 
REMARK    2  A    between atoms: C_5  and  C_6 
REMARK    3  A    between atoms: C_6  and  C_7 
ROOT
HETATM    1  C   UNL     1     -42.595  55.596 -52.959  1.00  0.00     0.286 C 
HETATM    2  N   UNL     1     -41.302  56.315 -53.339  1.00  0.00    -0.056 N 
HETATM    3  H   UNL     1     -40.537  55.651 -53.090  1.00  0.00     0.278 HD
HETATM    4  H   UNL     1     -41.240  56.444 -54.356  1.00  0.00     0.278 HD
HETATM    5  C   UNL     1     -41.054  57.601 -52.602  1.00  0.00     0.209 C 
HETATM    6  C   UNL     1     -41.146  57.342 -51.079  1.00  0.00     0.115 C 
HETATM    7  N   UNL     1     -42.358  56.617 -50.700  1.00  0.00    -0.353 N 
HETATM    8  C   UNL     1     -42.871  55.581 -51.440  1.00  0.00     0.249 C 
HETATM    9  O   UNL     1     -43.590  54.744 -50.906  1.00  0.00    -0.271 OA
HETATM   10  C   UNL     1     -42.021  58.682 -53.088  1.00  0.00     0.035 C 
HETATM   11  C   UNL     1     -41.855  59.969 -52.284  1.00  0.00     0.002 C 
HETATM   12  C   UNL     1     -42.005  59.718 -50.786  1.00  0.00     0.002 C 
HETATM   13  C   UNL     1     -41.027  58.651 -50.292  1.00  0.00     0.027 C 
HETATM   14  H   UNL     1     -42.550  56.507 -49.705  1.00  0.00     0.163 HD
ENDROOT
BRANCH   1  15
HETATM   15  C   UNL     1     -42.614  54.173 -53.528  1.00  0.00     0.146 C 
BRANCH  15  16
HETATM   16  C   UNL     1     -41.641  54.071 -54.678  1.00  0.00     0.224 C 
HETATM   17  N   UNL     1     -40.572  53.234 -54.657  1.00  0.00    -0.325 N 
HETATM   18  H   UNL     1     -39.896  53.445 -55.386  1.00  0.00     0.169 HD
HETATM   19  O   UNL     1     -41.813  54.821 -55.651  1.00  0.00    -0.273 OA
BRANCH  17  20
HETATM   20  C   UNL     1     -40.207  52.194 -53.776  1.00  0.00     0.073 A 
HETATM   21  C   UNL     1     -40.214  50.896 -54.303  1.00  0.00     0.033 A 
HETATM   22  C   UNL     1     -39.851  49.800 -53.514  1.00  0.00     0.002 A 
HETATM   23  C   UNL     1     -39.504  49.984 -52.177  1.00  0.00     0.003 A 
HETATM   24  C   UNL     1     -39.537  51.262 -51.627  1.00  0.00     0.044 A 
HETATM   25  C   UNL     1     -39.894  52.352 -52.421  1.00  0.00     0.143 A 
HETATM   26  F   UNL     1     -40.001  53.545 -51.819  1.00  0.00    -0.204 F 
ENDBRANCH  17  20
ENDBRANCH  15  16
ENDBRANCH   1  15
TORSDOF 3
ENDMDL
MODEL 4
REMARK VINA RESULT:      -7.5      2.443      3.212
REMARK  3 active torsions:
REMARK  status: ('A' for Active; 'I' for Inactive)
REMARK    1  A    between atoms: C_3  and  N_4 
REMARK       I    between atoms: N_4  and  C_5 
REMARK    2  A    between atoms: C_5  and  C_6 
REMARK    3  A    between atoms: C_6  and  C_7 
ROOT
HETATM    1  C   UNL     1     -42.092  55.141 -53.274  1.00  0.00     0.286 C 
HETATM    2  N   UNL     1     -42.143  55.185 -51.748  1.00  0.00    -0.056 N 
HETATM    3  H   UNL     1     -42.893  54.511 -51.480  1.00  0.00     0.278 HD
HETATM    4  H   UNL     1     -41.276  54.814 -51.343  1.00  0.00     0.278 HD
HETATM    5  C   UNL     1     -42.497  56.524 -51.166  1.00  0.00     0.209 C 
HETATM    6  C   UNL     1     -43.816  57.025 -51.802  1.00  0.00     0.115 C 
HETATM    7  N   UNL     1     -43.803  56.952 -53.263  1.00  0.00    -0.353 N 
HETATM    8  C   UNL     1     -43.254  55.900 -53.953  1.00  0.00     0.249 C 
HETATM    9  O   UNL     1     -43.626  55.656 -55.095  1.00  0.00    -0.271 OA
HETATM   10  C   UNL     1     -41.333  57.501 -51.344  1.00  0.00     0.035 C 
HETATM   11  C   UNL     1     -41.707  58.897 -50.849  1.00  0.00     0.002 C 
HETATM   12  C   UNL     1     -42.976  59.410 -51.525  1.00  0.00     0.002 C 
HETATM   13  C   UNL     1     -44.146  58.445 -51.333  1.00  0.00     0.027 C 
HETATM   14  H   UNL     1     -44.587  57.368 -53.764  1.00  0.00     0.163 HD
ENDROOT
BRANCH   1  15
HETATM   15  C   UNL     1     -42.023  53.695 -53.775  1.00  0.00     0.146 C 
BRANCH  15  16
HETATM   16  C   UNL     1     -40.761  53.493 -54.579  1.00  0.00     0.224 C 
HETATM   17  N   UNL     1     -39.796  52.611 -54.214  1.00  0.00    -0.325 N 
HETATM   18  H   UNL     1     -38.923  52.755 -54.714  1.00  0.00     0.169 HD
HETATM   19  O   UNL     1     -40.594  54.204 -55.581  1.00  0.00    -0.273 OA
BRANCH  17  20
HETATM   20  C   UNL     1     -39.769  51.598 -53.231  1.00  0.00     0.073 A 
HETATM   21  C   UNL     1     -39.771  52.023 -51.895  1.00  0.00     0.033 A 
HETATM   22  C   UNL     1     -39.764  51.095 -50.849  1.00  0.00     0.002 A 
HETATM   23  C   UNL     1     -39.724  49.730 -51.124  1.00  0.00     0.003 A 
HETATM   24  C   UNL     1     -39.675  49.294 -52.444  1.00  0.00     0.044 A 
HETATM   25  C   UNL     1     -39.689  50.224 -53.484  1.00  0.00     0.143 A 
HETATM   26  F   UNL     1     -39.546  49.756 -54.732  1.00  0.00    -0.204 F 
ENDBRANCH  17  20
ENDBRANCH  15  16
ENDBRANCH   1  15
TORSDOF 3
ENDMDL
MODEL 5
REMARK VINA RESULT:      -7.3     13.731     15.328
REMARK  3 active torsions:
REMARK  status: ('A' for Active; 'I' for Inactive)
REMARK    1  A    between atoms: C_3  and  N_4 
REMARK       I    between atoms: N_4  and  C_5 
REMARK    2  A    between atoms: C_5  and  C_6 
REMARK    3  A    between atoms: C_6  and  C_7 
ROOT
HETATM    1  C   UNL     1     -36.237  40.721 -54.759  1.00  0.00     0.286 C 
HETATM    2  N   UNL     1     -37.261  41.775 -55.172  1.00  0.00    -0.056 N 
HETATM    3  H   UNL     1     -38.101  41.586 -54.583  1.00  0.00     0.278 HD
HETATM    4  H   UNL     1     -36.944  42.716 -54.911  1.00  0.00     0.278 HD
HETATM    5  C   UNL     1     -37.685  41.714 -56.613  1.00  0.00     0.209 C 
HETATM    6  C   UNL     1     -38.166  40.280 -56.943  1.00  0.00     0.115 C 
HETATM    7  N   UNL     1     -37.216  39.253 -56.517  1.00  0.00    -0.353 N 
HETATM    8  C   UNL     1     -36.531  39.316 -55.329  1.00  0.00     0.249 C 
HETATM    9  O   UNL     1     -36.103  38.290 -54.813  1.00  0.00    -0.271 OA
HETATM   10  C   UNL     1     -36.547  42.191 -57.518  1.00  0.00     0.035 C 
HETATM   11  C   UNL     1     -36.919  42.043 -58.991  1.00  0.00     0.002 C 
HETATM   12  C   UNL     1     -37.335  40.613 -59.324  1.00  0.00     0.002 C 
HETATM   13  C   UNL     1     -38.485  40.139 -58.434  1.00  0.00     0.027 C 
HETATM   14  H   UNL     1     -37.403  38.291 -56.798  1.00  0.00     0.163 HD
ENDROOT
BRANCH   1  15
HETATM   15  C   UNL     1     -36.095  40.669 -53.234  1.00  0.00     0.146 C 
BRANCH  15  16
HETATM   16  C   UNL     1     -35.384  41.908 -52.745  1.00  0.00     0.224 C 
HETATM   17  N   UNL     1     -34.439  41.872 -51.770  1.00  0.00    -0.325 N 
HETATM   18  H   UNL     1     -34.228  42.792 -51.395  1.00  0.00     0.169 HD
HETATM   19  O   UNL     1     -35.722  42.998 -53.229  1.00  0.00    -0.273 OA
BRANCH  17  20
HETATM   20  C   UNL     1     -33.768  40.797 -51.149  1.00  0.00     0.073 A 
HETATM   21  C   UNL     1     -34.508  40.052 -50.220  1.00  0.00     0.033 A 
HETATM   22  C   UNL     1     -33.937  38.956 -49.565  1.00  0.00     0.002 A 
HETATM   23  C   UNL     1     -32.610  38.608 -49.807  1.00  0.00     0.003 A 
HETATM   24  C   UNL     1     -31.850  39.366 -50.692  1.00  0.00     0.044 A 
HETATM   25  C   UNL     1     -32.426  40.455 -51.347  1.00  0.00     0.143 A 
HETATM   26  F   UNL     1     -31.626  41.206 -52.116  1.00  0.00    -0.204 F 
ENDBRANCH  17  20
ENDBRANCH  15  16
ENDBRANCH   1  15
TORSDOF 3
ENDMDL
MODEL 6
REMARK VINA RESULT:      -7.2      3.532      6.811
REMARK  3 active torsions:
REMARK  status: ('A' for Active; 'I' for Inactive)
REMARK    1  A    between atoms: C_3  and  N_4 
REMARK       I    between atoms: N_4  and  C_5 
REMARK    2  A    between atoms: C_5  and  C_6 
REMARK    3  A    between atoms: C_6  and  C_7 
ROOT
HETATM    1  C   UNL     1     -41.697  56.407 -54.327  1.00  0.00     0.286 C 
HETATM    2  N   UNL     1     -42.520  55.133 -54.500  1.00  0.00    -0.056 N 
HETATM    3  H   UNL     1     -43.482  55.383 -54.183  1.00  0.00     0.278 HD
HETATM    4  H   UNL     1     -42.609  54.886 -55.492  1.00  0.00     0.278 HD
HETATM    5  C   UNL     1     -42.055  53.963 -53.679  1.00  0.00     0.209 C 
HETATM    6  C   UNL     1     -41.954  54.389 -52.194  1.00  0.00     0.115 C 
HETATM    7  N   UNL     1     -41.204  55.631 -52.012  1.00  0.00    -0.353 N 
HETATM    8  C   UNL     1     -41.320  56.705 -52.859  1.00  0.00     0.249 C 
HETATM    9  O   UNL     1     -41.039  57.831 -52.463  1.00  0.00    -0.271 OA
HETATM   10  C   UNL     1     -40.740  53.416 -54.239  1.00  0.00     0.035 C 
HETATM   11  C   UNL     1     -40.196  52.291 -53.361  1.00  0.00     0.002 C 
HETATM   12  C   UNL     1     -40.043  52.736 -51.909  1.00  0.00     0.002 C 
HETATM   13  C   UNL     1     -41.360  53.266 -51.340  1.00  0.00     0.027 C 
HETATM   14  H   UNL     1     -40.994  55.921 -51.057  1.00  0.00     0.163 HD
ENDROOT
BRANCH   1  15
HETATM   15  C   UNL     1     -42.412  57.607 -54.957  1.00  0.00     0.146 C 
BRANCH  15  16
HETATM   16  C   UNL     1     -43.871  57.278 -55.168  1.00  0.00     0.224 C 
HETATM   17  N   UNL     1     -44.423  57.168 -56.404  1.00  0.00    -0.325 N 
HETATM   18  H   UNL     1     -45.439  57.176 -56.380  1.00  0.00     0.169 HD
HETATM   19  O   UNL     1     -44.587  57.155 -54.164  1.00  0.00    -0.273 OA
BRANCH  17  20
HETATM   20  C   UNL     1     -43.848  57.120 -57.691  1.00  0.00     0.073 A 
HETATM   21  C   UNL     1     -43.907  58.299 -58.447  1.00  0.00     0.033 A 
HETATM   22  C   UNL     1     -43.349  58.358 -59.728  1.00  0.00     0.002 A 
HETATM   23  C   UNL     1     -42.750  57.229 -60.283  1.00  0.00     0.003 A 
HETATM   24  C   UNL     1     -42.725  56.039 -59.564  1.00  0.00     0.044 A 
HETATM   25  C   UNL     1     -43.277  55.988 -58.284  1.00  0.00     0.143 A 
HETATM   26  F   UNL     1     -43.311  54.795 -57.673  1.00  0.00    -0.204 F 
ENDBRANCH  17  20
ENDBRANCH  15  16
ENDBRANCH   1  15
TORSDOF 3
ENDMDL
MODEL 7
REMARK VINA RESULT:      -7.2     13.489     16.243
REMARK  3 active torsions:
REMARK  status: ('A' for Active; 'I' for Inactive)
REMARK    1  A    between atoms: C_3  and  N_4 
REMARK       I    between atoms: N_4  and  C_5 
REMARK    2  A    between atoms: C_5  and  C_6 
REMARK    3  A    between atoms: C_6  and  C_7 
ROOT
HETATM    1  C   UNL     1     -34.947  39.892 -53.957  1.00  0.00     0.286 C 
HETATM    2  N   UNL     1     -33.885  40.914 -54.353  1.00  0.00    -0.056 N 
HETATM    3  H   UNL     1     -34.388  41.622 -54.931  1.00  0.00     0.278 HD
HETATM    4  H   UNL     1     -33.540  41.422 -53.529  1.00  0.00     0.278 HD
HETATM    5  C   UNL     1     -32.755  40.365 -55.177  1.00  0.00     0.209 C 
HETATM    6  C   UNL     1     -33.333  39.626 -56.409  1.00  0.00     0.115 C 
HETATM    7  N   UNL     1     -34.383  38.672 -56.054  1.00  0.00    -0.353 N 
HETATM    8  C   UNL     1     -35.336  38.930 -55.101  1.00  0.00     0.249 C 
HETATM    9  O   UNL     1     -36.409  38.337 -55.132  1.00  0.00    -0.271 OA
HETATM   10  C   UNL     1     -31.853  39.481 -54.313  1.00  0.00     0.035 C 
HETATM   11  C   UNL     1     -30.755  38.831 -55.152  1.00  0.00     0.002 C 
HETATM   12  C   UNL     1     -31.335  38.054 -56.331  1.00  0.00     0.002 C 
HETATM   13  C   UNL     1     -32.222  38.940 -57.208  1.00  0.00     0.027 C 
HETATM   14  H   UNL     1     -34.736  38.063 -56.791  1.00  0.00     0.163 HD
ENDROOT
BRANCH   1  15
HETATM   15  C   UNL     1     -36.189  40.588 -53.389  1.00  0.00     0.146 C 
BRANCH  15  16
HETATM   16  C   UNL     1     -36.158  42.056 -53.745  1.00  0.00     0.224 C 
HETATM   17  N   UNL     1     -36.417  42.508 -54.999  1.00  0.00    -0.325 N 
HETATM   18  H   UNL     1     -36.133  43.475 -55.132  1.00  0.00     0.169 HD
HETATM   19  O   UNL     1     -35.836  42.860 -52.858  1.00  0.00    -0.273 OA
BRANCH  17  20
HETATM   20  C   UNL     1     -36.930  41.864 -56.145  1.00  0.00     0.073 A 
HETATM   21  C   UNL     1     -36.137  41.917 -57.299  1.00  0.00     0.033 A 
HETATM   22  C   UNL     1     -36.551  41.294 -58.481  1.00  0.00     0.002 A 
HETATM   23  C   UNL     1     -37.777  40.635 -58.533  1.00  0.00     0.003 A 
HETATM   24  C   UNL     1     -38.595  40.613 -57.409  1.00  0.00     0.044 A 
HETATM   25  C   UNL     1     -38.175  41.231 -56.231  1.00  0.00     0.143 A 
HETATM   26  F   UNL     1     -39.040  41.262 -55.208  1.00  0.00    -0.204 F 
ENDBRANCH  17  20
ENDBRANCH  15  16
ENDBRANCH   1  15
TORSDOF 3
ENDMDL
MODEL 8
REMARK VINA RESULT:      -7.2      2.703      4.387
REMARK  3 active torsions:
REMARK  status: ('A' for Active; 'I' for Inactive)
REMARK    1  A    between atoms: C_3  and  N_4 
REMARK       I    between atoms: N_4  and  C_5 
REMARK    2  A    between atoms: C_5  and  C_6 
REMARK    3  A    between atoms: C_6  and  C_7 
ROOT
HETATM    1  C   UNL     1     -43.143  57.683 -52.920  1.00  0.00     0.286 C 
HETATM    2  N   UNL     1     -44.378  56.957 -53.448  1.00  0.00    -0.056 N 
HETATM    3  H   UNL     1     -44.410  56.056 -52.924  1.00  0.00     0.278 HD
HETATM    4  H   UNL     1     -45.236  57.460 -53.191  1.00  0.00     0.278 HD
HETATM    5  C   UNL     1     -44.343  56.635 -54.915  1.00  0.00     0.209 C 
HETATM    6  C   UNL     1     -43.038  55.867 -55.239  1.00  0.00     0.115 C 
HETATM    7  N   UNL     1     -41.847  56.526 -54.705  1.00  0.00    -0.353 N 
HETATM    8  C   UNL     1     -41.813  57.120 -53.468  1.00  0.00     0.249 C 
HETATM    9  O   UNL     1     -40.743  57.266 -52.888  1.00  0.00    -0.271 OA
HETATM   10  C   UNL     1     -44.509  57.914 -55.739  1.00  0.00     0.035 C 
HETATM   11  C   UNL     1     -44.376  57.625 -57.233  1.00  0.00     0.002 C 
HETATM   12  C   UNL     1     -43.061  56.920 -57.554  1.00  0.00     0.002 C 
HETATM   13  C   UNL     1     -42.900  55.632 -56.746  1.00  0.00     0.027 C 
HETATM   14  H   UNL     1     -40.939  56.146 -54.970  1.00  0.00     0.163 HD
ENDROOT
BRANCH   1  15
HETATM   15  C   UNL     1     -43.134  57.699 -51.388  1.00  0.00     0.146 C 
BRANCH  15  16
HETATM   16  C   UNL     1     -44.073  56.640 -50.861  1.00  0.00     0.224 C 
HETATM   17  N   UNL     1     -43.684  55.355 -50.659  1.00  0.00    -0.325 N 
HETATM   18  H   UNL     1     -44.470  54.724 -50.529  1.00  0.00     0.169 HD
HETATM   19  O   UNL     1     -45.252  56.963 -50.655  1.00  0.00    -0.273 OA
BRANCH  17  20
HETATM   20  C   UNL     1     -42.413  54.743 -50.672  1.00  0.00     0.073 A 
HETATM   21  C   UNL     1     -41.561  55.047 -49.601  1.00  0.00     0.033 A 
HETATM   22  C   UNL     1     -40.288  54.476 -49.514  1.00  0.00     0.002 A 
HETATM   23  C   UNL     1     -39.835  53.617 -50.513  1.00  0.00     0.003 A 
HETATM   24  C   UNL     1     -40.651  53.343 -51.606  1.00  0.00     0.044 A 
HETATM   25  C   UNL     1     -41.923  53.910 -51.685  1.00  0.00     0.143 A 
HETATM   26  F   UNL     1     -42.630  53.688 -52.801  1.00  0.00    -0.204 F 
ENDBRANCH  17  20
ENDBRANCH  15  16
ENDBRANCH   1  15
TORSDOF 3
ENDMDL
MODEL 9
REMARK VINA RESULT:      -7.2      2.534      3.918
REMARK  3 active torsions:
REMARK  status: ('A' for Active; 'I' for Inactive)
REMARK    1  A    between atoms: C_3  and  N_4 
REMARK       I    between atoms: N_4  and  C_5 
REMARK    2  A    between atoms: C_5  and  C_6 
REMARK    3  A    between atoms: C_6  and  C_7 
ROOT
HETATM    1  C   UNL     1     -41.805  56.737 -53.951  1.00  0.00     0.286 C 
HETATM    2  N   UNL     1     -43.313  56.779 -54.189  1.00  0.00    -0.056 N 
HETATM    3  H   UNL     1     -43.669  55.858 -53.851  1.00  0.00     0.278 HD
HETATM    4  H   UNL     1     -43.758  57.486 -53.592  1.00  0.00     0.278 HD
HETATM    5  C   UNL     1     -43.722  56.931 -55.627  1.00  0.00     0.209 C 
HETATM    6  C   UNL     1     -43.034  55.833 -56.473  1.00  0.00     0.115 C 
HETATM    7  N   UNL     1     -41.595  55.749 -56.228  1.00  0.00    -0.353 N 
HETATM    8  C   UNL     1     -41.042  55.873 -54.978  1.00  0.00     0.249 C 
HETATM    9  O   UNL     1     -39.942  55.383 -54.745  1.00  0.00    -0.271 OA
HETATM   10  C   UNL     1     -43.415  58.349 -56.115  1.00  0.00     0.035 C 
HETATM   11  C   UNL     1     -43.730  58.498 -57.601  1.00  0.00     0.002 C 
HETATM   12  C   UNL     1     -43.001  57.449 -58.437  1.00  0.00     0.002 C 
HETATM   13  C   UNL     1     -43.321  56.030 -57.964  1.00  0.00     0.027 C 
HETATM   14  H   UNL     1     -41.049  55.130 -56.827  1.00  0.00     0.163 HD
ENDROOT
BRANCH   1  15
HETATM   15  C   UNL     1     -41.492  56.284 -52.521  1.00  0.00     0.146 C 
BRANCH  15  16
HETATM   16  C   UNL     1     -42.593  55.380 -52.019  1.00  0.00     0.224 C 
HETATM   17  N   UNL     1     -42.553  54.031 -52.162  1.00  0.00    -0.325 N 
HETATM   18  H   UNL     1     -43.453  53.592 -51.989  1.00  0.00     0.169 HD
HETATM   19  O   UNL     1     -43.587  55.912 -51.503  1.00  0.00    -0.273 OA
BRANCH  17  20
HETATM   20  C   UNL     1     -41.522  53.158 -52.571  1.00  0.00     0.073 A 
HETATM   21  C   UNL     1     -40.519  52.891 -51.629  1.00  0.00     0.033 A 
HETATM   22  C   UNL     1     -39.464  52.024 -51.934  1.00  0.00     0.002 A 
HETATM   23  C   UNL     1     -39.382  51.436 -53.194  1.00  0.00     0.003 A 
HETATM   24  C   UNL     1     -40.346  51.727 -54.153  1.00  0.00     0.044 A 
HETATM   25  C   UNL     1     -41.399  52.588 -53.843  1.00  0.00     0.143 A 
HETATM   26  F   UNL     1     -42.246  52.908 -54.831  1.00  0.00    -0.204 F 
ENDBRANCH  17  20
ENDBRANCH  15  16
ENDBRANCH   1  15
TORSDOF 3
ENDMDL
MODEL 10
REMARK VINA RESULT:      -7.2     13.720     15.330
REMARK  3 active torsions:
REMARK  status: ('A' for Active; 'I' for Inactive)
REMARK    1  A    between atoms: C_3  and  N_4 
REMARK       I    between atoms: N_4  and  C_5 
REMARK    2  A    between atoms: C_5  and  C_6 
REMARK    3  A    between atoms: C_6  and  C_7 
ROOT
HETATM    1  C   UNL     1     -36.901  41.216 -53.181  1.00  0.00     0.286 C 
HETATM    2  N   UNL     1     -36.918  39.979 -54.075  1.00  0.00    -0.056 N 
HETATM    3  H   UNL     1     -36.147  39.373 -53.719  1.00  0.00     0.278 HD
HETATM    4  H   UNL     1     -37.782  39.441 -53.940  1.00  0.00     0.278 HD
HETATM    5  C   UNL     1     -36.657  40.248 -55.531  1.00  0.00     0.209 C 
HETATM    6  C   UNL     1     -35.339  41.047 -55.674  1.00  0.00     0.115 C 
HETATM    7  N   UNL     1     -35.286  42.213 -54.794  1.00  0.00    -0.353 N 
HETATM    8  C   UNL     1     -35.751  42.196 -53.503  1.00  0.00     0.249 C 
HETATM    9  O   UNL     1     -35.318  43.000 -52.684  1.00  0.00    -0.271 OA
HETATM   10  C   UNL     1     -37.860  40.953 -56.161  1.00  0.00     0.035 C 
HETATM   11  C   UNL     1     -37.578  41.326 -57.614  1.00  0.00     0.002 C 
HETATM   12  C   UNL     1     -36.309  42.165 -57.742  1.00  0.00     0.002 C 
HETATM   13  C   UNL     1     -35.101  41.455 -57.131  1.00  0.00     0.027 C 
HETATM   14  H   UNL     1     -34.502  42.855 -54.907  1.00  0.00     0.163 HD
ENDROOT
BRANCH   1  15
HETATM   15  C   UNL     1     -36.875  40.817 -51.701  1.00  0.00     0.146 C 
BRANCH  15  16
HETATM   16  C   UNL     1     -36.804  39.313 -51.579  1.00  0.00     0.224 C 
HETATM   17  N   UNL     1     -35.630  38.649 -51.425  1.00  0.00    -0.325 N 
HETATM   18  H   UNL     1     -35.722  37.650 -51.590  1.00  0.00     0.169 HD
HETATM   19  O   UNL     1     -37.863  38.675 -51.673  1.00  0.00    -0.273 OA
BRANCH  17  20
HETATM   20  C   UNL     1     -34.321  39.100 -51.155  1.00  0.00     0.073 A 
HETATM   21  C   UNL     1     -33.973  39.235 -49.804  1.00  0.00     0.033 A 
HETATM   22  C   UNL     1     -32.692  39.658 -49.433  1.00  0.00     0.002 A 
HETATM   23  C   UNL     1     -31.752  39.981 -50.409  1.00  0.00     0.003 A 
HETATM   24  C   UNL     1     -32.098  39.896 -51.754  1.00  0.00     0.044 A 
HETATM   25  C   UNL     1     -33.374  39.468 -52.118  1.00  0.00     0.143 A 
HETATM   26  F   UNL     1     -33.686  39.494 -53.421  1.00  0.00    -0.204 F 
ENDBRANCH  17  20
ENDBRANCH  15  16
ENDBRANCH   1  15
TORSDOF 3
ENDMDL
