MODEL 1
REMARK VINA RESULT:      -9.4      0.000      0.000
REMARK  4 active torsions:
REMARK  status: ('A' for Active; 'I' for Inactive)
REMARK    1  A    between atoms: C_7  and  C_8 
REMARK    2  A    between atoms: C_8  and  C_9 
REMARK       I    between atoms: C_9  and  N_10 
REMARK    3  A    between atoms: N_10  and  C_11 
REMARK    4  A    between atoms: C_13  and  C_14 
ROOT
HETATM    1  C   UNL     1     -41.807  54.584 -55.345  1.00  0.00     0.226 C 
HETATM    2  N   UNL     1     -41.617  55.778 -56.027  1.00  0.00    -0.327 N 
HETATM    3  O   UNL     1     -42.880  54.004 -55.190  1.00  0.00    -0.273 OA
HETATM    4  H   UNL     1     -40.664  56.108 -56.110  1.00  0.00     0.169 HD
ENDROOT
BRANCH   1   5
HETATM    5  C   UNL     1     -40.518  53.992 -54.802  1.00  0.00     0.144 C 
BRANCH   5   6
HETATM    6  C   UNL     1     -40.506  53.677 -53.333  1.00  0.00    -0.015 A 
HETATM    7  C   UNL     1     -40.854  54.468 -52.244  1.00  0.00     0.013 A 
HETATM    8  C   UNL     1     -41.336  55.874 -52.140  1.00  0.00     0.068 C 
HETATM    9  N   UNL     1     -40.717  53.706 -51.109  1.00  0.00    -0.359 N 
HETATM   10  H   UNL     1     -40.918  54.025 -50.170  1.00  0.00     0.166 HD
HETATM   11  C   UNL     1     -40.305  52.434 -51.419  1.00  0.00     0.043 A 
HETATM   12  C   UNL     1     -40.158  52.384 -52.803  1.00  0.00     0.002 A 
HETATM   13  C   UNL     1     -40.069  51.335 -50.582  1.00  0.00     0.033 A 
HETATM   14  C   UNL     1     -39.748  51.167 -53.388  1.00  0.00     0.056 A 
HETATM   15  C   UNL     1     -39.507  50.069 -52.563  1.00  0.00     0.117 A 
HETATM   16  C   UNL     1     -39.665  50.142 -51.185  1.00  0.00     0.044 A 
HETATM   17  F   UNL     1     -39.119  48.911 -53.116  1.00  0.00    -0.206 F 
ENDBRANCH   5   6
ENDBRANCH   1   5
BRANCH   2  18
HETATM   18  C   UNL     1     -42.604  56.560 -56.668  1.00  0.00     0.035 A 
HETATM   19  C   UNL     1     -43.158  56.057 -57.856  1.00  0.00     0.042 A 
HETATM   20  C   UNL     1     -44.169  56.751 -58.544  1.00  0.00    -0.021 A 
HETATM   21  C   UNL     1     -44.596  57.985 -58.038  1.00  0.00     0.012 A 
HETATM   22  C   UNL     1     -44.038  58.502 -56.869  1.00  0.00     0.003 A 
HETATM   23  C   UNL     1     -43.051  57.790 -56.186  1.00  0.00     0.029 A 
BRANCH  20  24
HETATM   24  C   UNL     1     -44.780  56.212 -59.750  1.00  0.00     0.010 A 
HETATM   25  C   UNL     1     -44.356  55.175 -60.618  1.00  0.00     0.152 A 
HETATM   26  N   UNL     1     -45.179  54.991 -61.653  1.00  0.00    -0.187 NA
HETATM   27  N   UNL     1     -46.131  55.915 -61.463  1.00  0.00    -0.289 N 
HETATM   28  H   UNL     1     -46.881  55.980 -62.143  1.00  0.00     0.188 HD
HETATM   29  C   UNL     1     -45.941  56.671 -60.340  1.00  0.00     0.123 A 
ENDBRANCH  20  24
ENDBRANCH   2  18
TORSDOF 4
ENDMDL
MODEL 2
REMARK VINA RESULT:      -9.3      1.919      2.810
REMARK  4 active torsions:
REMARK  status: ('A' for Active; 'I' for Inactive)
REMARK    1  A    between atoms: C_7  and  C_8 
REMARK    2  A    between atoms: C_8  and  C_9 
REMARK       I    between atoms: C_9  and  N_10 
REMARK    3  A    between atoms: N_10  and  C_11 
REMARK    4  A    between atoms: C_13  and  C_14 
ROOT
HETATM    1  C   UNL     1     -41.608  54.340 -55.228  1.00  0.00     0.226 C 
HETATM    2  N   UNL     1     -41.492  55.496 -55.988  1.00  0.00    -0.327 N 
HETATM    3  O   UNL     1     -42.660  53.788 -54.912  1.00  0.00    -0.273 OA
HETATM    4  H   UNL     1     -40.552  55.804 -56.206  1.00  0.00     0.169 HD
ENDROOT
BRANCH   1   5
HETATM    5  C   UNL     1     -40.268  53.751 -54.823  1.00  0.00     0.144 C 
BRANCH   5   6
HETATM    6  C   UNL     1     -40.235  53.047 -53.495  1.00  0.00    -0.015 A 
HETATM    7  C   UNL     1     -39.916  51.730 -53.187  1.00  0.00     0.013 A 
HETATM    8  C   UNL     1     -39.518  50.571 -54.034  1.00  0.00     0.068 C 
HETATM    9  N   UNL     1     -39.987  51.588 -51.822  1.00  0.00    -0.359 N 
HETATM   10  H   UNL     1     -39.788  50.734 -51.318  1.00  0.00     0.166 HD
HETATM   11  C   UNL     1     -40.326  52.775 -51.222  1.00  0.00     0.043 A 
HETATM   12  C   UNL     1     -40.495  53.708 -52.242  1.00  0.00     0.002 A 
HETATM   13  C   UNL     1     -40.480  53.086 -49.865  1.00  0.00     0.033 A 
HETATM   14  C   UNL     1     -40.841  55.030 -51.889  1.00  0.00     0.056 A 
HETATM   15  C   UNL     1     -41.000  55.348 -50.540  1.00  0.00     0.117 A 
HETATM   16  C   UNL     1     -40.823  54.401 -49.540  1.00  0.00     0.044 A 
HETATM   17  F   UNL     1     -41.328  56.603 -50.201  1.00  0.00    -0.206 F 
ENDBRANCH   5   6
ENDBRANCH   1   5
BRANCH   2  18
HETATM   18  C   UNL     1     -42.542  56.263 -56.539  1.00  0.00     0.035 A 
HETATM   19  C   UNL     1     -43.071  55.847 -57.771  1.00  0.00     0.042 A 
HETATM   20  C   UNL     1     -44.140  56.532 -58.378  1.00  0.00    -0.021 A 
HETATM   21  C   UNL     1     -44.652  57.669 -57.742  1.00  0.00     0.012 A 
HETATM   22  C   UNL     1     -44.119  58.102 -56.528  1.00  0.00     0.003 A 
HETATM   23  C   UNL     1     -43.074  57.399 -55.928  1.00  0.00     0.029 A 
BRANCH  20  24
HETATM   24  C   UNL     1     -44.723  56.077 -59.632  1.00  0.00     0.010 A 
HETATM   25  C   UNL     1     -44.342  55.026 -60.502  1.00  0.00     0.152 A 
HETATM   26  N   UNL     1     -45.115  54.941 -61.587  1.00  0.00    -0.187 NA
HETATM   27  N   UNL     1     -45.990  55.943 -61.426  1.00  0.00    -0.289 N 
HETATM   28  H   UNL     1     -46.690  56.090 -62.147  1.00  0.00     0.188 HD
HETATM   29  C   UNL     1     -45.801  56.652 -60.274  1.00  0.00     0.123 A 
ENDBRANCH  20  24
ENDBRANCH   2  18
TORSDOF 4
ENDMDL
MODEL 3
REMARK VINA RESULT:      -8.8      2.655      3.674
REMARK  4 active torsions:
REMARK  status: ('A' for Active; 'I' for Inactive)
REMARK    1  A    between atoms: C_7  and  C_8 
REMARK    2  A    between atoms: C_8  and  C_9 
REMARK       I    between atoms: C_9  and  N_10 
REMARK    3  A    between atoms: N_10  and  C_11 
REMARK    4  A    between atoms: C_13  and  C_14 
ROOT
HETATM    1  C   UNL     1     -42.517  55.299 -55.662  1.00  0.00     0.226 C 
HETATM    2  N   UNL     1     -43.345  55.603 -56.734  1.00  0.00    -0.327 N 
HETATM    3  O   UNL     1     -41.344  55.644 -55.536  1.00  0.00    -0.273 OA
HETATM    4  H   UNL     1     -44.305  55.288 -56.672  1.00  0.00     0.169 HD
ENDROOT
BRANCH   1   5
HETATM    5  C   UNL     1     -43.212  54.496 -54.577  1.00  0.00     0.144 C 
BRANCH   5   6
HETATM    6  C   UNL     1     -42.408  54.237 -53.334  1.00  0.00    -0.015 A 
HETATM    7  C   UNL     1     -42.486  54.826 -52.077  1.00  0.00     0.013 A 
HETATM    8  C   UNL     1     -43.358  55.901 -51.526  1.00  0.00     0.068 C 
HETATM    9  N   UNL     1     -41.565  54.207 -51.265  1.00  0.00    -0.359 N 
HETATM   10  H   UNL     1     -41.416  54.426 -50.289  1.00  0.00     0.166 HD
HETATM   11  C   UNL     1     -40.896  53.221 -51.945  1.00  0.00     0.043 A 
HETATM   12  C   UNL     1     -41.395  53.217 -53.245  1.00  0.00     0.002 A 
HETATM   13  C   UNL     1     -39.905  52.335 -51.501  1.00  0.00     0.033 A 
HETATM   14  C   UNL     1     -40.874  52.277 -54.158  1.00  0.00     0.056 A 
HETATM   15  C   UNL     1     -39.885  51.392 -53.726  1.00  0.00     0.117 A 
HETATM   16  C   UNL     1     -39.406  51.413 -52.423  1.00  0.00     0.044 A 
HETATM   17  F   UNL     1     -39.389  50.496 -54.591  1.00  0.00    -0.206 F 
ENDBRANCH   5   6
ENDBRANCH   1   5
BRANCH   2  18
HETATM   18  C   UNL     1     -43.010  56.354 -57.883  1.00  0.00     0.035 A 
HETATM   19  C   UNL     1     -42.693  57.710 -57.701  1.00  0.00     0.042 A 
HETATM   20  C   UNL     1     -42.317  58.526 -58.784  1.00  0.00    -0.021 A 
HETATM   21  C   UNL     1     -42.296  57.966 -60.067  1.00  0.00     0.012 A 
HETATM   22  C   UNL     1     -42.629  56.626 -60.260  1.00  0.00     0.003 A 
HETATM   23  C   UNL     1     -42.978  55.824 -59.173  1.00  0.00     0.029 A 
BRANCH  20  24
HETATM   24  C   UNL     1     -41.942  59.920 -58.594  1.00  0.00     0.010 A 
HETATM   25  C   UNL     1     -41.674  60.942 -59.538  1.00  0.00     0.152 A 
HETATM   26  N   UNL     1     -41.323  62.098 -58.969  1.00  0.00    -0.187 NA
HETATM   27  N   UNL     1     -41.352  61.822 -57.658  1.00  0.00    -0.289 N 
HETATM   28  H   UNL     1     -41.106  62.560 -57.006  1.00  0.00     0.188 HD
HETATM   29  C   UNL     1     -41.717  60.536 -57.379  1.00  0.00     0.123 A 
ENDBRANCH  20  24
ENDBRANCH   2  18
TORSDOF 4
ENDMDL
MODEL 4
REMARK VINA RESULT:      -8.8      2.968      8.742
REMARK  4 active torsions:
REMARK  status: ('A' for Active; 'I' for Inactive)
REMARK    1  A    between atoms: C_7  and  C_8 
REMARK    2  A    between atoms: C_8  and  C_9 
REMARK       I    between atoms: C_9  and  N_10 
REMARK    3  A    between atoms: N_10  and  C_11 
REMARK    4  A    between atoms: C_13  and  C_14 
ROOT
HETATM    1  C   UNL     1     -42.461  55.260 -55.823  1.00  0.00     0.226 C 
HETATM    2  N   UNL     1     -41.295  55.335 -55.074  1.00  0.00    -0.327 N 
HETATM    3  O   UNL     1     -43.461  54.604 -55.538  1.00  0.00    -0.273 OA
HETATM    4  H   UNL     1     -40.573  55.957 -55.417  1.00  0.00     0.169 HD
ENDROOT
BRANCH   1   5
HETATM    5  C   UNL     1     -42.427  56.122 -57.073  1.00  0.00     0.144 C 
BRANCH   5   6
HETATM    6  C   UNL     1     -43.735  56.738 -57.482  1.00  0.00    -0.015 A 
HETATM    7  C   UNL     1     -44.483  57.740 -56.875  1.00  0.00     0.013 A 
HETATM    8  C   UNL     1     -44.273  58.533 -55.631  1.00  0.00     0.068 C 
HETATM    9  N   UNL     1     -45.581  57.984 -57.665  1.00  0.00    -0.359 N 
HETATM   10  H   UNL     1     -46.291  58.678 -57.471  1.00  0.00     0.166 HD
HETATM   11  C   UNL     1     -45.570  57.184 -58.780  1.00  0.00     0.043 A 
HETATM   12  C   UNL     1     -44.430  56.388 -58.694  1.00  0.00     0.002 A 
HETATM   13  C   UNL     1     -46.470  57.121 -59.853  1.00  0.00     0.033 A 
HETATM   14  C   UNL     1     -44.175  55.471 -59.736  1.00  0.00     0.056 A 
HETATM   15  C   UNL     1     -45.068  55.399 -60.806  1.00  0.00     0.117 A 
HETATM   16  C   UNL     1     -46.195  56.207 -60.872  1.00  0.00     0.044 A 
HETATM   17  F   UNL     1     -44.827  54.531 -61.798  1.00  0.00    -0.206 F 
ENDBRANCH   5   6
ENDBRANCH   1   5
BRANCH   2  18
HETATM   18  C   UNL     1     -41.022  54.679 -53.853  1.00  0.00     0.035 A 
HETATM   19  C   UNL     1     -40.634  53.331 -53.915  1.00  0.00     0.042 A 
HETATM   20  C   UNL     1     -40.311  52.607 -52.752  1.00  0.00    -0.021 A 
HETATM   21  C   UNL     1     -40.418  53.251 -51.513  1.00  0.00     0.012 A 
HETATM   22  C   UNL     1     -40.823  54.584 -51.440  1.00  0.00     0.003 A 
HETATM   23  C   UNL     1     -41.118  55.294 -52.605  1.00  0.00     0.029 A 
BRANCH  20  24
HETATM   24  C   UNL     1     -39.862  51.224 -52.814  1.00  0.00     0.010 A 
HETATM   25  C   UNL     1     -39.689  50.357 -53.921  1.00  0.00     0.152 A 
HETATM   26  N   UNL     1     -39.289  49.133 -53.567  1.00  0.00    -0.187 NA
HETATM   27  N   UNL     1     -39.212  49.204 -52.231  1.00  0.00    -0.289 N 
HETATM   28  H   UNL     1     -38.932  48.373 -51.720  1.00  0.00     0.188 HD
HETATM   29  C   UNL     1     -39.543  50.431 -51.730  1.00  0.00     0.123 A 
ENDBRANCH  20  24
ENDBRANCH   2  18
TORSDOF 4
ENDMDL
MODEL 5
REMARK VINA RESULT:      -8.7      3.769      5.927
REMARK  4 active torsions:
REMARK  status: ('A' for Active; 'I' for Inactive)
REMARK    1  A    between atoms: C_7  and  C_8 
REMARK    2  A    between atoms: C_8  and  C_9 
REMARK       I    between atoms: C_9  and  N_10 
REMARK    3  A    between atoms: N_10  and  C_11 
REMARK    4  A    between atoms: C_13  and  C_14 
ROOT
HETATM    1  C   UNL     1     -42.136  55.299 -53.298  1.00  0.00     0.226 C 
HETATM    2  N   UNL     1     -42.089  56.666 -53.537  1.00  0.00    -0.327 N 
HETATM    3  O   UNL     1     -43.133  54.658 -52.972  1.00  0.00    -0.273 OA
HETATM    4  H   UNL     1     -41.202  57.044 -53.845  1.00  0.00     0.169 HD
ENDROOT
BRANCH   1   5
HETATM    5  C   UNL     1     -40.802  54.607 -53.513  1.00  0.00     0.144 C 
BRANCH   5   6
HETATM    6  C   UNL     1     -40.414  53.590 -52.476  1.00  0.00    -0.015 A 
HETATM    7  C   UNL     1     -40.303  53.714 -51.097  1.00  0.00     0.013 A 
HETATM    8  C   UNL     1     -40.509  54.866 -50.175  1.00  0.00     0.068 C 
HETATM    9  N   UNL     1     -39.964  52.483 -50.589  1.00  0.00    -0.359 N 
HETATM   10  H   UNL     1     -39.833  52.279 -49.607  1.00  0.00     0.166 HD
HETATM   11  C   UNL     1     -39.864  51.550 -51.590  1.00  0.00     0.043 A 
HETATM   12  C   UNL     1     -40.134  52.212 -52.786  1.00  0.00     0.002 A 
HETATM   13  C   UNL     1     -39.570  50.182 -51.520  1.00  0.00     0.033 A 
HETATM   14  C   UNL     1     -40.106  51.466 -53.984  1.00  0.00     0.056 A 
HETATM   15  C   UNL     1     -39.811  50.104 -53.923  1.00  0.00     0.117 A 
HETATM   16  C   UNL     1     -39.549  49.465 -52.719  1.00  0.00     0.044 A 
HETATM   17  F   UNL     1     -39.785  49.392 -55.059  1.00  0.00    -0.206 F 
ENDBRANCH   5   6
ENDBRANCH   1   5
BRANCH   2  18
HETATM   18  C   UNL     1     -43.160  57.583 -53.452  1.00  0.00     0.035 A 
HETATM   19  C   UNL     1     -43.353  58.241 -52.226  1.00  0.00     0.042 A 
HETATM   20  C   UNL     1     -44.373  59.195 -52.060  1.00  0.00    -0.021 A 
HETATM   21  C   UNL     1     -45.226  59.457 -53.139  1.00  0.00     0.012 A 
HETATM   22  C   UNL     1     -45.055  58.793 -54.354  1.00  0.00     0.003 A 
HETATM   23  C   UNL     1     -44.024  57.866 -54.510  1.00  0.00     0.029 A 
BRANCH  20  24
HETATM   24  C   UNL     1     -44.548  59.915 -50.807  1.00  0.00     0.010 A 
HETATM   25  C   UNL     1     -43.730  60.883 -50.174  1.00  0.00     0.152 A 
HETATM   26  N   UNL     1     -44.217  61.291 -49.000  1.00  0.00    -0.187 NA
HETATM   27  N   UNL     1     -45.345  60.580 -48.866  1.00  0.00    -0.289 N 
HETATM   28  H   UNL     1     -45.899  60.712 -48.026  1.00  0.00     0.188 HD
HETATM   29  C   UNL     1     -45.590  59.743 -49.917  1.00  0.00     0.123 A 
ENDBRANCH  20  24
ENDBRANCH   2  18
TORSDOF 4
ENDMDL
MODEL 6
REMARK VINA RESULT:      -8.4      3.374      8.735
REMARK  4 active torsions:
REMARK  status: ('A' for Active; 'I' for Inactive)
REMARK    1  A    between atoms: C_7  and  C_8 
REMARK    2  A    between atoms: C_8  and  C_9 
REMARK       I    between atoms: C_9  and  N_10 
REMARK    3  A    between atoms: N_10  and  C_11 
REMARK    4  A    between atoms: C_13  and  C_14 
ROOT
HETATM    1  C   UNL     1     -42.299  56.450 -53.598  1.00  0.00     0.226 C 
HETATM    2  N   UNL     1     -41.126  55.724 -53.445  1.00  0.00    -0.327 N 
HETATM    3  O   UNL     1     -43.262  56.433 -52.834  1.00  0.00    -0.273 OA
HETATM    4  H   UNL     1     -40.401  55.879 -54.134  1.00  0.00     0.169 HD
ENDROOT
BRANCH   1   5
HETATM    5  C   UNL     1     -42.295  57.343 -54.826  1.00  0.00     0.144 C 
BRANCH   5   6
HETATM    6  C   UNL     1     -42.587  56.664 -56.134  1.00  0.00    -0.015 A 
HETATM    7  C   UNL     1     -43.039  55.375 -56.394  1.00  0.00     0.013 A 
HETATM    8  C   UNL     1     -43.377  54.233 -55.499  1.00  0.00     0.068 C 
HETATM    9  N   UNL     1     -43.196  55.251 -57.754  1.00  0.00    -0.359 N 
HETATM   10  H   UNL     1     -43.530  54.419 -58.223  1.00  0.00     0.166 HD
HETATM   11  C   UNL     1     -42.875  56.421 -58.394  1.00  0.00     0.043 A 
HETATM   12  C   UNL     1     -42.484  57.325 -57.409  1.00  0.00     0.002 A 
HETATM   13  C   UNL     1     -42.917  56.742 -59.757  1.00  0.00     0.033 A 
HETATM   14  C   UNL     1     -42.108  58.626 -57.807  1.00  0.00     0.056 A 
HETATM   15  C   UNL     1     -42.143  58.953 -59.163  1.00  0.00     0.117 A 
HETATM   16  C   UNL     1     -42.541  58.036 -60.126  1.00  0.00     0.044 A 
HETATM   17  F   UNL     1     -41.788  60.188 -59.544  1.00  0.00    -0.206 F 
ENDBRANCH   5   6
ENDBRANCH   1   5
BRANCH   2  18
HETATM   18  C   UNL     1     -40.807  54.829 -52.399  1.00  0.00     0.035 A 
HETATM   19  C   UNL     1     -40.522  53.499 -52.749  1.00  0.00     0.042 A 
HETATM   20  C   UNL     1     -40.163  52.547 -51.777  1.00  0.00    -0.021 A 
HETATM   21  C   UNL     1     -40.128  52.943 -50.434  1.00  0.00     0.012 A 
HETATM   22  C   UNL     1     -40.430  54.256 -50.075  1.00  0.00     0.003 A 
HETATM   23  C   UNL     1     -40.762  55.194 -51.053  1.00  0.00     0.029 A 
BRANCH  20  24
HETATM   24  C   UNL     1     -39.819  51.180 -52.139  1.00  0.00     0.010 A 
HETATM   25  C   UNL     1     -39.726  50.554 -53.407  1.00  0.00     0.152 A 
HETATM   26  N   UNL     1     -39.414  49.258 -53.327  1.00  0.00    -0.187 NA
HETATM   27  N   UNL     1     -39.314  49.041 -52.008  1.00  0.00    -0.289 N 
HETATM   28  H   UNL     1     -39.090  48.104 -51.691  1.00  0.00     0.188 HD
HETATM   29  C   UNL     1     -39.546  50.156 -51.253  1.00  0.00     0.123 A 
ENDBRANCH  20  24
ENDBRANCH   2  18
TORSDOF 4
ENDMDL
MODEL 7
REMARK VINA RESULT:      -8.4      1.943      2.766
REMARK  4 active torsions:
REMARK  status: ('A' for Active; 'I' for Inactive)
REMARK    1  A    between atoms: C_7  and  C_8 
REMARK    2  A    between atoms: C_8  and  C_9 
REMARK       I    between atoms: C_9  and  N_10 
REMARK    3  A    between atoms: N_10  and  C_11 
REMARK    4  A    between atoms: C_13  and  C_14 
ROOT
HETATM    1  C   UNL     1     -42.305  55.155 -56.180  1.00  0.00     0.226 C 
HETATM    2  N   UNL     1     -42.380  55.882 -57.360  1.00  0.00    -0.327 N 
HETATM    3  O   UNL     1     -43.184  54.425 -55.725  1.00  0.00    -0.273 OA
HETATM    4  H   UNL     1     -41.554  56.402 -57.628  1.00  0.00     0.169 HD
ENDROOT
BRANCH   1   5
HETATM    5  C   UNL     1     -40.972  55.303 -55.469  1.00  0.00     0.144 C 
BRANCH   5   6
HETATM    6  C   UNL     1     -40.940  54.859 -54.033  1.00  0.00    -0.015 A 
HETATM    7  C   UNL     1     -41.384  55.505 -52.885  1.00  0.00     0.013 A 
HETATM    8  C   UNL     1     -42.020  56.833 -52.666  1.00  0.00     0.068 C 
HETATM    9  N   UNL     1     -41.175  54.661 -51.820  1.00  0.00    -0.359 N 
HETATM   10  H   UNL     1     -41.420  54.869 -50.861  1.00  0.00     0.166 HD
HETATM   11  C   UNL     1     -40.622  53.476 -52.235  1.00  0.00     0.043 A 
HETATM   12  C   UNL     1     -40.456  53.569 -53.615  1.00  0.00     0.002 A 
HETATM   13  C   UNL     1     -40.274  52.337 -51.496  1.00  0.00     0.033 A 
HETATM   14  C   UNL     1     -39.908  52.463 -54.298  1.00  0.00     0.056 A 
HETATM   15  C   UNL     1     -39.555  51.326 -53.570  1.00  0.00     0.117 A 
HETATM   16  C   UNL     1     -39.734  51.255 -52.195  1.00  0.00     0.044 A 
HETATM   17  F   UNL     1     -39.035  50.273 -54.217  1.00  0.00    -0.206 F 
ENDBRANCH   5   6
ENDBRANCH   1   5
BRANCH   2  18
HETATM   18  C   UNL     1     -43.467  55.935 -58.261  1.00  0.00     0.035 A 
HETATM   19  C   UNL     1     -44.445  56.918 -58.039  1.00  0.00     0.042 A 
HETATM   20  C   UNL     1     -45.545  57.066 -58.904  1.00  0.00    -0.021 A 
HETATM   21  C   UNL     1     -45.669  56.183 -59.984  1.00  0.00     0.012 A 
HETATM   22  C   UNL     1     -44.714  55.191 -60.201  1.00  0.00     0.003 A 
HETATM   23  C   UNL     1     -43.616  55.072 -59.347  1.00  0.00     0.029 A 
BRANCH  20  24
HETATM   24  C   UNL     1     -46.536  58.113 -58.706  1.00  0.00     0.010 A 
HETATM   25  C   UNL     1     -47.070  59.065 -59.609  1.00  0.00     0.152 A 
HETATM   26  N   UNL     1     -47.945  59.895 -59.037  1.00  0.00    -0.187 NA
HETATM   27  N   UNL     1     -47.972  59.487 -57.760  1.00  0.00    -0.289 N 
HETATM   28  H   UNL     1     -48.572  59.984 -57.110  1.00  0.00     0.188 HD
HETATM   29  C   UNL     1     -47.149  58.426 -57.509  1.00  0.00     0.123 A 
ENDBRANCH  20  24
ENDBRANCH   2  18
TORSDOF 4
ENDMDL
MODEL 8
REMARK VINA RESULT:      -8.2      3.023      8.534
REMARK  4 active torsions:
REMARK  status: ('A' for Active; 'I' for Inactive)
REMARK    1  A    between atoms: C_7  and  C_8 
REMARK    2  A    between atoms: C_8  and  C_9 
REMARK       I    between atoms: C_9  and  N_10 
REMARK    3  A    between atoms: N_10  and  C_11 
REMARK    4  A    between atoms: C_13  and  C_14 
ROOT
HETATM    1  C   UNL     1     -42.302  56.175 -53.472  1.00  0.00     0.226 C 
HETATM    2  N   UNL     1     -41.109  55.873 -52.831  1.00  0.00    -0.327 N 
HETATM    3  O   UNL     1     -43.367  55.576 -53.333  1.00  0.00    -0.273 OA
HETATM    4  H   UNL     1     -40.326  56.489 -53.013  1.00  0.00     0.169 HD
ENDROOT
BRANCH   1   5
HETATM    5  C   UNL     1     -42.204  57.386 -54.383  1.00  0.00     0.144 C 
BRANCH   5   6
HETATM    6  C   UNL     1     -43.425  57.692 -55.203  1.00  0.00    -0.015 A 
HETATM    7  C   UNL     1     -44.561  58.425 -54.882  1.00  0.00     0.013 A 
HETATM    8  C   UNL     1     -44.974  59.140 -53.642  1.00  0.00     0.068 C 
HETATM    9  N   UNL     1     -45.372  58.454 -55.992  1.00  0.00    -0.359 N 
HETATM   10  H   UNL     1     -46.261  58.934 -56.045  1.00  0.00     0.166 HD
HETATM   11  C   UNL     1     -44.797  57.777 -57.037  1.00  0.00     0.043 A 
HETATM   12  C   UNL     1     -43.579  57.282 -56.576  1.00  0.00     0.002 A 
HETATM   13  C   UNL     1     -45.257  57.583 -58.346  1.00  0.00     0.033 A 
HETATM   14  C   UNL     1     -42.774  56.546 -57.471  1.00  0.00     0.056 A 
HETATM   15  C   UNL     1     -43.227  56.344 -58.775  1.00  0.00     0.117 A 
HETATM   16  C   UNL     1     -44.443  56.852 -59.214  1.00  0.00     0.044 A 
HETATM   17  F   UNL     1     -42.464  55.647 -59.629  1.00  0.00    -0.206 F 
ENDBRANCH   5   6
ENDBRANCH   1   5
BRANCH   2  18
HETATM   18  C   UNL     1     -40.878  54.830 -51.906  1.00  0.00     0.035 A 
HETATM   19  C   UNL     1     -40.548  53.567 -52.424  1.00  0.00     0.042 A 
HETATM   20  C   UNL     1     -40.269  52.479 -51.577  1.00  0.00    -0.021 A 
HETATM   21  C   UNL     1     -40.361  52.668 -50.192  1.00  0.00     0.012 A 
HETATM   22  C   UNL     1     -40.709  53.914 -49.670  1.00  0.00     0.003 A 
HETATM   23  C   UNL     1     -40.960  54.989 -50.523  1.00  0.00     0.029 A 
BRANCH  20  24
HETATM   24  C   UNL     1     -39.880  51.180 -52.106  1.00  0.00     0.010 A 
HETATM   25  C   UNL     1     -39.802  50.711 -53.441  1.00  0.00     0.152 A 
HETATM   26  N   UNL     1     -39.432  49.431 -53.524  1.00  0.00    -0.187 NA
HETATM   27  N   UNL     1     -39.280  49.067 -52.243  1.00  0.00    -0.289 N 
HETATM   28  H   UNL     1     -39.006  48.110 -52.044  1.00  0.00     0.188 HD
HETATM   29  C   UNL     1     -39.534  50.074 -51.356  1.00  0.00     0.123 A 
ENDBRANCH  20  24
ENDBRANCH   2  18
TORSDOF 4
ENDMDL
MODEL 9
REMARK VINA RESULT:      -8.1      4.622      8.364
REMARK  4 active torsions:
REMARK  status: ('A' for Active; 'I' for Inactive)
REMARK    1  A    between atoms: C_7  and  C_8 
REMARK    2  A    between atoms: C_8  and  C_9 
REMARK       I    between atoms: C_9  and  N_10 
REMARK    3  A    between atoms: N_10  and  C_11 
REMARK    4  A    between atoms: C_13  and  C_14 
ROOT
HETATM    1  C   UNL     1     -41.859  56.116 -51.417  1.00  0.00     0.226 C 
HETATM    2  N   UNL     1     -42.175  55.518 -52.629  1.00  0.00    -0.327 N 
HETATM    3  O   UNL     1     -40.809  55.970 -50.794  1.00  0.00    -0.273 OA
HETATM    4  H   UNL     1     -43.063  55.774 -53.044  1.00  0.00     0.169 HD
ENDROOT
BRANCH   1   5
HETATM    5  C   UNL     1     -42.946  57.044 -50.904  1.00  0.00     0.144 C 
BRANCH   5   6
HETATM    6  C   UNL     1     -43.013  58.399 -51.550  1.00  0.00    -0.015 A 
HETATM    7  C   UNL     1     -42.372  59.585 -51.215  1.00  0.00     0.013 A 
HETATM    8  C   UNL     1     -41.424  59.937 -50.121  1.00  0.00     0.068 C 
HETATM    9  N   UNL     1     -42.726  60.533 -52.146  1.00  0.00    -0.359 N 
HETATM   10  H   UNL     1     -42.392  61.487 -52.154  1.00  0.00     0.166 HD
HETATM   11  C   UNL     1     -43.568  60.002 -53.090  1.00  0.00     0.043 A 
HETATM   12  C   UNL     1     -43.773  58.668 -52.744  1.00  0.00     0.002 A 
HETATM   13  C   UNL     1     -44.143  60.598 -54.220  1.00  0.00     0.033 A 
HETATM   14  C   UNL     1     -44.604  57.883 -53.571  1.00  0.00     0.056 A 
HETATM   15  C   UNL     1     -45.185  58.470 -54.696  1.00  0.00     0.117 A 
HETATM   16  C   UNL     1     -44.962  59.801 -55.023  1.00  0.00     0.044 A 
HETATM   17  F   UNL     1     -45.973  57.726 -55.484  1.00  0.00    -0.206 F 
ENDBRANCH   5   6
ENDBRANCH   1   5
BRANCH   2  18
HETATM   18  C   UNL     1     -41.371  54.631 -53.378  1.00  0.00     0.035 A 
HETATM   19  C   UNL     1     -40.999  53.422 -52.767  1.00  0.00     0.042 A 
HETATM   20  C   UNL     1     -40.226  52.464 -53.449  1.00  0.00    -0.021 A 
HETATM   21  C   UNL     1     -39.800  52.753 -54.751  1.00  0.00     0.012 A 
HETATM   22  C   UNL     1     -40.147  53.960 -55.358  1.00  0.00     0.003 A 
HETATM   23  C   UNL     1     -40.933  54.890 -54.677  1.00  0.00     0.029 A 
BRANCH  20  24
HETATM   24  C   UNL     1     -39.878  51.190 -52.838  1.00  0.00     0.010 A 
HETATM   25  C   UNL     1     -39.749  49.897 -53.404  1.00  0.00     0.152 A 
HETATM   26  N   UNL     1     -39.445  48.961 -52.502  1.00  0.00    -0.187 NA
HETATM   27  N   UNL     1     -39.387  49.644 -51.351  1.00  0.00    -0.289 N 
HETATM   28  H   UNL     1     -39.176  49.133 -50.499  1.00  0.00     0.188 HD
HETATM   29  C   UNL     1     -39.637  50.979 -51.495  1.00  0.00     0.123 A 
ENDBRANCH  20  24
ENDBRANCH   2  18
TORSDOF 4
ENDMDL
MODEL 10
REMARK VINA RESULT:      -8.1      4.766      9.106
REMARK  4 active torsions:
REMARK  status: ('A' for Active; 'I' for Inactive)
REMARK    1  A    between atoms: C_7  and  C_8 
REMARK    2  A    between atoms: C_8  and  C_9 
REMARK       I    between atoms: C_9  and  N_10 
REMARK    3  A    between atoms: N_10  and  C_11 
REMARK    4  A    between atoms: C_13  and  C_14 
ROOT
HETATM    1  C   UNL     1     -42.697  56.505 -52.183  1.00  0.00     0.226 C 
HETATM    2  N   UNL     1     -42.859  55.266 -52.789  1.00  0.00    -0.327 N 
HETATM    3  O   UNL     1     -41.646  57.139 -52.109  1.00  0.00    -0.273 OA
HETATM    4  H   UNL     1     -43.799  54.890 -52.810  1.00  0.00     0.169 HD
ENDROOT
BRANCH   1   5
HETATM    5  C   UNL     1     -43.988  57.069 -51.616  1.00  0.00     0.144 C 
BRANCH   5   6
HETATM    6  C   UNL     1     -44.626  58.174 -52.410  1.00  0.00    -0.015 A 
HETATM    7  C   UNL     1     -44.848  58.283 -53.777  1.00  0.00     0.013 A 
HETATM    8  C   UNL     1     -44.534  57.378 -54.918  1.00  0.00     0.068 C 
HETATM    9  N   UNL     1     -45.510  59.467 -54.003  1.00  0.00    -0.359 N 
HETATM   10  H   UNL     1     -45.812  59.795 -54.911  1.00  0.00     0.166 HD
HETATM   11  C   UNL     1     -45.742  60.131 -52.826  1.00  0.00     0.043 A 
HETATM   12  C   UNL     1     -45.196  59.352 -51.808  1.00  0.00     0.002 A 
HETATM   13  C   UNL     1     -46.401  61.346 -52.592  1.00  0.00     0.033 A 
HETATM   14  C   UNL     1     -45.310  59.813 -50.479  1.00  0.00     0.056 A 
HETATM   15  C   UNL     1     -45.961  61.023 -50.238  1.00  0.00     0.117 A 
HETATM   16  C   UNL     1     -46.502  61.780 -51.269  1.00  0.00     0.044 A 
HETATM   17  F   UNL     1     -46.073  61.462 -48.976  1.00  0.00    -0.206 F 
ENDBRANCH   5   6
ENDBRANCH   1   5
BRANCH   2  18
HETATM   18  C   UNL     1     -41.865  54.494 -53.429  1.00  0.00     0.035 A 
HETATM   19  C   UNL     1     -41.407  53.346 -52.762  1.00  0.00     0.042 A 
HETATM   20  C   UNL     1     -40.443  52.499 -53.339  1.00  0.00    -0.021 A 
HETATM   21  C   UNL     1     -39.915  52.842 -54.590  1.00  0.00     0.012 A 
HETATM   22  C   UNL     1     -40.349  53.991 -55.251  1.00  0.00     0.003 A 
HETATM   23  C   UNL     1     -41.323  54.808 -54.675  1.00  0.00     0.029 A 
BRANCH  20  24
HETATM   24  C   UNL     1     -39.999  51.283 -52.674  1.00  0.00     0.010 A 
HETATM   25  C   UNL     1     -39.650  51.043 -51.321  1.00  0.00     0.152 A 
HETATM   26  N   UNL     1     -39.254  49.788 -51.100  1.00  0.00    -0.187 NA
HETATM   27  N   UNL     1     -39.336  49.216 -52.309  1.00  0.00    -0.289 N 
HETATM   28  H   UNL     1     -39.069  48.241 -52.399  1.00  0.00     0.188 HD
HETATM   29  C   UNL     1     -39.777  50.065 -53.285  1.00  0.00     0.123 A 
ENDBRANCH  20  24
ENDBRANCH   2  18
TORSDOF 4
ENDMDL
