MODEL 1
REMARK VINA RESULT:      -8.8      0.000      0.000
REMARK  3 active torsions:
REMARK  status: ('A' for Active; 'I' for Inactive)
REMARK    1  A    between atoms: C_8  and  C_9 
REMARK       I    between atoms: C_9  and  N_10 
REMARK    2  A    between atoms: N_10  and  C_11 
REMARK    3  A    between atoms: C_18  and  C_19 
REMARK       I    between atoms: C_19  and  N_20 
ROOT
HETATM    1  C   UNL     1     -42.819  56.679 -57.020  1.00  0.00     0.035 A 
HETATM    2  C   UNL     1     -43.322  55.968 -58.117  1.00  0.00     0.046 A 
HETATM    3  C   UNL     1     -44.351  56.535 -58.903  1.00  0.00     0.030 A 
HETATM    4  C   UNL     1     -44.825  57.799 -58.576  1.00  0.00     0.063 A 
HETATM    5  N   UNL     1     -45.786  58.078 -59.507  1.00  0.00    -0.277 N 
HETATM    6  H   UNL     1     -46.342  58.922 -59.580  1.00  0.00     0.189 HD
HETATM    7  N   UNL     1     -45.999  57.097 -60.398  1.00  0.00    -0.168 NA
HETATM    8  C   UNL     1     -45.123  56.132 -60.034  1.00  0.00     0.156 A 
HETATM    9  C   UNL     1     -44.345  58.537 -57.493  1.00  0.00     0.034 A 
HETATM   10  C   UNL     1     -43.342  57.944 -56.717  1.00  0.00     0.032 A 
ENDROOT
BRANCH   1  11
HETATM   11  N   UNL     1     -41.819  56.184 -56.156  1.00  0.00    -0.327 N 
HETATM   12  C   UNL     1     -41.988  55.394 -55.033  1.00  0.00     0.231 C 
HETATM   13  O   UNL     1     -43.061  54.918 -54.664  1.00  0.00    -0.272 OA
HETATM   14  H   UNL     1     -40.868  56.398 -56.432  1.00  0.00     0.169 HD
BRANCH  12  15
HETATM   15  C   UNL     1     -40.729  55.140 -54.185  1.00  0.00     0.116 C 
HETATM   16  C   UNL     1     -40.961  54.868 -52.717  1.00  0.00    -0.012 A 
HETATM   17  C   UNL     1     -41.228  55.928 -51.834  1.00  0.00     0.011 A 
HETATM   18  C   UNL     1     -40.932  53.559 -52.224  1.00  0.00     0.075 A 
HETATM   19  C   UNL     1     -41.464  55.677 -50.482  1.00  0.00     0.001 A 
HETATM   20  C   UNL     1     -41.430  54.371 -50.000  1.00  0.00     0.003 A 
HETATM   21  C   UNL     1     -41.160  53.314 -50.870  1.00  0.00     0.037 A 
HETATM   22  O   UNL     1     -40.654  52.459 -52.986  1.00  0.00    -0.351 OA
HETATM   23  C   UNL     1     -40.622  52.666 -54.401  1.00  0.00     0.176 C 
HETATM   24  C   UNL     1     -39.946  53.971 -54.788  1.00  0.00     0.045 C 
ENDBRANCH  12  15
ENDBRANCH   1  11
BRANCH   8  25
HETATM   25  C   UNL     1     -45.054  54.856 -60.759  1.00  0.00     0.270 C 
HETATM   26  N   UNL     1     -45.149  53.752 -59.955  1.00  0.00    -0.365 N 
HETATM   27  H   UNL     1     -45.237  53.887 -58.955  1.00  0.00     0.159 HD
HETATM   28  H   UNL     1     -45.083  52.832 -60.362  1.00  0.00     0.159 HD
HETATM   29  O   UNL     1     -44.912  54.747 -61.972  1.00  0.00    -0.266 OA
ENDBRANCH   8  25
TORSDOF 3
ENDMDL
MODEL 2
REMARK VINA RESULT:      -8.8      2.753      8.407
REMARK  3 active torsions:
REMARK  status: ('A' for Active; 'I' for Inactive)
REMARK    1  A    between atoms: C_8  and  C_9 
REMARK       I    between atoms: C_9  and  N_10 
REMARK    2  A    between atoms: N_10  and  C_11 
REMARK    3  A    between atoms: C_18  and  C_19 
REMARK       I    between atoms: C_19  and  N_20 
ROOT
HETATM    1  C   UNL     1     -41.114  54.667 -54.735  1.00  0.00     0.035 A 
HETATM    2  C   UNL     1     -41.454  54.881 -53.393  1.00  0.00     0.046 A 
HETATM    3  C   UNL     1     -41.053  53.944 -52.414  1.00  0.00     0.030 A 
HETATM    4  C   UNL     1     -40.309  52.839 -52.809  1.00  0.00     0.063 A 
HETATM    5  N   UNL     1     -40.064  52.138 -51.661  1.00  0.00    -0.277 N 
HETATM    6  H   UNL     1     -39.541  51.275 -51.570  1.00  0.00     0.189 HD
HETATM    7  N   UNL     1     -40.602  52.676 -50.555  1.00  0.00    -0.168 NA
HETATM    8  C   UNL     1     -41.223  53.791 -51.005  1.00  0.00     0.156 A 
HETATM    9  C   UNL     1     -39.951  52.596 -54.136  1.00  0.00     0.034 A 
HETATM   10  C   UNL     1     -40.379  53.526 -55.089  1.00  0.00     0.032 A 
ENDROOT
BRANCH   1  11
HETATM   11  N   UNL     1     -41.498  55.525 -55.788  1.00  0.00    -0.327 N 
HETATM   12  C   UNL     1     -42.578  55.384 -56.641  1.00  0.00     0.231 C 
HETATM   13  O   UNL     1     -43.440  54.512 -56.544  1.00  0.00    -0.272 OA
HETATM   14  H   UNL     1     -40.937  56.362 -55.887  1.00  0.00     0.169 HD
BRANCH  12  15
HETATM   15  C   UNL     1     -42.659  56.386 -57.806  1.00  0.00     0.116 C 
HETATM   16  C   UNL     1     -43.809  56.195 -58.768  1.00  0.00    -0.012 A 
HETATM   17  C   UNL     1     -43.750  55.196 -59.753  1.00  0.00     0.011 A 
HETATM   18  C   UNL     1     -44.952  56.996 -58.675  1.00  0.00     0.075 A 
HETATM   19  C   UNL     1     -44.820  55.004 -60.628  1.00  0.00     0.001 A 
HETATM   20  C   UNL     1     -45.952  55.808 -60.530  1.00  0.00     0.003 A 
HETATM   21  C   UNL     1     -46.016  56.806 -59.558  1.00  0.00     0.037 A 
HETATM   22  O   UNL     1     -45.104  58.014 -57.775  1.00  0.00    -0.351 OA
HETATM   23  C   UNL     1     -44.121  58.089 -56.739  1.00  0.00     0.176 C 
HETATM   24  C   UNL     1     -42.715  57.808 -57.242  1.00  0.00     0.045 C 
ENDBRANCH  12  15
ENDBRANCH   1  11
BRANCH   8  25
HETATM   25  C   UNL     1     -41.968  54.667 -50.091  1.00  0.00     0.270 C 
HETATM   26  N   UNL     1     -43.318  54.692 -50.317  1.00  0.00    -0.365 N 
HETATM   27  H   UNL     1     -43.691  54.140 -51.081  1.00  0.00     0.159 HD
HETATM   28  H   UNL     1     -43.906  55.287 -49.756  1.00  0.00     0.159 HD
HETATM   29  O   UNL     1     -41.462  55.343 -49.201  1.00  0.00    -0.266 OA
ENDBRANCH   8  25
TORSDOF 3
ENDMDL
MODEL 3
REMARK VINA RESULT:      -8.5      2.894      8.067
REMARK  3 active torsions:
REMARK  status: ('A' for Active; 'I' for Inactive)
REMARK    1  A    between atoms: C_8  and  C_9 
REMARK       I    between atoms: C_9  and  N_10 
REMARK    2  A    between atoms: N_10  and  C_11 
REMARK    3  A    between atoms: C_18  and  C_19 
REMARK       I    between atoms: C_19  and  N_20 
ROOT
HETATM    1  C   UNL     1     -41.166  54.922 -54.550  1.00  0.00     0.035 A 
HETATM    2  C   UNL     1     -40.794  53.572 -54.501  1.00  0.00     0.046 A 
HETATM    3  C   UNL     1     -40.464  52.985 -53.258  1.00  0.00     0.030 A 
HETATM    4  C   UNL     1     -40.539  53.761 -52.109  1.00  0.00     0.063 A 
HETATM    5  N   UNL     1     -40.183  52.929 -51.085  1.00  0.00    -0.277 N 
HETATM    6  H   UNL     1     -40.132  53.157 -50.099  1.00  0.00     0.189 HD
HETATM    7  N   UNL     1     -39.860  51.683 -51.467  1.00  0.00    -0.168 NA
HETATM    8  C   UNL     1     -40.023  51.703 -52.810  1.00  0.00     0.156 A 
HETATM    9  C   UNL     1     -40.908  55.107 -52.121  1.00  0.00     0.034 A 
HETATM   10  C   UNL     1     -41.207  55.672 -53.366  1.00  0.00     0.032 A 
ENDROOT
BRANCH   1  11
HETATM   11  N   UNL     1     -41.477  55.606 -55.745  1.00  0.00    -0.327 N 
HETATM   12  C   UNL     1     -42.566  55.405 -56.574  1.00  0.00     0.231 C 
HETATM   13  O   UNL     1     -43.498  54.639 -56.335  1.00  0.00    -0.272 OA
HETATM   14  H   UNL     1     -40.848  56.363 -55.984  1.00  0.00     0.169 HD
BRANCH  12  15
HETATM   15  C   UNL     1     -42.564  56.185 -57.901  1.00  0.00     0.116 C 
HETATM   16  C   UNL     1     -43.786  56.018 -58.771  1.00  0.00    -0.012 A 
HETATM   17  C   UNL     1     -43.945  54.865 -59.558  1.00  0.00     0.011 A 
HETATM   18  C   UNL     1     -44.784  57.000 -58.790  1.00  0.00     0.075 A 
HETATM   19  C   UNL     1     -45.085  54.699 -60.346  1.00  0.00     0.001 A 
HETATM   20  C   UNL     1     -46.070  55.683 -60.360  1.00  0.00     0.003 A 
HETATM   21  C   UNL     1     -45.917  56.833 -59.586  1.00  0.00     0.037 A 
HETATM   22  O   UNL     1     -44.720  58.171 -58.089  1.00  0.00    -0.351 OA
HETATM   23  C   UNL     1     -43.675  58.266 -57.117  1.00  0.00     0.176 C 
HETATM   24  C   UNL     1     -42.363  57.674 -57.606  1.00  0.00     0.045 C 
ENDBRANCH  12  15
ENDBRANCH   1  11
BRANCH   8  25
HETATM   25  C   UNL     1     -39.742  50.515 -53.628  1.00  0.00     0.270 C 
HETATM   26  N   UNL     1     -39.500  49.381 -52.899  1.00  0.00    -0.365 N 
HETATM   27  H   UNL     1     -39.514  49.443 -51.888  1.00  0.00     0.159 HD
HETATM   28  H   UNL     1     -39.271  48.523 -53.375  1.00  0.00     0.159 HD
HETATM   29  O   UNL     1     -39.705  50.501 -54.853  1.00  0.00    -0.266 OA
ENDBRANCH   8  25
TORSDOF 3
ENDMDL
MODEL 4
REMARK VINA RESULT:      -8.5      2.257      3.441
REMARK  3 active torsions:
REMARK  status: ('A' for Active; 'I' for Inactive)
REMARK    1  A    between atoms: C_8  and  C_9 
REMARK       I    between atoms: C_9  and  N_10 
REMARK    2  A    between atoms: N_10  and  C_11 
REMARK    3  A    between atoms: C_18  and  C_19 
REMARK       I    between atoms: C_19  and  N_20 
ROOT
HETATM    1  C   UNL     1     -42.384  57.271 -55.458  1.00  0.00     0.035 A 
HETATM    2  C   UNL     1     -42.540  57.153 -56.845  1.00  0.00     0.046 A 
HETATM    3  C   UNL     1     -42.433  58.304 -57.659  1.00  0.00     0.030 A 
HETATM    4  C   UNL     1     -42.152  59.525 -57.060  1.00  0.00     0.063 A 
HETATM    5  N   UNL     1     -42.096  60.427 -58.085  1.00  0.00    -0.277 N 
HETATM    6  H   UNL     1     -41.906  61.421 -58.017  1.00  0.00     0.189 HD
HETATM    7  N   UNL     1     -42.339  59.908 -59.298  1.00  0.00    -0.168 NA
HETATM    8  C   UNL     1     -42.555  58.594 -59.051  1.00  0.00     0.156 A 
HETATM    9  C   UNL     1     -41.988  59.678 -55.682  1.00  0.00     0.034 A 
HETATM   10  C   UNL     1     -42.122  58.528 -54.895  1.00  0.00     0.032 A 
ENDROOT
BRANCH   1  11
HETATM   11  N   UNL     1     -42.508  56.189 -54.560  1.00  0.00    -0.327 N 
HETATM   12  C   UNL     1     -41.532  55.283 -54.188  1.00  0.00     0.231 C 
HETATM   13  O   UNL     1     -40.350  55.346 -54.527  1.00  0.00    -0.272 OA
HETATM   14  H   UNL     1     -43.410  56.109 -54.105  1.00  0.00     0.169 HD
BRANCH  12  15
HETATM   15  C   UNL     1     -41.995  54.103 -53.316  1.00  0.00     0.116 C 
HETATM   16  C   UNL     1     -41.071  52.909 -53.268  1.00  0.00    -0.012 A 
HETATM   17  C   UNL     1     -41.043  51.992 -54.331  1.00  0.00     0.011 A 
HETATM   18  C   UNL     1     -40.218  52.715 -52.176  1.00  0.00     0.075 A 
HETATM   19  C   UNL     1     -40.173  50.900 -54.299  1.00  0.00     0.001 A 
HETATM   20  C   UNL     1     -39.331  50.714 -53.206  1.00  0.00     0.003 A 
HETATM   21  C   UNL     1     -39.357  51.617 -52.144  1.00  0.00     0.037 A 
HETATM   22  O   UNL     1     -40.183  53.526 -51.077  1.00  0.00    -0.351 OA
HETATM   23  C   UNL     1     -40.902  54.758 -51.182  1.00  0.00     0.176 C 
HETATM   24  C   UNL     1     -42.238  54.600 -51.889  1.00  0.00     0.045 C 
ENDBRANCH  12  15
ENDBRANCH   1  11
BRANCH   8  25
HETATM   25  C   UNL     1     -42.884  57.661 -60.137  1.00  0.00     0.270 C 
HETATM   26  N   UNL     1     -44.121  57.861 -60.690  1.00  0.00    -0.365 N 
HETATM   27  H   UNL     1     -44.706  58.598 -60.313  1.00  0.00     0.159 HD
HETATM   28  H   UNL     1     -44.443  57.250 -61.423  1.00  0.00     0.159 HD
HETATM   29  O   UNL     1     -42.151  56.762 -60.533  1.00  0.00    -0.266 OA
ENDBRANCH   8  25
TORSDOF 3
ENDMDL
MODEL 5
REMARK VINA RESULT:      -8.2      2.727      4.179
REMARK  3 active torsions:
REMARK  status: ('A' for Active; 'I' for Inactive)
REMARK    1  A    between atoms: C_8  and  C_9 
REMARK       I    between atoms: C_9  and  N_10 
REMARK    2  A    between atoms: N_10  and  C_11 
REMARK    3  A    between atoms: C_18  and  C_19 
REMARK       I    between atoms: C_19  and  N_20 
ROOT
HETATM    1  C   UNL     1     -42.902  56.442 -57.400  1.00  0.00     0.035 A 
HETATM    2  C   UNL     1     -42.801  57.837 -57.309  1.00  0.00     0.046 A 
HETATM    3  C   UNL     1     -42.562  58.596 -58.478  1.00  0.00     0.030 A 
HETATM    4  C   UNL     1     -42.454  57.936 -59.695  1.00  0.00     0.063 A 
HETATM    5  N   UNL     1     -42.242  58.918 -60.622  1.00  0.00    -0.277 N 
HETATM    6  H   UNL     1     -42.122  58.801 -61.622  1.00  0.00     0.189 HD
HETATM    7  N   UNL     1     -42.179  60.159 -60.114  1.00  0.00    -0.168 NA
HETATM    8  C   UNL     1     -42.369  59.976 -58.787  1.00  0.00     0.156 A 
HETATM    9  C   UNL     1     -42.552  56.549 -59.822  1.00  0.00     0.034 A 
HETATM   10  C   UNL     1     -42.766  55.818 -58.647  1.00  0.00     0.032 A 
ENDROOT
BRANCH   1  11
HETATM   11  N   UNL     1     -43.104  55.597 -56.287  1.00  0.00    -0.327 N 
HETATM   12  C   UNL     1     -42.160  55.161 -55.376  1.00  0.00     0.231 C 
HETATM   13  O   UNL     1     -40.987  55.532 -55.348  1.00  0.00    -0.272 OA
HETATM   14  H   UNL     1     -44.066  55.327 -56.121  1.00  0.00     0.169 HD
BRANCH  12  15
HETATM   15  C   UNL     1     -42.633  54.109 -54.357  1.00  0.00     0.116 C 
HETATM   16  C   UNL     1     -41.549  53.296 -53.689  1.00  0.00    -0.012 A 
HETATM   17  C   UNL     1     -40.943  52.228 -54.370  1.00  0.00     0.011 A 
HETATM   18  C   UNL     1     -41.123  53.610 -52.394  1.00  0.00     0.075 A 
HETATM   19  C   UNL     1     -39.926  51.490 -53.763  1.00  0.00     0.001 A 
HETATM   20  C   UNL     1     -39.511  51.808 -52.472  1.00  0.00     0.003 A 
HETATM   21  C   UNL     1     -40.112  52.864 -51.787  1.00  0.00     0.037 A 
HETATM   22  O   UNL     1     -41.661  54.608 -51.630  1.00  0.00    -0.351 OA
HETATM   23  C   UNL     1     -42.547  55.507 -52.303  1.00  0.00     0.176 C 
HETATM   24  C   UNL     1     -43.473  54.798 -53.279  1.00  0.00     0.045 C 
ENDBRANCH  12  15
ENDBRANCH   1  11
BRANCH   8  25
HETATM   25  C   UNL     1     -42.348  61.111 -57.853  1.00  0.00     0.270 C 
HETATM   26  N   UNL     1     -41.094  61.590 -57.586  1.00  0.00    -0.365 N 
HETATM   27  H   UNL     1     -40.299  61.135 -58.019  1.00  0.00     0.159 HD
HETATM   28  H   UNL     1     -40.980  62.350 -56.934  1.00  0.00     0.159 HD
HETATM   29  O   UNL     1     -43.341  61.603 -57.328  1.00  0.00    -0.266 OA
ENDBRANCH   8  25
TORSDOF 3
ENDMDL
MODEL 6
REMARK VINA RESULT:      -8.0      1.789      2.608
REMARK  3 active torsions:
REMARK  status: ('A' for Active; 'I' for Inactive)
REMARK    1  A    between atoms: C_8  and  C_9 
REMARK       I    between atoms: C_9  and  N_10 
REMARK    2  A    between atoms: N_10  and  C_11 
REMARK    3  A    between atoms: C_18  and  C_19 
REMARK       I    between atoms: C_19  and  N_20 
ROOT
HETATM    1  C   UNL     1     -43.061  56.292 -57.771  1.00  0.00     0.035 A 
HETATM    2  C   UNL     1     -44.082  57.245 -57.646  1.00  0.00     0.046 A 
HETATM    3  C   UNL     1     -44.986  57.441 -58.715  1.00  0.00     0.030 A 
HETATM    4  C   UNL     1     -44.850  56.666 -59.859  1.00  0.00     0.063 A 
HETATM    5  N   UNL     1     -45.857  57.068 -60.692  1.00  0.00    -0.277 N 
HETATM    6  H   UNL     1     -46.066  56.711 -61.617  1.00  0.00     0.189 HD
HETATM    7  N   UNL     1     -46.624  58.055 -60.201  1.00  0.00    -0.168 NA
HETATM    8  C   UNL     1     -46.094  58.301 -58.981  1.00  0.00     0.156 A 
HETATM    9  C   UNL     1     -43.848  55.707 -60.016  1.00  0.00     0.034 A 
HETATM   10  C   UNL     1     -42.951  55.547 -58.953  1.00  0.00     0.032 A 
ENDROOT
BRANCH   1  11
HETATM   11  N   UNL     1     -42.091  56.048 -56.776  1.00  0.00    -0.327 N 
HETATM   12  C   UNL     1     -42.244  55.328 -55.605  1.00  0.00     0.231 C 
HETATM   13  O   UNL     1     -43.255  54.698 -55.295  1.00  0.00    -0.272 OA
HETATM   14  H   UNL     1     -41.166  56.407 -56.980  1.00  0.00     0.169 HD
BRANCH  12  15
HETATM   15  C   UNL     1     -41.060  55.366 -54.623  1.00  0.00     0.116 C 
HETATM   16  C   UNL     1     -41.394  55.126 -53.170  1.00  0.00    -0.012 A 
HETATM   17  C   UNL     1     -41.951  56.154 -52.391  1.00  0.00     0.011 A 
HETATM   18  C   UNL     1     -41.171  53.873 -52.587  1.00  0.00     0.075 A 
HETATM   19  C   UNL     1     -42.281  55.927 -51.054  1.00  0.00     0.001 A 
HETATM   20  C   UNL     1     -42.053  54.678 -50.483  1.00  0.00     0.003 A 
HETATM   21  C   UNL     1     -41.494  53.654 -51.248  1.00  0.00     0.037 A 
HETATM   22  O   UNL     1     -40.609  52.813 -53.242  1.00  0.00    -0.351 OA
HETATM   23  C   UNL     1     -40.463  52.953 -54.658  1.00  0.00     0.176 C 
HETATM   24  C   UNL     1     -40.009  54.345 -55.066  1.00  0.00     0.045 C 
ENDBRANCH  12  15
ENDBRANCH   1  11
BRANCH   8  25
HETATM   25  C   UNL     1     -46.643  59.351 -58.112  1.00  0.00     0.270 C 
HETATM   26  N   UNL     1     -47.754  58.970 -57.409  1.00  0.00    -0.365 N 
HETATM   27  H   UNL     1     -48.115  58.033 -57.545  1.00  0.00     0.159 HD
HETATM   28  H   UNL     1     -48.216  59.634 -56.808  1.00  0.00     0.159 HD
HETATM   29  O   UNL     1     -46.186  60.484 -58.009  1.00  0.00    -0.266 OA
ENDBRANCH   8  25
TORSDOF 3
ENDMDL
MODEL 7
REMARK VINA RESULT:      -7.9     15.881     18.356
REMARK  3 active torsions:
REMARK  status: ('A' for Active; 'I' for Inactive)
REMARK    1  A    between atoms: C_8  and  C_9 
REMARK       I    between atoms: C_9  and  N_10 
REMARK    2  A    between atoms: N_10  and  C_11 
REMARK    3  A    between atoms: C_18  and  C_19 
REMARK       I    between atoms: C_19  and  N_20 
ROOT
HETATM    1  C   UNL     1     -36.309  40.041 -57.035  1.00  0.00     0.035 A 
HETATM    2  C   UNL     1     -36.963  40.109 -55.797  1.00  0.00     0.046 A 
HETATM    3  C   UNL     1     -36.547  41.063 -54.841  1.00  0.00     0.030 A 
HETATM    4  C   UNL     1     -35.508  41.927 -55.164  1.00  0.00     0.063 A 
HETATM    5  N   UNL     1     -35.347  42.726 -54.067  1.00  0.00    -0.277 N 
HETATM    6  H   UNL     1     -34.679  43.479 -53.950  1.00  0.00     0.189 HD
HETATM    7  N   UNL     1     -36.174  42.445 -53.047  1.00  0.00    -0.168 NA
HETATM    8  C   UNL     1     -36.919  41.414 -53.508  1.00  0.00     0.156 A 
HETATM    9  C   UNL     1     -34.837  41.889 -56.387  1.00  0.00     0.034 A 
HETATM   10  C   UNL     1     -35.251  40.920 -57.308  1.00  0.00     0.032 A 
ENDROOT
BRANCH   1  11
HETATM   11  N   UNL     1     -36.627  39.101 -58.039  1.00  0.00    -0.327 N 
HETATM   12  C   UNL     1     -37.728  39.099 -58.876  1.00  0.00     0.231 C 
HETATM   13  O   UNL     1     -38.569  39.995 -58.931  1.00  0.00    -0.272 OA
HETATM   14  H   UNL     1     -35.934  38.377 -58.185  1.00  0.00     0.169 HD
BRANCH  12  15
HETATM   15  C   UNL     1     -37.903  37.857 -59.766  1.00  0.00     0.116 C 
HETATM   16  C   UNL     1     -39.196  37.773 -60.543  1.00  0.00    -0.012 A 
HETATM   17  C   UNL     1     -40.381  37.369 -59.906  1.00  0.00     0.011 A 
HETATM   18  C   UNL     1     -39.233  38.116 -61.899  1.00  0.00     0.075 A 
HETATM   19  C   UNL     1     -41.581  37.313 -60.617  1.00  0.00     0.001 A 
HETATM   20  C   UNL     1     -41.606  37.654 -61.967  1.00  0.00     0.003 A 
HETATM   21  C   UNL     1     -40.433  38.050 -62.608  1.00  0.00     0.037 A 
HETATM   22  O   UNL     1     -38.137  38.493 -62.624  1.00  0.00    -0.351 OA
HETATM   23  C   UNL     1     -36.949  38.764 -61.875  1.00  0.00     0.176 C 
HETATM   24  C   UNL     1     -36.729  37.771 -60.745  1.00  0.00     0.045 C 
ENDBRANCH  12  15
ENDBRANCH   1  11
BRANCH   8  25
HETATM   25  C   UNL     1     -37.948  40.785 -52.669  1.00  0.00     0.270 C 
HETATM   26  N   UNL     1     -39.005  41.603 -52.375  1.00  0.00    -0.365 N 
HETATM   27  H   UNL     1     -38.996  42.552 -52.729  1.00  0.00     0.159 HD
HETATM   28  H   UNL     1     -39.746  41.265 -51.781  1.00  0.00     0.159 HD
HETATM   29  O   UNL     1     -37.894  39.638 -52.238  1.00  0.00    -0.266 OA
ENDBRANCH   8  25
TORSDOF 3
ENDMDL
MODEL 8
REMARK VINA RESULT:      -7.8      2.944      8.433
REMARK  3 active torsions:
REMARK  status: ('A' for Active; 'I' for Inactive)
REMARK    1  A    between atoms: C_8  and  C_9 
REMARK       I    between atoms: C_9  and  N_10 
REMARK    2  A    between atoms: N_10  and  C_11 
REMARK    3  A    between atoms: C_18  and  C_19 
REMARK       I    between atoms: C_19  and  N_20 
ROOT
HETATM    1  C   UNL     1     -41.579  55.779 -54.579  1.00  0.00     0.035 A 
HETATM    2  C   UNL     1     -41.323  56.707 -53.560  1.00  0.00     0.046 A 
HETATM    3  C   UNL     1     -41.325  56.280 -52.213  1.00  0.00     0.030 A 
HETATM    4  C   UNL     1     -41.562  54.941 -51.934  1.00  0.00     0.063 A 
HETATM    5  N   UNL     1     -41.487  54.834 -50.574  1.00  0.00    -0.277 N 
HETATM    6  H   UNL     1     -41.603  53.995 -50.017  1.00  0.00     0.189 HD
HETATM    7  N   UNL     1     -41.247  55.991 -49.937  1.00  0.00    -0.168 NA
HETATM    8  C   UNL     1     -41.149  56.898 -50.938  1.00  0.00     0.156 A 
HETATM    9  C   UNL     1     -41.817  53.989 -52.923  1.00  0.00     0.034 A 
HETATM   10  C   UNL     1     -41.833  54.441 -54.248  1.00  0.00     0.032 A 
ENDROOT
BRANCH   1  11
HETATM   11  N   UNL     1     -41.633  56.115 -55.949  1.00  0.00    -0.327 N 
HETATM   12  C   UNL     1     -42.733  56.543 -56.671  1.00  0.00     0.231 C 
HETATM   13  O   UNL     1     -43.837  56.789 -56.188  1.00  0.00    -0.272 OA
HETATM   14  H   UNL     1     -40.746  56.080 -56.436  1.00  0.00     0.169 HD
BRANCH  12  15
HETATM   15  C   UNL     1     -42.538  56.678 -58.191  1.00  0.00     0.116 C 
HETATM   16  C   UNL     1     -43.724  56.304 -59.049  1.00  0.00    -0.012 A 
HETATM   17  C   UNL     1     -44.020  54.954 -59.300  1.00  0.00     0.011 A 
HETATM   18  C   UNL     1     -44.552  57.296 -59.585  1.00  0.00     0.075 A 
HETATM   19  C   UNL     1     -45.128  54.607 -60.074  1.00  0.00     0.001 A 
HETATM   20  C   UNL     1     -45.945  55.601 -60.606  1.00  0.00     0.003 A 
HETATM   21  C   UNL     1     -45.654  56.944 -60.366  1.00  0.00     0.037 A 
HETATM   22  O   UNL     1     -44.343  58.637 -59.429  1.00  0.00    -0.351 OA
HETATM   23  C   UNL     1     -43.348  59.011 -58.471  1.00  0.00     0.176 C 
HETATM   24  C   UNL     1     -42.122  58.114 -58.518  1.00  0.00     0.045 C 
ENDBRANCH  12  15
ENDBRANCH   1  11
BRANCH   8  25
HETATM   25  C   UNL     1     -40.908  58.319 -50.654  1.00  0.00     0.270 C 
HETATM   26  N   UNL     1     -42.039  59.027 -50.349  1.00  0.00    -0.365 N 
HETATM   27  H   UNL     1     -42.930  58.545 -50.358  1.00  0.00     0.159 HD
HETATM   28  H   UNL     1     -41.974  60.016 -50.167  1.00  0.00     0.159 HD
HETATM   29  O   UNL     1     -39.810  58.863 -50.692  1.00  0.00    -0.266 OA
ENDBRANCH   8  25
TORSDOF 3
ENDMDL
MODEL 9
REMARK VINA RESULT:      -7.7      4.597      7.582
REMARK  3 active torsions:
REMARK  status: ('A' for Active; 'I' for Inactive)
REMARK    1  A    between atoms: C_8  and  C_9 
REMARK       I    between atoms: C_9  and  N_10 
REMARK    2  A    between atoms: N_10  and  C_11 
REMARK    3  A    between atoms: C_18  and  C_19 
REMARK       I    between atoms: C_19  and  N_20 
ROOT
HETATM    1  C   UNL     1     -40.940  54.069 -53.343  1.00  0.00     0.035 A 
HETATM    2  C   UNL     1     -40.602  53.069 -52.421  1.00  0.00     0.046 A 
HETATM    3  C   UNL     1     -40.156  51.812 -52.890  1.00  0.00     0.030 A 
HETATM    4  C   UNL     1     -40.045  51.607 -54.259  1.00  0.00     0.063 A 
HETATM    5  N   UNL     1     -39.586  50.328 -54.398  1.00  0.00    -0.277 N 
HETATM    6  H   UNL     1     -39.382  49.840 -55.263  1.00  0.00     0.189 HD
HETATM    7  N   UNL     1     -39.410  49.670 -53.241  1.00  0.00    -0.168 NA
HETATM    8  C   UNL     1     -39.764  50.573 -52.298  1.00  0.00     0.156 A 
HETATM    9  C   UNL     1     -40.371  52.581 -55.204  1.00  0.00     0.034 A 
HETATM   10  C   UNL     1     -40.831  53.810 -54.716  1.00  0.00     0.032 A 
ENDROOT
BRANCH   1  11
HETATM   11  N   UNL     1     -41.428  55.341 -52.975  1.00  0.00    -0.327 N 
HETATM   12  C   UNL     1     -42.698  55.850 -53.177  1.00  0.00     0.231 C 
HETATM   13  O   UNL     1     -43.644  55.214 -53.640  1.00  0.00    -0.272 OA
HETATM   14  H   UNL     1     -40.775  55.920 -52.460  1.00  0.00     0.169 HD
BRANCH  12  15
HETATM   15  C   UNL     1     -42.901  57.333 -52.820  1.00  0.00     0.116 C 
HETATM   16  C   UNL     1     -41.762  58.003 -52.090  1.00  0.00    -0.012 A 
HETATM   17  C   UNL     1     -41.582  57.793 -50.713  1.00  0.00     0.011 A 
HETATM   18  C   UNL     1     -40.862  58.824 -52.778  1.00  0.00     0.075 A 
HETATM   19  C   UNL     1     -40.516  58.393 -50.040  1.00  0.00     0.001 A 
HETATM   20  C   UNL     1     -39.627  59.210 -50.734  1.00  0.00     0.003 A 
HETATM   21  C   UNL     1     -39.803  59.429 -52.100  1.00  0.00     0.037 A 
HETATM   22  O   UNL     1     -40.958  59.120 -54.109  1.00  0.00    -0.351 OA
HETATM   23  C   UNL     1     -41.906  58.353 -54.857  1.00  0.00     0.176 C 
HETATM   24  C   UNL     1     -43.202  58.120 -54.098  1.00  0.00     0.045 C 
ENDBRANCH  12  15
ENDBRANCH   1  11
BRANCH   8  25
HETATM   25  C   UNL     1     -39.734  50.231 -50.869  1.00  0.00     0.270 C 
HETATM   26  N   UNL     1     -38.871  49.216 -50.556  1.00  0.00    -0.365 N 
HETATM   27  H   UNL     1     -38.348  48.776 -51.305  1.00  0.00     0.159 HD
HETATM   28  H   UNL     1     -38.805  48.894 -49.603  1.00  0.00     0.159 HD
HETATM   29  O   UNL     1     -40.416  50.773 -50.006  1.00  0.00    -0.266 OA
ENDBRANCH   8  25
TORSDOF 3
ENDMDL
MODEL 10
REMARK VINA RESULT:      -7.6      4.798      7.784
REMARK  3 active torsions:
REMARK  status: ('A' for Active; 'I' for Inactive)
REMARK    1  A    between atoms: C_8  and  C_9 
REMARK       I    between atoms: C_9  and  N_10 
REMARK    2  A    between atoms: N_10  and  C_11 
REMARK    3  A    between atoms: C_18  and  C_19 
REMARK       I    between atoms: C_19  and  N_20 
ROOT
HETATM    1  C   UNL     1     -40.876  55.414 -53.609  1.00  0.00     0.035 A 
HETATM    2  C   UNL     1     -40.720  54.546 -52.520  1.00  0.00     0.046 A 
HETATM    3  C   UNL     1     -40.336  53.205 -52.747  1.00  0.00     0.030 A 
HETATM    4  C   UNL     1     -40.101  52.786 -54.050  1.00  0.00     0.063 A 
HETATM    5  N   UNL     1     -39.739  51.472 -53.949  1.00  0.00    -0.277 N 
HETATM    6  H   UNL     1     -39.489  50.845 -54.706  1.00  0.00     0.189 HD
HETATM    7  N   UNL     1     -39.739  50.989 -52.697  1.00  0.00    -0.168 NA
HETATM    8  C   UNL     1     -40.112  52.048 -51.941  1.00  0.00     0.156 A 
HETATM    9  C   UNL     1     -40.244  53.624 -55.158  1.00  0.00     0.034 A 
HETATM   10  C   UNL     1     -40.648  54.941 -54.909  1.00  0.00     0.032 A 
ENDROOT
BRANCH   1  11
HETATM   11  N   UNL     1     -41.291  56.757 -53.488  1.00  0.00    -0.327 N 
HETATM   12  C   UNL     1     -42.477  57.231 -52.956  1.00  0.00     0.231 C 
HETATM   13  O   UNL     1     -43.331  56.532 -52.412  1.00  0.00    -0.272 OA
HETATM   14  H   UNL     1     -40.609  57.446 -53.782  1.00  0.00     0.169 HD
BRANCH  12  15
HETATM   15  C   UNL     1     -42.733  58.741 -53.104  1.00  0.00     0.116 C 
HETATM   16  C   UNL     1     -43.741  59.340 -52.152  1.00  0.00    -0.012 A 
HETATM   17  C   UNL     1     -45.117  59.178 -52.383  1.00  0.00     0.011 A 
HETATM   18  C   UNL     1     -43.317  60.045 -51.020  1.00  0.00     0.075 A 
HETATM   19  C   UNL     1     -46.050  59.712 -51.492  1.00  0.00     0.001 A 
HETATM   20  C   UNL     1     -45.618  60.414 -50.370  1.00  0.00     0.003 A 
HETATM   21  C   UNL     1     -44.253  60.584 -50.137  1.00  0.00     0.037 A 
HETATM   22  O   UNL     1     -42.007  60.286 -50.714  1.00  0.00    -0.351 OA
HETATM   23  C   UNL     1     -41.039  59.573 -51.487  1.00  0.00     0.176 C 
HETATM   24  C   UNL     1     -41.407  59.491 -52.960  1.00  0.00     0.045 C 
ENDBRANCH  12  15
ENDBRANCH   1  11
BRANCH   8  25
HETATM   25  C   UNL     1     -40.259  51.927 -50.484  1.00  0.00     0.270 C 
HETATM   26  N   UNL     1     -40.307  50.635 -50.033  1.00  0.00    -0.365 N 
HETATM   27  H   UNL     1     -40.258  49.883 -50.711  1.00  0.00     0.159 HD
HETATM   28  H   UNL     1     -40.435  50.455 -49.050  1.00  0.00     0.159 HD
HETATM   29  O   UNL     1     -40.349  52.873 -49.709  1.00  0.00    -0.266 OA
ENDBRANCH   8  25
TORSDOF 3
ENDMDL
