MODEL 1
REMARK VINA RESULT:      -9.3      0.000      0.000
REMARK  5 active torsions:
REMARK  status: ('A' for Active; 'I' for Inactive)
REMARK    1  A    between atoms: C_2  and  C_3 
REMARK    2  A    between atoms: C_8  and  C_9 
REMARK       I    between atoms: C_9  and  N_10 
REMARK    3  A    between atoms: N_10  and  C_11 
REMARK    4  A    between atoms: C_11  and  C_12 
REMARK    5  A    between atoms: C_19  and  C_20 
ROOT
HETATM    1  C   UNL     1     -41.402  54.860 -53.589  1.00  0.00     0.118 C 
HETATM    2  N   UNL     1     -41.436  55.896 -52.559  1.00  0.00    -0.366 N 
HETATM    3  C   UNL     1     -42.520  56.668 -52.344  1.00  0.00     0.123 A 
HETATM    4  N   UNL     1     -43.558  56.691 -53.229  1.00  0.00    -0.240 N 
HETATM    5  N   UNL     1     -44.628  57.383 -52.804  1.00  0.00    -0.165 NA
HETATM    6  C   UNL     1     -44.208  57.917 -51.633  1.00  0.00     0.148 A 
HETATM    7  C   UNL     1     -42.877  57.513 -51.329  1.00  0.00     0.088 A 
HETATM    8  C   UNL     1     -43.578  55.901 -54.444  1.00  0.00     0.221 C 
HETATM    9  C   UNL     1     -42.799  54.600 -54.195  1.00  0.00     0.066 C 
HETATM   10  H   UNL     1     -40.647  55.908 -51.912  1.00  0.00     0.161 HD
ENDROOT
BRANCH   6  11
HETATM   11  C   UNL     1     -45.080  58.748 -50.788  1.00  0.00     0.272 C 
HETATM   12  N   UNL     1     -44.465  59.885 -50.318  1.00  0.00    -0.353 N 
HETATM   13  H   UNL     1     -43.549  60.079 -50.717  1.00  0.00     0.162 HD
HETATM   14  O   UNL     1     -46.254  58.466 -50.564  1.00  0.00    -0.266 OA
BRANCH  12  15
HETATM   15  C   UNL     1     -45.217  60.982 -49.749  1.00  0.00     0.155 C 
BRANCH  15  16
HETATM   16  C   UNL     1     -44.701  61.352 -48.361  1.00  0.00     0.139 C 
HETATM   17  O   UNL     1     -44.761  62.782 -48.166  1.00  0.00    -0.384 OA
HETATM   18  C   UNL     1     -45.164  63.035 -46.811  1.00  0.00     0.168 C 
HETATM   19  C   UNL     1     -45.219  61.697 -46.104  1.00  0.00     0.029 C 
HETATM   20  C   UNL     1     -45.525  60.750 -47.238  1.00  0.00     0.035 C 
ENDBRANCH  15  16
ENDBRANCH  12  15
ENDBRANCH   6  11
BRANCH   8  21
HETATM   21  C   UNL     1     -43.024  56.705 -55.597  1.00  0.00     0.409 C 
HETATM   22  F   UNL     1     -42.207  57.700 -55.192  1.00  0.00    -0.169 F 
HETATM   23  F   UNL     1     -42.352  55.960 -56.501  1.00  0.00    -0.169 F 
HETATM   24  F   UNL     1     -44.046  57.295 -56.272  1.00  0.00    -0.169 F 
ENDBRANCH   8  21
BRANCH   1  25
HETATM   25  C   UNL     1     -40.831  53.590 -52.973  1.00  0.00    -0.034 A 
HETATM   26  C   UNL     1     -40.674  53.471 -51.580  1.00  0.00     0.011 A 
HETATM   27  C   UNL     1     -40.139  52.311 -51.016  1.00  0.00     0.026 A 
HETATM   28  C   UNL     1     -39.748  51.251 -51.834  1.00  0.00     0.055 A 
HETATM   29  C   UNL     1     -39.896  51.353 -53.221  1.00  0.00     0.056 A 
HETATM   30 CL   UNL     1     -39.088  49.848 -51.071  1.00  0.00    -0.083 Cl
HETATM   31  C   UNL     1     -40.436  52.517 -53.785  1.00  0.00     0.034 A 
HETATM   32 CL   UNL     1     -39.428  50.085 -54.297  1.00  0.00    -0.083 Cl
ENDBRANCH   1  25
TORSDOF 5
ENDMDL
MODEL 2
REMARK VINA RESULT:      -8.8      4.052      7.148
REMARK  5 active torsions:
REMARK  status: ('A' for Active; 'I' for Inactive)
REMARK    1  A    between atoms: C_2  and  C_3 
REMARK    2  A    between atoms: C_8  and  C_9 
REMARK       I    between atoms: C_9  and  N_10 
REMARK    3  A    between atoms: N_10  and  C_11 
REMARK    4  A    between atoms: C_11  and  C_12 
REMARK    5  A    between atoms: C_19  and  C_20 
ROOT
HETATM    1  C   UNL     1     -42.246  54.873 -52.433  1.00  0.00     0.118 C 
HETATM    2  N   UNL     1     -42.681  54.790 -53.825  1.00  0.00    -0.366 N 
HETATM    3  C   UNL     1     -42.578  55.827 -54.679  1.00  0.00     0.123 A 
HETATM    4  N   UNL     1     -42.286  57.084 -54.233  1.00  0.00    -0.240 N 
HETATM    5  N   UNL     1     -42.064  57.976 -55.212  1.00  0.00    -0.165 NA
HETATM    6  C   UNL     1     -42.333  57.277 -56.339  1.00  0.00     0.148 A 
HETATM    7  C   UNL     1     -42.689  55.931 -56.039  1.00  0.00     0.088 A 
HETATM    8  C   UNL     1     -42.067  57.395 -52.835  1.00  0.00     0.221 C 
HETATM    9  C   UNL     1     -41.447  56.165 -52.152  1.00  0.00     0.066 C 
HETATM   10  H   UNL     1     -42.932  53.859 -54.158  1.00  0.00     0.161 HD
ENDROOT
BRANCH   6  11
HETATM   11  C   UNL     1     -42.194  57.862 -57.682  1.00  0.00     0.272 C 
HETATM   12  N   UNL     1     -42.387  56.954 -58.697  1.00  0.00    -0.353 N 
HETATM   13  H   UNL     1     -42.733  56.042 -58.404  1.00  0.00     0.162 HD
HETATM   14  O   UNL     1     -41.968  59.054 -57.867  1.00  0.00    -0.266 OA
BRANCH  12  15
HETATM   15  C   UNL     1     -42.613  57.371 -60.064  1.00  0.00     0.155 C 
BRANCH  15  16
HETATM   16  C   UNL     1     -44.015  56.998 -60.537  1.00  0.00     0.139 C 
HETATM   17  O   UNL     1     -44.053  55.617 -60.959  1.00  0.00    -0.384 OA
HETATM   18  C   UNL     1     -45.304  55.052 -60.538  1.00  0.00     0.168 C 
HETATM   19  C   UNL     1     -46.129  56.180 -59.951  1.00  0.00     0.029 C 
HETATM   20  C   UNL     1     -45.065  57.124 -59.449  1.00  0.00     0.035 C 
ENDBRANCH  15  16
ENDBRANCH  12  15
ENDBRANCH   6  11
BRANCH   8  21
HETATM   21  C   UNL     1     -43.360  57.834 -52.189  1.00  0.00     0.409 C 
HETATM   22  F   UNL     1     -43.486  59.177 -52.140  1.00  0.00    -0.169 F 
HETATM   23  F   UNL     1     -44.461  57.337 -52.792  1.00  0.00    -0.169 F 
HETATM   24  F   UNL     1     -43.397  57.395 -50.903  1.00  0.00    -0.169 F 
ENDBRANCH   8  21
BRANCH   1  25
HETATM   25  C   UNL     1     -41.413  53.639 -52.115  1.00  0.00    -0.034 A 
HETATM   26  C   UNL     1     -41.139  53.276 -50.785  1.00  0.00     0.011 A 
HETATM   27  C   UNL     1     -40.364  52.151 -50.494  1.00  0.00     0.026 A 
HETATM   28  C   UNL     1     -39.846  51.371 -51.528  1.00  0.00     0.055 A 
HETATM   29  C   UNL     1     -40.107  51.719 -52.857  1.00  0.00     0.056 A 
HETATM   30 CL   UNL     1     -38.890  49.998 -51.098  1.00  0.00    -0.083 Cl
HETATM   31  C   UNL     1     -40.888  52.847 -53.148  1.00  0.00     0.034 A 
HETATM   32 CL   UNL     1     -39.494  50.806 -54.190  1.00  0.00    -0.083 Cl
ENDBRANCH   1  25
TORSDOF 5
ENDMDL
MODEL 3
REMARK VINA RESULT:      -8.8      1.830      2.082
REMARK  5 active torsions:
REMARK  status: ('A' for Active; 'I' for Inactive)
REMARK    1  A    between atoms: C_2  and  C_3 
REMARK    2  A    between atoms: C_8  and  C_9 
REMARK       I    between atoms: C_9  and  N_10 
REMARK    3  A    between atoms: N_10  and  C_11 
REMARK    4  A    between atoms: C_11  and  C_12 
REMARK    5  A    between atoms: C_19  and  C_20 
ROOT
HETATM    1  C   UNL     1     -41.199  54.635 -54.673  1.00  0.00     0.118 C 
HETATM    2  N   UNL     1     -40.592  55.874 -54.191  1.00  0.00    -0.366 N 
HETATM    3  C   UNL     1     -41.305  57.000 -53.992  1.00  0.00     0.123 A 
HETATM    4  N   UNL     1     -42.583  57.119 -54.455  1.00  0.00    -0.240 N 
HETATM    5  N   UNL     1     -43.215  58.231 -54.046  1.00  0.00    -0.165 NA
HETATM    6  C   UNL     1     -42.253  58.907 -53.375  1.00  0.00     0.148 A 
HETATM    7  C   UNL     1     -41.031  58.176 -53.348  1.00  0.00     0.088 A 
HETATM    8  C   UNL     1     -43.262  56.064 -55.181  1.00  0.00     0.221 C 
HETATM    9  C   UNL     1     -42.743  54.709 -54.674  1.00  0.00     0.066 C 
HETATM   10  H   UNL     1     -39.625  55.802 -53.873  1.00  0.00     0.161 HD
ENDROOT
BRANCH   6  11
HETATM   11  C   UNL     1     -42.510  60.199 -52.719  1.00  0.00     0.272 C 
HETATM   12  N   UNL     1     -42.731  60.091 -51.365  1.00  0.00    -0.353 N 
HETATM   13  H   UNL     1     -42.555  59.170 -50.968  1.00  0.00     0.162 HD
HETATM   14  O   UNL     1     -42.486  61.268 -53.323  1.00  0.00    -0.266 OA
BRANCH  12  15
HETATM   15  C   UNL     1     -42.683  61.241 -50.488  1.00  0.00     0.155 C 
BRANCH  15  16
HETATM   16  C   UNL     1     -44.084  61.734 -50.138  1.00  0.00     0.139 C 
HETATM   17  O   UNL     1     -44.829  60.697 -49.462  1.00  0.00    -0.384 OA
HETATM   18  C   UNL     1     -45.615  61.308 -48.428  1.00  0.00     0.168 C 
HETATM   19  C   UNL     1     -45.449  62.807 -48.567  1.00  0.00     0.029 C 
HETATM   20  C   UNL     1     -44.080  62.919 -49.189  1.00  0.00     0.035 C 
ENDBRANCH  15  16
ENDBRANCH  12  15
ENDBRANCH   6  11
BRANCH   8  21
HETATM   21  C   UNL     1     -43.068  56.247 -56.668  1.00  0.00     0.409 C 
HETATM   22  F   UNL     1     -41.953  56.947 -56.965  1.00  0.00    -0.169 F 
HETATM   23  F   UNL     1     -43.021  55.085 -57.353  1.00  0.00    -0.169 F 
HETATM   24  F   UNL     1     -44.114  56.950 -57.179  1.00  0.00    -0.169 F 
ENDBRANCH   8  21
BRANCH   1  25
HETATM   25  C   UNL     1     -40.710  53.489 -53.799  1.00  0.00    -0.034 A 
HETATM   26  C   UNL     1     -40.643  53.625 -52.401  1.00  0.00     0.011 A 
HETATM   27  C   UNL     1     -40.182  52.578 -51.600  1.00  0.00     0.026 A 
HETATM   28  C   UNL     1     -39.776  51.378 -52.183  1.00  0.00     0.055 A 
HETATM   29  C   UNL     1     -39.833  51.226 -53.572  1.00  0.00     0.056 A 
HETATM   30 CL   UNL     1     -39.210  50.126 -51.135  1.00  0.00    -0.083 Cl
HETATM   31  C   UNL     1     -40.300  52.277 -54.375  1.00  0.00     0.034 A 
HETATM   32 CL   UNL     1     -39.341  49.772 -54.365  1.00  0.00    -0.083 Cl
ENDBRANCH   1  25
TORSDOF 5
ENDMDL
MODEL 4
REMARK VINA RESULT:      -8.7      1.220      2.083
REMARK  5 active torsions:
REMARK  status: ('A' for Active; 'I' for Inactive)
REMARK    1  A    between atoms: C_2  and  C_3 
REMARK    2  A    between atoms: C_8  and  C_9 
REMARK       I    between atoms: C_9  and  N_10 
REMARK    3  A    between atoms: N_10  and  C_11 
REMARK    4  A    between atoms: C_11  and  C_12 
REMARK    5  A    between atoms: C_19  and  C_20 
ROOT
HETATM    1  C   UNL     1     -41.416  54.797 -53.597  1.00  0.00     0.118 C 
HETATM    2  N   UNL     1     -41.439  55.844 -52.579  1.00  0.00    -0.366 N 
HETATM    3  C   UNL     1     -42.521  56.617 -52.358  1.00  0.00     0.123 A 
HETATM    4  N   UNL     1     -43.570  56.629 -53.230  1.00  0.00    -0.240 N 
HETATM    5  N   UNL     1     -44.635  57.324 -52.799  1.00  0.00    -0.165 NA
HETATM    6  C   UNL     1     -44.202  57.871 -51.639  1.00  0.00     0.148 A 
HETATM    7  C   UNL     1     -42.866  57.472 -51.348  1.00  0.00     0.088 A 
HETATM    8  C   UNL     1     -43.604  55.826 -54.437  1.00  0.00     0.221 C 
HETATM    9  C   UNL     1     -42.820  54.528 -54.184  1.00  0.00     0.066 C 
HETATM   10  H   UNL     1     -40.641  55.863 -51.942  1.00  0.00     0.161 HD
ENDROOT
BRANCH   6  11
HETATM   11  C   UNL     1     -45.064  58.710 -50.793  1.00  0.00     0.272 C 
HETATM   12  N   UNL     1     -44.415  59.798 -50.258  1.00  0.00    -0.353 N 
HETATM   13  H   UNL     1     -43.476  59.964 -50.619  1.00  0.00     0.162 HD
HETATM   14  O   UNL     1     -46.257  58.475 -50.619  1.00  0.00    -0.266 OA
BRANCH  12  15
HETATM   15  C   UNL     1     -45.135  60.908 -49.672  1.00  0.00     0.155 C 
BRANCH  15  16
HETATM   16  C   UNL     1     -45.008  62.168 -50.524  1.00  0.00     0.139 C 
HETATM   17  O   UNL     1     -43.703  62.230 -51.140  1.00  0.00    -0.384 OA
HETATM   18  C   UNL     1     -43.857  62.747 -52.471  1.00  0.00     0.168 C 
HETATM   19  C   UNL     1     -45.309  63.150 -52.628  1.00  0.00     0.029 C 
HETATM   20  C   UNL     1     -46.004  62.217 -51.669  1.00  0.00     0.035 C 
ENDBRANCH  15  16
ENDBRANCH  12  15
ENDBRANCH   6  11
BRANCH   8  21
HETATM   21  C   UNL     1     -43.066  56.618 -55.605  1.00  0.00     0.409 C 
HETATM   22  F   UNL     1     -42.314  55.868 -56.439  1.00  0.00    -0.169 F 
HETATM   23  F   UNL     1     -44.027  57.217 -56.340  1.00  0.00    -0.169 F 
HETATM   24  F   UNL     1     -42.260  57.613 -55.146  1.00  0.00    -0.169 F 
ENDBRANCH   8  21
BRANCH   1  25
HETATM   25  C   UNL     1     -40.836  53.534 -52.975  1.00  0.00    -0.034 A 
HETATM   26  C   UNL     1     -40.678  53.423 -51.582  1.00  0.00     0.011 A 
HETATM   27  C   UNL     1     -40.134  52.270 -51.012  1.00  0.00     0.026 A 
HETATM   28  C   UNL     1     -39.735  51.209 -51.824  1.00  0.00     0.055 A 
HETATM   29  C   UNL     1     -39.884  51.303 -53.212  1.00  0.00     0.056 A 
HETATM   30 CL   UNL     1     -39.065  49.815 -51.055  1.00  0.00    -0.083 Cl
HETATM   31  C   UNL     1     -40.433  52.460 -53.783  1.00  0.00     0.034 A 
HETATM   32 CL   UNL     1     -39.406  50.033 -54.282  1.00  0.00    -0.083 Cl
ENDBRANCH   1  25
TORSDOF 5
ENDMDL
MODEL 5
REMARK VINA RESULT:      -8.4      4.486      6.916
REMARK  5 active torsions:
REMARK  status: ('A' for Active; 'I' for Inactive)
REMARK    1  A    between atoms: C_2  and  C_3 
REMARK    2  A    between atoms: C_8  and  C_9 
REMARK       I    between atoms: C_9  and  N_10 
REMARK    3  A    between atoms: N_10  and  C_11 
REMARK    4  A    between atoms: C_11  and  C_12 
REMARK    5  A    between atoms: C_19  and  C_20 
ROOT
HETATM    1  C   UNL     1     -41.985  54.767 -52.608  1.00  0.00     0.118 C 
HETATM    2  N   UNL     1     -42.753  54.480 -53.817  1.00  0.00    -0.366 N 
HETATM    3  C   UNL     1     -42.764  55.306 -54.882  1.00  0.00     0.123 A 
HETATM    4  N   UNL     1     -42.254  56.569 -54.801  1.00  0.00    -0.240 N 
HETATM    5  N   UNL     1     -42.195  57.214 -55.978  1.00  0.00    -0.165 NA
HETATM    6  C   UNL     1     -42.796  56.356 -56.835  1.00  0.00     0.148 A 
HETATM    7  C   UNL     1     -43.194  55.159 -56.172  1.00  0.00     0.088 A 
HETATM    8  C   UNL     1     -41.671  57.110 -53.589  1.00  0.00     0.221 C 
HETATM    9  C   UNL     1     -41.022  55.960 -52.803  1.00  0.00     0.066 C 
HETATM   10  H   UNL     1     -43.166  53.548 -53.872  1.00  0.00     0.161 HD
ENDROOT
BRANCH   6  11
HETATM   11  C   UNL     1     -42.935  56.644 -58.271  1.00  0.00     0.272 C 
HETATM   12  N   UNL     1     -41.988  57.520 -58.748  1.00  0.00    -0.353 N 
HETATM   13  H   UNL     1     -41.239  57.746 -58.096  1.00  0.00     0.162 HD
HETATM   14  O   UNL     1     -43.792  56.117 -58.974  1.00  0.00    -0.266 OA
BRANCH  12  15
HETATM   15  C   UNL     1     -41.744  57.687 -60.165  1.00  0.00     0.155 C 
BRANCH  15  16
HETATM   16  C   UNL     1     -42.209  59.056 -60.653  1.00  0.00     0.139 C 
HETATM   17  O   UNL     1     -43.628  59.040 -60.920  1.00  0.00    -0.384 OA
HETATM   18  C   UNL     1     -44.181  60.295 -60.493  1.00  0.00     0.168 C 
HETATM   19  C   UNL     1     -43.021  61.173 -60.071  1.00  0.00     0.029 C 
HETATM   20  C   UNL     1     -41.997  60.158 -59.631  1.00  0.00     0.035 C 
ENDBRANCH  15  16
ENDBRANCH  12  15
ENDBRANCH   6  11
BRANCH   8  21
HETATM   21  C   UNL     1     -42.719  57.849 -52.791  1.00  0.00     0.409 C 
HETATM   22  F   UNL     1     -42.740  59.172 -53.058  1.00  0.00    -0.169 F 
HETATM   23  F   UNL     1     -43.969  57.371 -52.969  1.00  0.00    -0.169 F 
HETATM   24  F   UNL     1     -42.449  57.726 -51.464  1.00  0.00    -0.169 F 
ENDBRANCH   8  21
BRANCH   1  25
HETATM   25  C   UNL     1     -41.220  53.510 -52.215  1.00  0.00    -0.034 A 
HETATM   26  C   UNL     1     -41.017  53.183 -50.862  1.00  0.00     0.011 A 
HETATM   27  C   UNL     1     -40.305  52.037 -50.501  1.00  0.00     0.026 A 
HETATM   28  C   UNL     1     -39.781  51.200 -51.486  1.00  0.00     0.055 A 
HETATM   29  C   UNL     1     -39.972  51.512 -52.836  1.00  0.00     0.056 A 
HETATM   30 CL   UNL     1     -38.905  49.803 -50.970  1.00  0.00    -0.083 Cl
HETATM   31  C   UNL     1     -40.690  52.661 -53.196  1.00  0.00     0.034 A 
HETATM   32 CL   UNL     1     -39.346  50.527 -54.110  1.00  0.00    -0.083 Cl
ENDBRANCH   1  25
TORSDOF 5
ENDMDL
MODEL 6
REMARK VINA RESULT:      -8.2      4.003      7.171
REMARK  5 active torsions:
REMARK  status: ('A' for Active; 'I' for Inactive)
REMARK    1  A    between atoms: C_2  and  C_3 
REMARK    2  A    between atoms: C_8  and  C_9 
REMARK       I    between atoms: C_9  and  N_10 
REMARK    3  A    between atoms: N_10  and  C_11 
REMARK    4  A    between atoms: C_11  and  C_12 
REMARK    5  A    between atoms: C_19  and  C_20 
ROOT
HETATM    1  C   UNL     1     -41.912  56.305 -52.224  1.00  0.00     0.118 C 
HETATM    2  N   UNL     1     -42.655  56.295 -53.482  1.00  0.00    -0.366 N 
HETATM    3  C   UNL     1     -42.537  57.274 -54.400  1.00  0.00     0.123 A 
HETATM    4  N   UNL     1     -41.902  58.446 -54.106  1.00  0.00    -0.240 N 
HETATM    5  N   UNL     1     -41.727  59.257 -55.163  1.00  0.00    -0.165 NA
HETATM    6  C   UNL     1     -42.378  58.613 -56.161  1.00  0.00     0.148 A 
HETATM    7  C   UNL     1     -42.925  57.378 -55.708  1.00  0.00     0.088 A 
HETATM    8  C   UNL     1     -41.316  58.724 -52.810  1.00  0.00     0.221 C 
HETATM    9  C   UNL     1     -40.823  57.402 -52.202  1.00  0.00     0.066 C 
HETATM   10  H   UNL     1     -43.160  55.434 -53.694  1.00  0.00     0.161 HD
ENDROOT
BRANCH   6  11
HETATM   11  C   UNL     1     -42.428  59.135 -57.535  1.00  0.00     0.272 C 
HETATM   12  N   UNL     1     -42.955  58.245 -58.441  1.00  0.00    -0.353 N 
HETATM   13  H   UNL     1     -43.368  57.407 -58.035  1.00  0.00     0.162 HD
HETATM   14  O   UNL     1     -42.067  60.272 -57.828  1.00  0.00    -0.266 OA
BRANCH  12  15
HETATM   15  C   UNL     1     -43.387  58.658 -59.758  1.00  0.00     0.155 C 
BRANCH  15  16
HETATM   16  C   UNL     1     -44.294  57.613 -60.402  1.00  0.00     0.139 C 
HETATM   17  O   UNL     1     -43.556  56.399 -60.665  1.00  0.00    -0.384 OA
HETATM   18  C   UNL     1     -44.413  55.281 -60.386  1.00  0.00     0.168 C 
HETATM   19  C   UNL     1     -45.785  55.839 -60.069  1.00  0.00     0.029 C 
HETATM   20  C   UNL     1     -45.455  57.202 -59.515  1.00  0.00     0.035 C 
ENDBRANCH  15  16
ENDBRANCH  12  15
ENDBRANCH   6  11
BRANCH   8  21
HETATM   21  C   UNL     1     -42.314  59.439 -51.929  1.00  0.00     0.409 C 
HETATM   22  F   UNL     1     -43.593  59.160 -52.261  1.00  0.00    -0.169 F 
HETATM   23  F   UNL     1     -42.161  59.174 -50.615  1.00  0.00    -0.169 F 
HETATM   24  F   UNL     1     -42.163  60.783 -52.069  1.00  0.00    -0.169 F 
ENDBRANCH   8  21
BRANCH   1  25
HETATM   25  C   UNL     1     -41.299  54.926 -52.018  1.00  0.00    -0.034 A 
HETATM   26  C   UNL     1     -40.951  54.476 -50.732  1.00  0.00     0.011 A 
HETATM   27  C   UNL     1     -40.376  53.217 -50.544  1.00  0.00     0.026 A 
HETATM   28  C   UNL     1     -40.137  52.387 -51.639  1.00  0.00     0.055 A 
HETATM   29  C   UNL     1     -40.475  52.820 -52.925  1.00  0.00     0.056 A 
HETATM   30 CL   UNL     1     -39.419  50.845 -51.336  1.00  0.00    -0.083 Cl
HETATM   31  C   UNL     1     -41.055  54.083 -53.112  1.00  0.00     0.034 A 
HETATM   32 CL   UNL     1     -40.203  51.850 -54.329  1.00  0.00    -0.083 Cl
ENDBRANCH   1  25
TORSDOF 5
ENDMDL
MODEL 7
REMARK VINA RESULT:      -8.2      4.718      6.721
REMARK  5 active torsions:
REMARK  status: ('A' for Active; 'I' for Inactive)
REMARK    1  A    between atoms: C_2  and  C_3 
REMARK    2  A    between atoms: C_8  and  C_9 
REMARK       I    between atoms: C_9  and  N_10 
REMARK    3  A    between atoms: N_10  and  C_11 
REMARK    4  A    between atoms: C_11  and  C_12 
REMARK    5  A    between atoms: C_19  and  C_20 
ROOT
HETATM    1  C   UNL     1     -41.829  54.784 -52.962  1.00  0.00     0.118 C 
HETATM    2  N   UNL     1     -42.760  54.400 -54.021  1.00  0.00    -0.366 N 
HETATM    3  C   UNL     1     -42.844  55.067 -55.189  1.00  0.00     0.123 A 
HETATM    4  N   UNL     1     -42.238  56.278 -55.356  1.00  0.00    -0.240 N 
HETATM    5  N   UNL     1     -42.278  56.744 -56.616  1.00  0.00    -0.165 NA
HETATM    6  C   UNL     1     -43.041  55.831 -57.261  1.00  0.00     0.148 A 
HETATM    7  C   UNL     1     -43.439  54.779 -56.387  1.00  0.00     0.088 A 
HETATM    8  C   UNL     1     -41.471  56.929 -54.312  1.00  0.00     0.221 C 
HETATM    9  C   UNL     1     -40.814  55.847 -53.440  1.00  0.00     0.066 C 
HETATM   10  H   UNL     1     -43.242  53.511 -53.888  1.00  0.00     0.161 HD
ENDROOT
BRANCH   6  11
HETATM   11  C   UNL     1     -43.336  55.926 -58.699  1.00  0.00     0.272 C 
HETATM   12  N   UNL     1     -44.650  56.227 -58.970  1.00  0.00    -0.353 N 
HETATM   13  H   UNL     1     -45.213  56.480 -58.160  1.00  0.00     0.162 HD
HETATM   14  O   UNL     1     -42.476  55.788 -59.565  1.00  0.00    -0.266 OA
BRANCH  12  15
HETATM   15  C   UNL     1     -45.079  56.677 -60.277  1.00  0.00     0.155 C 
BRANCH  15  16
HETATM   16  C   UNL     1     -45.726  58.057 -60.207  1.00  0.00     0.139 C 
HETATM   17  O   UNL     1     -47.068  57.959 -59.681  1.00  0.00    -0.384 OA
HETATM   18  C   UNL     1     -47.299  59.086 -58.823  1.00  0.00     0.168 C 
HETATM   19  C   UNL     1     -46.089  59.990 -58.936  1.00  0.00     0.029 C 
HETATM   20  C   UNL     1     -44.994  59.014 -59.283  1.00  0.00     0.035 C 
ENDBRANCH  15  16
ENDBRANCH  12  15
ENDBRANCH   6  11
BRANCH   8  21
HETATM   21  C   UNL     1     -42.356  57.863 -53.521  1.00  0.00     0.409 C 
HETATM   22  F   UNL     1     -42.076  57.850 -52.200  1.00  0.00    -0.169 F 
HETATM   23  F   UNL     1     -42.302  59.144 -53.942  1.00  0.00    -0.169 F 
HETATM   24  F   UNL     1     -43.653  57.473 -53.645  1.00  0.00    -0.169 F 
ENDBRANCH   8  21
BRANCH   1  25
HETATM   25  C   UNL     1     -41.115  53.531 -52.473  1.00  0.00    -0.034 A 
HETATM   26  C   UNL     1     -40.957  53.281 -51.098  1.00  0.00     0.011 A 
HETATM   27  C   UNL     1     -40.290  52.138 -50.650  1.00  0.00     0.026 A 
HETATM   28  C   UNL     1     -39.767  51.228 -51.567  1.00  0.00     0.055 A 
HETATM   29  C   UNL     1     -39.913  51.463 -52.939  1.00  0.00     0.056 A 
HETATM   30 CL   UNL     1     -38.949  49.840 -50.945  1.00  0.00    -0.083 Cl
HETATM   31  C   UNL     1     -40.585  52.609 -53.387  1.00  0.00     0.034 A 
HETATM   32 CL   UNL     1     -39.285  50.384 -54.134  1.00  0.00    -0.083 Cl
ENDBRANCH   1  25
TORSDOF 5
ENDMDL
MODEL 8
REMARK VINA RESULT:      -8.1      3.718      6.911
REMARK  5 active torsions:
REMARK  status: ('A' for Active; 'I' for Inactive)
REMARK    1  A    between atoms: C_2  and  C_3 
REMARK    2  A    between atoms: C_8  and  C_9 
REMARK       I    between atoms: C_9  and  N_10 
REMARK    3  A    between atoms: N_10  and  C_11 
REMARK    4  A    between atoms: C_11  and  C_12 
REMARK    5  A    between atoms: C_19  and  C_20 
ROOT
HETATM    1  C   UNL     1     -42.145  56.332 -51.690  1.00  0.00     0.118 C 
HETATM    2  N   UNL     1     -43.382  56.205 -52.459  1.00  0.00    -0.366 N 
HETATM    3  C   UNL     1     -43.748  57.104 -53.394  1.00  0.00     0.123 A 
HETATM    4  N   UNL     1     -43.110  58.306 -53.507  1.00  0.00    -0.240 N 
HETATM    5  N   UNL     1     -43.481  59.026 -54.579  1.00  0.00    -0.165 NA
HETATM    6  C   UNL     1     -44.483  58.291 -55.117  1.00  0.00     0.148 A 
HETATM    7  C   UNL     1     -44.697  57.092 -54.379  1.00  0.00     0.088 A 
HETATM    8  C   UNL     1     -42.010  58.701 -52.650  1.00  0.00     0.221 C 
HETATM    9  C   UNL     1     -41.226  57.441 -52.248  1.00  0.00     0.066 C 
HETATM   10  H   UNL     1     -43.882  55.323 -52.355  1.00  0.00     0.161 HD
ENDROOT
BRANCH   6  11
HETATM   11  C   UNL     1     -45.183  58.694 -56.346  1.00  0.00     0.272 C 
HETATM   12  N   UNL     1     -45.328  57.671 -57.254  1.00  0.00    -0.353 N 
HETATM   13  H   UNL     1     -45.065  56.748 -56.913  1.00  0.00     0.162 HD
HETATM   14  O   UNL     1     -45.626  59.826 -56.518  1.00  0.00    -0.266 OA
BRANCH  12  15
HETATM   15  C   UNL     1     -46.250  57.760 -58.366  1.00  0.00     0.155 C 
BRANCH  15  16
HETATM   16  C   UNL     1     -45.630  57.212 -59.649  1.00  0.00     0.139 C 
HETATM   17  O   UNL     1     -44.238  56.892 -59.439  1.00  0.00    -0.384 OA
HETATM   18  C   UNL     1     -43.939  55.685 -60.156  1.00  0.00     0.168 C 
HETATM   19  C   UNL     1     -45.175  55.323 -60.955  1.00  0.00     0.029 C 
HETATM   20  C   UNL     1     -46.279  55.925 -60.123  1.00  0.00     0.035 C 
ENDBRANCH  15  16
ENDBRANCH  12  15
ENDBRANCH   6  11
BRANCH   8  21
HETATM   21  C   UNL     1     -42.529  59.473 -51.460  1.00  0.00     0.409 C 
HETATM   22  F   UNL     1     -42.501  60.809 -51.655  1.00  0.00    -0.169 F 
HETATM   23  F   UNL     1     -43.785  59.134 -51.101  1.00  0.00    -0.169 F 
HETATM   24  F   UNL     1     -41.742  59.225 -50.379  1.00  0.00    -0.169 F 
ENDBRANCH   8  21
BRANCH   1  25
HETATM   25  C   UNL     1     -41.437  54.984 -51.695  1.00  0.00    -0.034 A 
HETATM   26  C   UNL     1     -40.950  54.420 -50.502  1.00  0.00     0.011 A 
HETATM   27  C   UNL     1     -40.288  53.190 -50.508  1.00  0.00     0.026 A 
HETATM   28  C   UNL     1     -40.098  52.504 -51.708  1.00  0.00     0.055 A 
HETATM   29  C   UNL     1     -40.574  53.052 -52.904  1.00  0.00     0.056 A 
HETATM   30 CL   UNL     1     -39.266  50.992 -51.645  1.00  0.00    -0.083 Cl
HETATM   31  C   UNL     1     -41.241  54.285 -52.895  1.00  0.00     0.034 A 
HETATM   32 CL   UNL     1     -40.369  52.264 -54.427  1.00  0.00    -0.083 Cl
ENDBRANCH   1  25
TORSDOF 5
ENDMDL
MODEL 9
REMARK VINA RESULT:      -8.0      1.860      2.576
REMARK  5 active torsions:
REMARK  status: ('A' for Active; 'I' for Inactive)
REMARK    1  A    between atoms: C_2  and  C_3 
REMARK    2  A    between atoms: C_8  and  C_9 
REMARK       I    between atoms: C_9  and  N_10 
REMARK    3  A    between atoms: N_10  and  C_11 
REMARK    4  A    between atoms: C_11  and  C_12 
REMARK    5  A    between atoms: C_19  and  C_20 
ROOT
HETATM    1  C   UNL     1     -41.378  54.715 -53.969  1.00  0.00     0.118 C 
HETATM    2  N   UNL     1     -41.481  55.838 -53.038  1.00  0.00    -0.366 N 
HETATM    3  C   UNL     1     -42.594  56.590 -52.932  1.00  0.00     0.123 A 
HETATM    4  N   UNL     1     -43.598  56.501 -53.852  1.00  0.00    -0.240 N 
HETATM    5  N   UNL     1     -44.703  57.193 -53.529  1.00  0.00    -0.165 NA
HETATM    6  C   UNL     1     -44.344  57.842 -52.396  1.00  0.00     0.148 A 
HETATM    7  C   UNL     1     -43.014  57.510 -52.010  1.00  0.00     0.088 A 
HETATM    8  C   UNL     1     -43.549  55.606 -54.991  1.00  0.00     0.221 C 
HETATM    9  C   UNL     1     -42.742  54.358 -54.599  1.00  0.00     0.066 C 
HETATM   10  H   UNL     1     -40.718  55.932 -52.368  1.00  0.00     0.161 HD
ENDROOT
BRANCH   6  11
HETATM   11  C   UNL     1     -45.271  58.716 -51.661  1.00  0.00     0.272 C 
HETATM   12  N   UNL     1     -45.548  59.894 -52.315  1.00  0.00    -0.353 N 
HETATM   13  H   UNL     1     -45.197  59.954 -53.270  1.00  0.00     0.162 HD
HETATM   14  O   UNL     1     -45.775  58.398 -50.588  1.00  0.00    -0.266 OA
BRANCH  12  15
HETATM   15  C   UNL     1     -46.660  60.738 -51.936  1.00  0.00     0.155 C 
BRANCH  15  16
HETATM   16  C   UNL     1     -46.232  62.195 -51.792  1.00  0.00     0.139 C 
HETATM   17  O   UNL     1     -45.623  62.417 -50.501  1.00  0.00    -0.384 OA
HETATM   18  C   UNL     1     -44.521  63.321 -50.671  1.00  0.00     0.168 C 
HETATM   19  C   UNL     1     -44.541  63.783 -52.113  1.00  0.00     0.029 C 
HETATM   20  C   UNL     1     -45.190  62.615 -52.812  1.00  0.00     0.035 C 
ENDBRANCH  15  16
ENDBRANCH  12  15
ENDBRANCH   6  11
BRANCH   8  21
HETATM   21  C   UNL     1     -42.974  56.322 -56.191  1.00  0.00     0.409 C 
HETATM   22  F   UNL     1     -42.353  55.484 -57.048  1.00  0.00    -0.169 F 
HETATM   23  F   UNL     1     -43.891  57.023 -56.891  1.00  0.00    -0.169 F 
HETATM   24  F   UNL     1     -42.039  57.219 -55.780  1.00  0.00    -0.169 F 
ENDBRANCH   8  21
BRANCH   1  25
HETATM   25  C   UNL     1     -40.795  53.524 -53.221  1.00  0.00    -0.034 A 
HETATM   26  C   UNL     1     -40.225  52.443 -53.918  1.00  0.00     0.011 A 
HETATM   27  C   UNL     1     -39.702  51.344 -53.233  1.00  0.00     0.026 A 
HETATM   28  C   UNL     1     -39.742  51.305 -51.839  1.00  0.00     0.055 A 
HETATM   29  C   UNL     1     -40.307  52.370 -51.131  1.00  0.00     0.056 A 
HETATM   30 CL   UNL     1     -39.084  49.913 -51.056  1.00  0.00    -0.083 Cl
HETATM   31  C   UNL     1     -40.829  53.474 -51.820  1.00  0.00     0.034 A 
HETATM   32 CL   UNL     1     -40.398  52.389 -49.406  1.00  0.00    -0.083 Cl
ENDBRANCH   1  25
TORSDOF 5
ENDMDL
MODEL 10
REMARK VINA RESULT:      -8.0     17.779     19.634
REMARK  5 active torsions:
REMARK  status: ('A' for Active; 'I' for Inactive)
REMARK    1  A    between atoms: C_2  and  C_3 
REMARK    2  A    between atoms: C_8  and  C_9 
REMARK       I    between atoms: C_9  and  N_10 
REMARK    3  A    between atoms: N_10  and  C_11 
REMARK    4  A    between atoms: C_11  and  C_12 
REMARK    5  A    between atoms: C_19  and  C_20 
ROOT
HETATM    1  C   UNL     1     -37.590  40.307 -58.600  1.00  0.00     0.118 C 
HETATM    2  N   UNL     1     -36.248  40.870 -58.470  1.00  0.00    -0.366 N 
HETATM    3  C   UNL     1     -35.534  40.787 -57.330  1.00  0.00     0.123 A 
HETATM    4  N   UNL     1     -36.113  40.385 -56.161  1.00  0.00    -0.240 N 
HETATM    5  N   UNL     1     -35.246  40.202 -55.152  1.00  0.00    -0.165 NA
HETATM    6  C   UNL     1     -34.067  40.611 -55.677  1.00  0.00     0.148 A 
HETATM    7  C   UNL     1     -34.218  41.014 -57.035  1.00  0.00     0.088 A 
HETATM    8  C   UNL     1     -37.513  40.023 -56.057  1.00  0.00     0.221 C 
HETATM    9  C   UNL     1     -37.962  39.414 -57.395  1.00  0.00     0.066 C 
HETATM   10  H   UNL     1     -35.820  41.203 -59.334  1.00  0.00     0.161 HD
ENDROOT
BRANCH   6  11
HETATM   11  C   UNL     1     -32.807  40.561 -54.918  1.00  0.00     0.272 C 
HETATM   12  N   UNL     1     -32.976  40.738 -53.565  1.00  0.00    -0.353 N 
HETATM   13  H   UNL     1     -33.943  40.740 -53.244  1.00  0.00     0.162 HD
HETATM   14  O   UNL     1     -31.721  40.343 -55.447  1.00  0.00    -0.266 OA
BRANCH  12  15
HETATM   15  C   UNL     1     -31.935  40.412 -52.614  1.00  0.00     0.155 C 
BRANCH  15  16
HETATM   16  C   UNL     1     -32.437  40.518 -51.178  1.00  0.00     0.139 C 
HETATM   17  O   UNL     1     -33.803  40.056 -51.086  1.00  0.00    -0.384 OA
HETATM   18  C   UNL     1     -33.952  39.330 -49.856  1.00  0.00     0.168 C 
HETATM   19  C   UNL     1     -32.651  39.473 -49.093  1.00  0.00     0.029 C 
HETATM   20  C   UNL     1     -31.649  39.660 -50.204  1.00  0.00     0.035 C 
ENDBRANCH  15  16
ENDBRANCH  12  15
ENDBRANCH   6  11
BRANCH   8  21
HETATM   21  C   UNL     1     -38.334  41.225 -55.654  1.00  0.00     0.409 C 
HETATM   22  F   UNL     1     -37.846  42.379 -56.157  1.00  0.00    -0.169 F 
HETATM   23  F   UNL     1     -39.633  41.135 -56.011  1.00  0.00    -0.169 F 
HETATM   24  F   UNL     1     -38.317  41.354 -54.301  1.00  0.00    -0.169 F 
ENDBRANCH   8  21
BRANCH   1  25
HETATM   25  C   UNL     1     -37.657  39.520 -59.901  1.00  0.00    -0.034 A 
HETATM   26  C   UNL     1     -36.515  39.357 -60.706  1.00  0.00     0.011 A 
HETATM   27  C   UNL     1     -36.579  38.646 -61.906  1.00  0.00     0.026 A 
HETATM   28  C   UNL     1     -37.787  38.088 -62.325  1.00  0.00     0.055 A 
HETATM   29  C   UNL     1     -38.933  38.243 -61.538  1.00  0.00     0.056 A 
HETATM   30 CL   UNL     1     -37.797  37.228 -63.823  1.00  0.00    -0.083 Cl
HETATM   31  C   UNL     1     -38.866  38.954 -60.332  1.00  0.00     0.034 A 
HETATM   32 CL   UNL     1     -40.464  37.586 -61.996  1.00  0.00    -0.083 Cl
ENDBRANCH   1  25
TORSDOF 5
ENDMDL
