MODEL 1
REMARK VINA RESULT:      -7.2      0.000      0.000
REMARK  11 active torsions:
REMARK  status: ('A' for Active; 'I' for Inactive)
REMARK    1  A    between atoms: C_2  and  C_3 
REMARK    2  A    between atoms: C_3  and  C_4 
REMARK    3  A    between atoms: C_4  and  O_5 
REMARK    4  A    between atoms: O_5  and  C_6 
REMARK    5  A    between atoms: C_9  and  C_10 
REMARK       I    between atoms: C_10  and  N_11 
REMARK    6  A    between atoms: N_11  and  C_12 
REMARK    7  A    between atoms: C_12  and  C_13 
REMARK       I    between atoms: C_13  and  N_14 
REMARK    8  A    between atoms: N_14  and  N_15 
REMARK    9  A    between atoms: C_16  and  C_17 
REMARK   10  A    between atoms: C_18  and  O_19 
REMARK   11  A    between atoms: C_21  and  O_22 
ROOT
HETATM    1  C   UNL     1     -42.047  58.278 -52.131  1.00  0.00     0.227 C 
ENDROOT
BRANCH   1   2
HETATM    2  N   UNL     1     -42.932  58.268 -53.292  1.00  0.00    -0.348 N 
HETATM    3  C   UNL     1     -42.512  58.714 -54.524  1.00  0.00     0.252 C 
HETATM    4  O   UNL     1     -41.427  59.268 -54.677  1.00  0.00    -0.268 OA
HETATM    5  H   UNL     1     -43.775  57.714 -53.219  1.00  0.00     0.163 HD
BRANCH   3   6
HETATM    6  C   UNL     1     -43.441  58.545 -55.673  1.00  0.00     0.032 A 
HETATM    7  C   UNL     1     -42.991  58.218 -56.958  1.00  0.00     0.020 A 
HETATM    8  C   UNL     1     -43.914  57.988 -57.986  1.00  0.00     0.038 A 
HETATM    9  C   UNL     1     -45.284  58.065 -57.730  1.00  0.00     0.068 A 
HETATM   10  C   UNL     1     -45.729  58.429 -56.460  1.00  0.00     0.038 A 
HETATM   11  C   UNL     1     -44.814  58.657 -55.430  1.00  0.00     0.020 A 
BRANCH   9  12
HETATM   12  O   UNL     1     -46.270  57.811 -58.643  1.00  0.00    -0.351 OA
BRANCH  12  13
HETATM   13  C   UNL     1     -45.827  57.471 -59.958  1.00  0.00     0.175 C 
BRANCH  13  14
HETATM   14  C   UNL     1     -46.213  56.022 -60.252  1.00  0.00     0.026 C 
BRANCH  14  15
HETATM   15  C   UNL     1     -45.027  55.176 -60.717  1.00  0.00    -0.002 C 
HETATM   16  C   UNL     1     -44.491  54.314 -59.583  1.00  0.00     0.005 C 
ENDBRANCH  14  15
ENDBRANCH  13  14
ENDBRANCH  12  13
ENDBRANCH   9  12
ENDBRANCH   3   6
ENDBRANCH   1   2
BRANCH   1  17
HETATM   17  C   UNL     1     -41.527  56.897 -51.709  1.00  0.00     0.255 C 
HETATM   18  N   UNL     1     -41.877  55.881 -52.585  1.00  0.00    -0.246 N 
HETATM   19  H   UNL     1     -42.461  56.105 -53.396  1.00  0.00     0.192 HD
HETATM   20  O   UNL     1     -40.951  56.729 -50.635  1.00  0.00    -0.270 OA
BRANCH  18  21
HETATM   21  N   UNL     1     -41.541  54.591 -52.315  1.00  0.00    -0.184 NA
HETATM   22  C   UNL     1     -40.760  54.033 -53.185  1.00  0.00     0.153 C 
BRANCH  22  23
HETATM   23  C   UNL     1     -40.331  52.630 -53.024  1.00  0.00     0.016 A 
HETATM   24  C   UNL     1     -39.898  52.120 -51.793  1.00  0.00     0.080 A 
HETATM   25  C   UNL     1     -39.512  50.785 -51.678  1.00  0.00     0.074 A 
HETATM   26  C   UNL     1     -39.557  49.967 -52.801  1.00  0.00     0.068 A 
HETATM   27  C   UNL     1     -39.979  50.460 -54.032  1.00  0.00     0.037 A 
HETATM   28  C   UNL     1     -40.371  51.796 -54.147  1.00  0.00     0.018 A 
BRANCH  24  29
HETATM   29  O   UNL     1     -39.829  52.871 -50.650  1.00  0.00    -0.360 OA
HETATM   30  H   UNL     1     -40.503  52.532 -50.016  1.00  0.00     0.217 HD
ENDBRANCH  24  29
BRANCH  26  31
HETATM   31  O   UNL     1     -39.189  48.654 -52.738  1.00  0.00    -0.361 OA
HETATM   32  H   UNL     1     -38.988  48.348 -53.639  1.00  0.00     0.217 HD
ENDBRANCH  26  31
ENDBRANCH  22  23
ENDBRANCH  18  21
ENDBRANCH   1  17
TORSDOF 11
ENDMDL
MODEL 2
REMARK VINA RESULT:      -7.1      6.402      9.994
REMARK  11 active torsions:
REMARK  status: ('A' for Active; 'I' for Inactive)
REMARK    1  A    between atoms: C_2  and  C_3 
REMARK    2  A    between atoms: C_3  and  C_4 
REMARK    3  A    between atoms: C_4  and  O_5 
REMARK    4  A    between atoms: O_5  and  C_6 
REMARK    5  A    between atoms: C_9  and  C_10 
REMARK       I    between atoms: C_10  and  N_11 
REMARK    6  A    between atoms: N_11  and  C_12 
REMARK    7  A    between atoms: C_12  and  C_13 
REMARK       I    between atoms: C_13  and  N_14 
REMARK    8  A    between atoms: N_14  and  N_15 
REMARK    9  A    between atoms: C_16  and  C_17 
REMARK   10  A    between atoms: C_18  and  O_19 
REMARK   11  A    between atoms: C_21  and  O_22 
ROOT
HETATM    1  C   UNL     1     -45.425  58.949 -50.794  1.00  0.00     0.227 C 
ENDROOT
BRANCH   1   2
HETATM    2  N   UNL     1     -45.089  59.721 -49.601  1.00  0.00    -0.348 N 
HETATM    3  C   UNL     1     -45.709  60.916 -49.317  1.00  0.00     0.252 C 
HETATM    4  O   UNL     1     -46.467  61.458 -50.116  1.00  0.00    -0.268 OA
HETATM    5  H   UNL     1     -44.565  59.242 -48.881  1.00  0.00     0.163 HD
BRANCH   3   6
HETATM    6  C   UNL     1     -45.395  61.564 -48.016  1.00  0.00     0.032 A 
HETATM    7  C   UNL     1     -45.325  62.954 -47.868  1.00  0.00     0.020 A 
HETATM    8  C   UNL     1     -45.108  63.516 -46.604  1.00  0.00     0.038 A 
HETATM    9  C   UNL     1     -44.980  62.693 -45.484  1.00  0.00     0.068 A 
HETATM   10  C   UNL     1     -45.009  61.307 -45.638  1.00  0.00     0.038 A 
HETATM   11  C   UNL     1     -45.228  60.741 -46.896  1.00  0.00     0.020 A 
BRANCH   9  12
HETATM   12  O   UNL     1     -44.816  63.133 -44.200  1.00  0.00    -0.351 OA
BRANCH  12  13
HETATM   13  C   UNL     1     -44.051  62.282 -43.343  1.00  0.00     0.175 C 
BRANCH  13  14
HETATM   14  C   UNL     1     -42.982  63.117 -42.640  1.00  0.00     0.026 C 
BRANCH  14  15
HETATM   15  C   UNL     1     -43.568  64.297 -41.864  1.00  0.00    -0.002 C 
HETATM   16  C   UNL     1     -44.028  63.867 -40.478  1.00  0.00     0.005 C 
ENDBRANCH  14  15
ENDBRANCH  13  14
ENDBRANCH  12  13
ENDBRANCH   9  12
ENDBRANCH   3   6
ENDBRANCH   1   2
BRANCH   1  17
HETATM   17  C   UNL     1     -44.236  58.236 -51.452  1.00  0.00     0.255 C 
HETATM   18  N   UNL     1     -44.547  56.980 -51.948  1.00  0.00    -0.246 N 
HETATM   19  H   UNL     1     -45.495  56.615 -51.815  1.00  0.00     0.192 HD
HETATM   20  O   UNL     1     -43.105  58.720 -51.428  1.00  0.00    -0.270 OA
BRANCH  18  21
HETATM   21  N   UNL     1     -43.583  56.199 -52.505  1.00  0.00    -0.184 NA
HETATM   22  C   UNL     1     -43.291  55.128 -51.837  1.00  0.00     0.153 C 
BRANCH  22  23
HETATM   23  C   UNL     1     -42.249  54.199 -52.319  1.00  0.00     0.016 A 
HETATM   24  C   UNL     1     -42.161  53.810 -53.662  1.00  0.00     0.080 A 
HETATM   25  C   UNL     1     -41.156  52.941 -54.082  1.00  0.00     0.074 A 
HETATM   26  C   UNL     1     -40.243  52.458 -53.149  1.00  0.00     0.068 A 
HETATM   27  C   UNL     1     -40.320  52.831 -51.810  1.00  0.00     0.037 A 
HETATM   28  C   UNL     1     -41.325  53.706 -51.391  1.00  0.00     0.018 A 
BRANCH  24  29
HETATM   29  O   UNL     1     -43.027  54.246 -54.629  1.00  0.00    -0.360 OA
HETATM   30  H   UNL     1     -43.230  55.196 -54.457  1.00  0.00     0.217 HD
ENDBRANCH  24  29
BRANCH  26  31
HETATM   31  O   UNL     1     -39.242  51.605 -53.512  1.00  0.00    -0.361 OA
HETATM   32  H   UNL     1     -39.403  50.745 -53.085  1.00  0.00     0.217 HD
ENDBRANCH  26  31
ENDBRANCH  22  23
ENDBRANCH  18  21
ENDBRANCH   1  17
TORSDOF 11
ENDMDL
MODEL 3
REMARK VINA RESULT:      -7.0      5.973     10.599
REMARK  11 active torsions:
REMARK  status: ('A' for Active; 'I' for Inactive)
REMARK    1  A    between atoms: C_2  and  C_3 
REMARK    2  A    between atoms: C_3  and  C_4 
REMARK    3  A    between atoms: C_4  and  O_5 
REMARK    4  A    between atoms: O_5  and  C_6 
REMARK    5  A    between atoms: C_9  and  C_10 
REMARK       I    between atoms: C_10  and  N_11 
REMARK    6  A    between atoms: N_11  and  C_12 
REMARK    7  A    between atoms: C_12  and  C_13 
REMARK       I    between atoms: C_13  and  N_14 
REMARK    8  A    between atoms: N_14  and  N_15 
REMARK    9  A    between atoms: C_16  and  C_17 
REMARK   10  A    between atoms: C_18  and  O_19 
REMARK   11  A    between atoms: C_21  and  O_22 
ROOT
HETATM    1  C   UNL     1     -45.330  59.238 -50.833  1.00  0.00     0.227 C 
ENDROOT
BRANCH   1   2
HETATM    2  N   UNL     1     -44.671  57.939 -50.726  1.00  0.00    -0.348 N 
HETATM    3  C   UNL     1     -43.505  57.663 -51.403  1.00  0.00     0.252 C 
HETATM    4  O   UNL     1     -43.039  58.439 -52.232  1.00  0.00    -0.268 OA
HETATM    5  H   UNL     1     -44.967  57.340 -49.967  1.00  0.00     0.163 HD
BRANCH   3   6
HETATM    6  C   UNL     1     -42.841  56.362 -51.129  1.00  0.00     0.032 A 
HETATM    7  C   UNL     1     -43.415  55.137 -51.489  1.00  0.00     0.020 A 
HETATM    8  C   UNL     1     -42.710  53.944 -51.284  1.00  0.00     0.038 A 
HETATM    9  C   UNL     1     -41.426  53.973 -50.738  1.00  0.00     0.068 A 
HETATM   10  C   UNL     1     -40.871  55.190 -50.344  1.00  0.00     0.038 A 
HETATM   11  C   UNL     1     -41.568  56.383 -50.548  1.00  0.00     0.020 A 
BRANCH   9  12
HETATM   12  O   UNL     1     -40.631  52.879 -50.541  1.00  0.00    -0.351 OA
BRANCH  12  13
HETATM   13  C   UNL     1     -39.543  52.728 -51.456  1.00  0.00     0.175 C 
BRANCH  13  14
HETATM   14  C   UNL     1     -39.643  51.358 -52.125  1.00  0.00     0.026 C 
BRANCH  14  15
HETATM   15  C   UNL     1     -39.687  51.447 -53.651  1.00  0.00    -0.002 C 
HETATM   16  C   UNL     1     -39.880  50.072 -54.274  1.00  0.00     0.005 C 
ENDBRANCH  14  15
ENDBRANCH  13  14
ENDBRANCH  12  13
ENDBRANCH   9  12
ENDBRANCH   3   6
ENDBRANCH   1   2
BRANCH   1  17
HETATM   17  C   UNL     1     -44.757  60.326 -49.915  1.00  0.00     0.255 C 
HETATM   18  N   UNL     1     -45.324  60.341 -48.651  1.00  0.00    -0.246 N 
HETATM   19  H   UNL     1     -46.077  59.680 -48.437  1.00  0.00     0.192 HD
HETATM   20  O   UNL     1     -43.948  61.155 -50.332  1.00  0.00    -0.270 OA
BRANCH  18  21
HETATM   21  N   UNL     1     -44.964  61.288 -47.744  1.00  0.00    -0.184 NA
HETATM   22  C   UNL     1     -45.180  60.973 -46.506  1.00  0.00     0.153 C 
BRANCH  22  23
HETATM   23  C   UNL     1     -44.852  61.916 -45.419  1.00  0.00     0.016 A 
HETATM   24  C   UNL     1     -45.234  63.263 -45.461  1.00  0.00     0.080 A 
HETATM   25  C   UNL     1     -44.916  64.121 -44.409  1.00  0.00     0.074 A 
HETATM   26  C   UNL     1     -44.209  63.624 -43.319  1.00  0.00     0.068 A 
HETATM   27  C   UNL     1     -43.817  62.290 -43.265  1.00  0.00     0.037 A 
HETATM   28  C   UNL     1     -44.140  61.429 -44.317  1.00  0.00     0.018 A 
BRANCH  24  29
HETATM   29  O   UNL     1     -45.930  63.815 -46.503  1.00  0.00    -0.360 OA
HETATM   30  H   UNL     1     -45.294  64.309 -47.073  1.00  0.00     0.217 HD
ENDBRANCH  24  29
BRANCH  26  31
HETATM   31  O   UNL     1     -43.874  64.425 -42.266  1.00  0.00    -0.361 OA
HETATM   32  H   UNL     1     -42.904  64.454 -42.199  1.00  0.00     0.217 HD
ENDBRANCH  26  31
ENDBRANCH  22  23
ENDBRANCH  18  21
ENDBRANCH   1  17
TORSDOF 11
ENDMDL
MODEL 4
REMARK VINA RESULT:      -7.0     15.017     17.368
REMARK  11 active torsions:
REMARK  status: ('A' for Active; 'I' for Inactive)
REMARK    1  A    between atoms: C_2  and  C_3 
REMARK    2  A    between atoms: C_3  and  C_4 
REMARK    3  A    between atoms: C_4  and  O_5 
REMARK    4  A    between atoms: O_5  and  C_6 
REMARK    5  A    between atoms: C_9  and  C_10 
REMARK       I    between atoms: C_10  and  N_11 
REMARK    6  A    between atoms: N_11  and  C_12 
REMARK    7  A    between atoms: C_12  and  C_13 
REMARK       I    between atoms: C_13  and  N_14 
REMARK    8  A    between atoms: N_14  and  N_15 
REMARK    9  A    between atoms: C_16  and  C_17 
REMARK   10  A    between atoms: C_18  and  O_19 
REMARK   11  A    between atoms: C_21  and  O_22 
ROOT
HETATM    1  C   UNL     1     -37.431  42.392 -56.372  1.00  0.00     0.227 C 
ENDROOT
BRANCH   1   2
HETATM    2  N   UNL     1     -37.759  41.274 -57.251  1.00  0.00    -0.348 N 
HETATM    3  C   UNL     1     -37.521  41.326 -58.606  1.00  0.00     0.252 C 
HETATM    4  O   UNL     1     -37.153  42.359 -59.159  1.00  0.00    -0.268 OA
HETATM    5  H   UNL     1     -37.946  40.384 -56.808  1.00  0.00     0.163 HD
BRANCH   3   6
HETATM    6  C   UNL     1     -37.767  40.092 -59.398  1.00  0.00     0.032 A 
HETATM    7  C   UNL     1     -38.468  38.997 -58.880  1.00  0.00     0.020 A 
HETATM    8  C   UNL     1     -38.745  37.892 -59.695  1.00  0.00     0.038 A 
HETATM    9  C   UNL     1     -38.339  37.886 -61.030  1.00  0.00     0.068 A 
HETATM   10  C   UNL     1     -37.606  38.960 -61.534  1.00  0.00     0.038 A 
HETATM   11  C   UNL     1     -37.329  40.066 -60.727  1.00  0.00     0.020 A 
BRANCH   9  12
HETATM   12  O   UNL     1     -38.598  36.887 -61.926  1.00  0.00    -0.351 OA
BRANCH  12  13
HETATM   13  C   UNL     1     -39.047  37.308 -63.216  1.00  0.00     0.175 C 
BRANCH  13  14
HETATM   14  C   UNL     1     -40.522  36.940 -63.374  1.00  0.00     0.026 C 
BRANCH  14  15
HETATM   15  C   UNL     1     -41.457  38.121 -63.112  1.00  0.00    -0.002 C 
HETATM   16  C   UNL     1     -42.004  38.082 -61.693  1.00  0.00     0.005 C 
ENDBRANCH  14  15
ENDBRANCH  13  14
ENDBRANCH  12  13
ENDBRANCH   9  12
ENDBRANCH   3   6
ENDBRANCH   1   2
BRANCH   1  17
HETATM   17  C   UNL     1     -36.148  42.208 -55.551  1.00  0.00     0.255 C 
HETATM   18  N   UNL     1     -36.378  42.001 -54.200  1.00  0.00    -0.246 N 
HETATM   19  H   UNL     1     -37.342  42.020 -53.852  1.00  0.00     0.192 HD
HETATM   20  O   UNL     1     -35.036  42.345 -56.060  1.00  0.00    -0.270 OA
BRANCH  18  21
HETATM   21  N   UNL     1     -35.338  41.882 -53.333  1.00  0.00    -0.184 NA
HETATM   22  C   UNL     1     -35.112  40.678 -52.908  1.00  0.00     0.153 C 
BRANCH  22  23
HETATM   23  C   UNL     1     -34.023  40.409 -51.948  1.00  0.00     0.016 A 
HETATM   24  C   UNL     1     -32.673  40.539 -52.298  1.00  0.00     0.080 A 
HETATM   25  C   UNL     1     -31.672  40.288 -51.361  1.00  0.00     0.074 A 
HETATM   26  C   UNL     1     -32.031  39.898 -50.074  1.00  0.00     0.068 A 
HETATM   27  C   UNL     1     -33.367  39.758 -49.713  1.00  0.00     0.037 A 
HETATM   28  C   UNL     1     -34.370  40.016 -50.651  1.00  0.00     0.018 A 
BRANCH  24  29
HETATM   29  O   UNL     1     -32.253  40.917 -53.546  1.00  0.00    -0.360 OA
HETATM   30  H   UNL     1     -31.918  40.117 -54.015  1.00  0.00     0.217 HD
ENDBRANCH  24  29
BRANCH  26  31
HETATM   31  O   UNL     1     -31.088  39.640 -49.123  1.00  0.00    -0.361 OA
HETATM   32  H   UNL     1     -30.401  39.076 -49.517  1.00  0.00     0.217 HD
ENDBRANCH  26  31
ENDBRANCH  22  23
ENDBRANCH  18  21
ENDBRANCH   1  17
TORSDOF 11
ENDMDL
MODEL 5
REMARK VINA RESULT:      -7.0      2.082      2.868
REMARK  11 active torsions:
REMARK  status: ('A' for Active; 'I' for Inactive)
REMARK    1  A    between atoms: C_2  and  C_3 
REMARK    2  A    between atoms: C_3  and  C_4 
REMARK    3  A    between atoms: C_4  and  O_5 
REMARK    4  A    between atoms: O_5  and  C_6 
REMARK    5  A    between atoms: C_9  and  C_10 
REMARK       I    between atoms: C_10  and  N_11 
REMARK    6  A    between atoms: N_11  and  C_12 
REMARK    7  A    between atoms: C_12  and  C_13 
REMARK       I    between atoms: C_13  and  N_14 
REMARK    8  A    between atoms: N_14  and  N_15 
REMARK    9  A    between atoms: C_16  and  C_17 
REMARK   10  A    between atoms: C_18  and  O_19 
REMARK   11  A    between atoms: C_21  and  O_22 
ROOT
HETATM    1  C   UNL     1     -42.976  57.677 -54.425  1.00  0.00     0.227 C 
ENDROOT
BRANCH   1   2
HETATM    2  N   UNL     1     -43.605  57.529 -55.734  1.00  0.00    -0.348 N 
HETATM    3  C   UNL     1     -43.020  56.789 -56.736  1.00  0.00     0.252 C 
HETATM    4  O   UNL     1     -41.884  56.337 -56.629  1.00  0.00    -0.268 OA
HETATM    5  H   UNL     1     -44.580  57.787 -55.803  1.00  0.00     0.163 HD
BRANCH   3   6
HETATM    6  C   UNL     1     -43.796  56.588 -57.988  1.00  0.00     0.032 A 
HETATM    7  C   UNL     1     -43.579  55.497 -58.838  1.00  0.00     0.020 A 
HETATM    8  C   UNL     1     -44.393  55.309 -59.961  1.00  0.00     0.038 A 
HETATM    9  C   UNL     1     -45.437  56.198 -60.228  1.00  0.00     0.068 A 
HETATM   10  C   UNL     1     -45.627  57.306 -59.404  1.00  0.00     0.038 A 
HETATM   11  C   UNL     1     -44.819  57.497 -58.281  1.00  0.00     0.020 A 
BRANCH   9  12
HETATM   12  O   UNL     1     -46.321  56.083 -61.264  1.00  0.00    -0.351 OA
BRANCH  12  13
HETATM   13  C   UNL     1     -47.647  56.549 -61.004  1.00  0.00     0.175 C 
BRANCH  13  14
HETATM   14  C   UNL     1     -48.408  56.645 -62.326  1.00  0.00     0.026 C 
BRANCH  14  15
HETATM   15  C   UNL     1     -48.677  58.089 -62.750  1.00  0.00    -0.002 C 
HETATM   16  C   UNL     1     -50.154  58.431 -62.619  1.00  0.00     0.005 C 
ENDBRANCH  14  15
ENDBRANCH  13  14
ENDBRANCH  12  13
ENDBRANCH   9  12
ENDBRANCH   3   6
ENDBRANCH   1   2
BRANCH   1  17
HETATM   17  C   UNL     1     -42.707  56.358 -53.689  1.00  0.00     0.255 C 
HETATM   18  N   UNL     1     -41.377  55.971 -53.713  1.00  0.00    -0.246 N 
HETATM   19  H   UNL     1     -40.702  56.545 -54.226  1.00  0.00     0.192 HD
HETATM   20  O   UNL     1     -43.626  55.683 -53.226  1.00  0.00    -0.270 OA
BRANCH  18  21
HETATM   21  N   UNL     1     -40.991  54.791 -53.156  1.00  0.00    -0.184 NA
HETATM   22  C   UNL     1     -40.746  53.840 -54.000  1.00  0.00     0.153 C 
BRANCH  22  23
HETATM   23  C   UNL     1     -40.335  52.501 -53.531  1.00  0.00     0.016 A 
HETATM   24  C   UNL     1     -39.863  52.281 -52.231  1.00  0.00     0.080 A 
HETATM   25  C   UNL     1     -39.496  51.000 -51.820  1.00  0.00     0.074 A 
HETATM   26  C   UNL     1     -39.598  49.944 -52.720  1.00  0.00     0.068 A 
HETATM   27  C   UNL     1     -40.060  50.148 -54.017  1.00  0.00     0.037 A 
HETATM   28  C   UNL     1     -40.433  51.430 -54.427  1.00  0.00     0.018 A 
BRANCH  24  29
HETATM   29  O   UNL     1     -39.736  53.275 -51.298  1.00  0.00    -0.360 OA
HETATM   30  H   UNL     1     -40.047  52.927 -50.430  1.00  0.00     0.217 HD
ENDBRANCH  24  29
BRANCH  26  31
HETATM   31  O   UNL     1     -39.251  48.673 -52.364  1.00  0.00    -0.361 OA
HETATM   32  H   UNL     1     -38.552  48.366 -52.968  1.00  0.00     0.217 HD
ENDBRANCH  26  31
ENDBRANCH  22  23
ENDBRANCH  18  21
ENDBRANCH   1  17
TORSDOF 11
ENDMDL
MODEL 6
REMARK VINA RESULT:      -7.0      1.140      1.287
REMARK  11 active torsions:
REMARK  status: ('A' for Active; 'I' for Inactive)
REMARK    1  A    between atoms: C_2  and  C_3 
REMARK    2  A    between atoms: C_3  and  C_4 
REMARK    3  A    between atoms: C_4  and  O_5 
REMARK    4  A    between atoms: O_5  and  C_6 
REMARK    5  A    between atoms: C_9  and  C_10 
REMARK       I    between atoms: C_10  and  N_11 
REMARK    6  A    between atoms: N_11  and  C_12 
REMARK    7  A    between atoms: C_12  and  C_13 
REMARK       I    between atoms: C_13  and  N_14 
REMARK    8  A    between atoms: N_14  and  N_15 
REMARK    9  A    between atoms: C_16  and  C_17 
REMARK   10  A    between atoms: C_18  and  O_19 
REMARK   11  A    between atoms: C_21  and  O_22 
ROOT
HETATM    1  C   UNL     1     -42.031  58.306 -51.900  1.00  0.00     0.227 C 
ENDROOT
BRANCH   1   2
HETATM    2  N   UNL     1     -42.220  58.453 -53.340  1.00  0.00    -0.348 N 
HETATM    3  C   UNL     1     -43.407  58.115 -53.951  1.00  0.00     0.252 C 
HETATM    4  O   UNL     1     -44.310  57.548 -53.342  1.00  0.00    -0.268 OA
HETATM    5  H   UNL     1     -41.545  59.022 -53.833  1.00  0.00     0.163 HD
BRANCH   3   6
HETATM    6  C   UNL     1     -43.549  58.421 -55.399  1.00  0.00     0.032 A 
HETATM    7  C   UNL     1     -42.487  58.910 -56.169  1.00  0.00     0.020 A 
HETATM    8  C   UNL     1     -42.650  59.103 -57.547  1.00  0.00     0.038 A 
HETATM    9  C   UNL     1     -43.865  58.792 -58.159  1.00  0.00     0.068 A 
HETATM   10  C   UNL     1     -44.934  58.343 -57.385  1.00  0.00     0.038 A 
HETATM   11  C   UNL     1     -44.777  58.146 -56.011  1.00  0.00     0.020 A 
BRANCH   9  12
HETATM   12  O   UNL     1     -44.119  58.893 -59.499  1.00  0.00    -0.351 OA
BRANCH  12  13
HETATM   13  C   UNL     1     -44.533  57.689 -60.147  1.00  0.00     0.175 C 
BRANCH  13  14
HETATM   14  C   UNL     1     -43.324  56.767 -60.302  1.00  0.00     0.026 C 
BRANCH  14  15
HETATM   15  C   UNL     1     -43.457  55.476 -59.493  1.00  0.00    -0.002 C 
HETATM   16  C   UNL     1     -44.622  54.634 -59.994  1.00  0.00     0.005 C 
ENDBRANCH  14  15
ENDBRANCH  13  14
ENDBRANCH  12  13
ENDBRANCH   9  12
ENDBRANCH   3   6
ENDBRANCH   1   2
BRANCH   1  17
HETATM   17  C   UNL     1     -41.501  56.936 -51.459  1.00  0.00     0.255 C 
HETATM   18  N   UNL     1     -41.716  55.932 -52.390  1.00  0.00    -0.246 N 
HETATM   19  H   UNL     1     -42.222  56.155 -53.252  1.00  0.00     0.192 HD
HETATM   20  O   UNL     1     -41.033  56.761 -50.334  1.00  0.00    -0.270 OA
BRANCH  18  21
HETATM   21  N   UNL     1     -41.358  54.649 -52.116  1.00  0.00    -0.184 NA
HETATM   22  C   UNL     1     -40.766  54.025 -53.086  1.00  0.00     0.153 C 
BRANCH  22  23
HETATM   23  C   UNL     1     -40.339  52.621 -52.932  1.00  0.00     0.016 A 
HETATM   24  C   UNL     1     -39.939  52.096 -51.696  1.00  0.00     0.080 A 
HETATM   25  C   UNL     1     -39.554  50.761 -51.586  1.00  0.00     0.074 A 
HETATM   26  C   UNL     1     -39.565  49.956 -52.721  1.00  0.00     0.068 A 
HETATM   27  C   UNL     1     -39.954  50.464 -53.957  1.00  0.00     0.037 A 
HETATM   28  C   UNL     1     -40.345  51.801 -54.066  1.00  0.00     0.018 A 
BRANCH  24  29
HETATM   29  O   UNL     1     -39.904  52.833 -50.542  1.00  0.00    -0.360 OA
HETATM   30  H   UNL     1     -40.404  53.669 -50.693  1.00  0.00     0.217 HD
ENDBRANCH  24  29
BRANCH  26  31
HETATM   31  O   UNL     1     -39.196  48.644 -52.664  1.00  0.00    -0.361 OA
HETATM   32  H   UNL     1     -38.743  48.416 -53.495  1.00  0.00     0.217 HD
ENDBRANCH  26  31
ENDBRANCH  22  23
ENDBRANCH  18  21
ENDBRANCH   1  17
TORSDOF 11
ENDMDL
MODEL 7
REMARK VINA RESULT:      -6.9      2.568      8.787
REMARK  11 active torsions:
REMARK  status: ('A' for Active; 'I' for Inactive)
REMARK    1  A    between atoms: C_2  and  C_3 
REMARK    2  A    between atoms: C_3  and  C_4 
REMARK    3  A    between atoms: C_4  and  O_5 
REMARK    4  A    between atoms: O_5  and  C_6 
REMARK    5  A    between atoms: C_9  and  C_10 
REMARK       I    between atoms: C_10  and  N_11 
REMARK    6  A    between atoms: N_11  and  C_12 
REMARK    7  A    between atoms: C_12  and  C_13 
REMARK       I    between atoms: C_13  and  N_14 
REMARK    8  A    between atoms: N_14  and  N_15 
REMARK    9  A    between atoms: C_16  and  C_17 
REMARK   10  A    between atoms: C_18  and  O_19 
REMARK   11  A    between atoms: C_21  and  O_22 
ROOT
HETATM    1  C   UNL     1     -42.382  58.972 -51.951  1.00  0.00     0.227 C 
ENDROOT
BRANCH   1   2
HETATM    2  N   UNL     1     -41.586  57.756 -51.822  1.00  0.00    -0.348 N 
HETATM    3  C   UNL     1     -42.164  56.542 -51.525  1.00  0.00     0.252 C 
HETATM    4  O   UNL     1     -43.349  56.447 -51.218  1.00  0.00    -0.268 OA
HETATM    5  H   UNL     1     -40.642  57.788 -52.184  1.00  0.00     0.163 HD
BRANCH   3   6
HETATM    6  C   UNL     1     -41.290  55.339 -51.543  1.00  0.00     0.032 A 
HETATM    7  C   UNL     1     -40.631  54.875 -50.399  1.00  0.00     0.020 A 
HETATM    8  C   UNL     1     -39.887  53.689 -50.451  1.00  0.00     0.038 A 
HETATM    9  C   UNL     1     -39.815  52.957 -51.637  1.00  0.00     0.068 A 
HETATM   10  C   UNL     1     -40.439  53.442 -52.786  1.00  0.00     0.038 A 
HETATM   11  C   UNL     1     -41.185  54.622 -52.740  1.00  0.00     0.020 A 
BRANCH   9  12
HETATM   12  O   UNL     1     -39.162  51.766 -51.787  1.00  0.00    -0.351 OA
BRANCH  12  13
HETATM   13  C   UNL     1     -39.763  50.641 -51.143  1.00  0.00     0.175 C 
BRANCH  13  14
HETATM   14  C   UNL     1     -39.789  49.465 -52.118  1.00  0.00     0.026 C 
BRANCH  14  15
HETATM   15  C   UNL     1     -39.283  49.840 -53.512  1.00  0.00    -0.002 C 
HETATM   16  C   UNL     1     -40.440  50.026 -54.482  1.00  0.00     0.005 C 
ENDBRANCH  14  15
ENDBRANCH  13  14
ENDBRANCH  12  13
ENDBRANCH   9  12
ENDBRANCH   3   6
ENDBRANCH   1   2
BRANCH   1  17
HETATM   17  C   UNL     1     -42.280  59.664 -53.316  1.00  0.00     0.255 C 
HETATM   18  N   UNL     1     -41.943  58.805 -54.350  1.00  0.00    -0.246 N 
HETATM   19  H   UNL     1     -41.758  57.821 -54.137  1.00  0.00     0.192 HD
HETATM   20  O   UNL     1     -42.389  60.886 -53.426  1.00  0.00    -0.270 OA
BRANCH  18  21
HETATM   21  N   UNL     1     -41.755  59.282 -55.610  1.00  0.00    -0.184 NA
HETATM   22  C   UNL     1     -42.277  58.562 -56.553  1.00  0.00     0.153 C 
BRANCH  22  23
HETATM   23  C   UNL     1     -42.134  58.954 -57.969  1.00  0.00     0.016 A 
HETATM   24  C   UNL     1     -42.090  58.009 -59.002  1.00  0.00     0.080 A 
HETATM   25  C   UNL     1     -41.966  58.418 -60.329  1.00  0.00     0.074 A 
HETATM   26  C   UNL     1     -41.879  59.777 -60.615  1.00  0.00     0.068 A 
HETATM   27  C   UNL     1     -41.915  60.728 -59.599  1.00  0.00     0.037 A 
HETATM   28  C   UNL     1     -42.045  60.318 -58.270  1.00  0.00     0.018 A 
BRANCH  24  29
HETATM   29  O   UNL     1     -42.169  56.659 -58.790  1.00  0.00    -0.360 OA
HETATM   30  H   UNL     1     -42.440  56.508 -57.854  1.00  0.00     0.217 HD
ENDBRANCH  24  29
BRANCH  26  31
HETATM   31  O   UNL     1     -41.756  60.225 -61.897  1.00  0.00    -0.361 OA
HETATM   32  H   UNL     1     -41.083  60.928 -61.913  1.00  0.00     0.217 HD
ENDBRANCH  26  31
ENDBRANCH  22  23
ENDBRANCH  18  21
ENDBRANCH   1  17
TORSDOF 11
ENDMDL
MODEL 8
REMARK VINA RESULT:      -6.9      3.613      6.452
REMARK  11 active torsions:
REMARK  status: ('A' for Active; 'I' for Inactive)
REMARK    1  A    between atoms: C_2  and  C_3 
REMARK    2  A    between atoms: C_3  and  C_4 
REMARK    3  A    between atoms: C_4  and  O_5 
REMARK    4  A    between atoms: O_5  and  C_6 
REMARK    5  A    between atoms: C_9  and  C_10 
REMARK       I    between atoms: C_10  and  N_11 
REMARK    6  A    between atoms: N_11  and  C_12 
REMARK    7  A    between atoms: C_12  and  C_13 
REMARK       I    between atoms: C_13  and  N_14 
REMARK    8  A    between atoms: N_14  and  N_15 
REMARK    9  A    between atoms: C_16  and  C_17 
REMARK   10  A    between atoms: C_18  and  O_19 
REMARK   11  A    between atoms: C_21  and  O_22 
ROOT
HETATM    1  C   UNL     1     -42.489  57.527 -55.600  1.00  0.00     0.227 C 
ENDROOT
BRANCH   1   2
HETATM    2  N   UNL     1     -43.078  58.180 -54.434  1.00  0.00    -0.348 N 
HETATM    3  C   UNL     1     -44.436  58.375 -54.325  1.00  0.00     0.252 C 
HETATM    4  O   UNL     1     -45.201  58.138 -55.255  1.00  0.00    -0.268 OA
HETATM    5  H   UNL     1     -42.489  58.271 -53.617  1.00  0.00     0.163 HD
BRANCH   3   6
HETATM    6  C   UNL     1     -44.952  58.930 -53.046  1.00  0.00     0.032 A 
HETATM    7  C   UNL     1     -44.746  58.294 -51.816  1.00  0.00     0.020 A 
HETATM    8  C   UNL     1     -45.181  58.900 -50.631  1.00  0.00     0.038 A 
HETATM    9  C   UNL     1     -45.803  60.149 -50.669  1.00  0.00     0.068 A 
HETATM   10  C   UNL     1     -46.044  60.763 -51.898  1.00  0.00     0.038 A 
HETATM   11  C   UNL     1     -45.610  60.164 -53.083  1.00  0.00     0.020 A 
BRANCH   9  12
HETATM   12  O   UNL     1     -46.221  60.853 -49.574  1.00  0.00    -0.351 OA
BRANCH  12  13
HETATM   13  C   UNL     1     -45.186  61.377 -48.740  1.00  0.00     0.175 C 
BRANCH  13  14
HETATM   14  C   UNL     1     -45.776  61.720 -47.373  1.00  0.00     0.026 C 
BRANCH  14  15
HETATM   15  C   UNL     1     -45.368  60.726 -46.285  1.00  0.00    -0.002 C 
HETATM   16  C   UNL     1     -46.427  59.649 -46.102  1.00  0.00     0.005 C 
ENDBRANCH  14  15
ENDBRANCH  13  14
ENDBRANCH  12  13
ENDBRANCH   9  12
ENDBRANCH   3   6
ENDBRANCH   1   2
BRANCH   1  17
HETATM   17  C   UNL     1     -42.229  56.024 -55.431  1.00  0.00     0.255 C 
HETATM   18  N   UNL     1     -40.980  55.733 -54.905  1.00  0.00    -0.246 N 
HETATM   19  H   UNL     1     -40.333  56.503 -54.708  1.00  0.00     0.192 HD
HETATM   20  O   UNL     1     -43.033  55.185 -55.834  1.00  0.00    -0.270 OA
BRANCH  18  21
HETATM   21  N   UNL     1     -40.579  54.443 -54.753  1.00  0.00    -0.184 NA
HETATM   22  C   UNL     1     -40.726  53.959 -53.560  1.00  0.00     0.153 C 
BRANCH  22  23
HETATM   23  C   UNL     1     -40.315  52.576 -53.250  1.00  0.00     0.016 A 
HETATM   24  C   UNL     1     -39.863  52.199 -51.978  1.00  0.00     0.080 A 
HETATM   25  C   UNL     1     -39.495  50.880 -51.721  1.00  0.00     0.074 A 
HETATM   26  C   UNL     1     -39.575  49.941 -52.744  1.00  0.00     0.068 A 
HETATM   27  C   UNL     1     -40.015  50.300 -54.015  1.00  0.00     0.037 A 
HETATM   28  C   UNL     1     -40.390  51.622 -54.272  1.00  0.00     0.018 A 
BRANCH  24  29
HETATM   29  O   UNL     1     -39.760  53.073 -50.929  1.00  0.00    -0.360 OA
HETATM   30  H   UNL     1     -40.538  53.679 -50.952  1.00  0.00     0.217 HD
ENDBRANCH  24  29
BRANCH  26  31
HETATM   31  O   UNL     1     -39.225  48.638 -52.541  1.00  0.00    -0.361 OA
HETATM   32  H   UNL     1     -38.837  48.560 -51.652  1.00  0.00     0.217 HD
ENDBRANCH  26  31
ENDBRANCH  22  23
ENDBRANCH  18  21
ENDBRANCH   1  17
TORSDOF 11
ENDMDL
MODEL 9
REMARK VINA RESULT:      -6.8      6.134     10.035
REMARK  11 active torsions:
REMARK  status: ('A' for Active; 'I' for Inactive)
REMARK    1  A    between atoms: C_2  and  C_3 
REMARK    2  A    between atoms: C_3  and  C_4 
REMARK    3  A    between atoms: C_4  and  O_5 
REMARK    4  A    between atoms: O_5  and  C_6 
REMARK    5  A    between atoms: C_9  and  C_10 
REMARK       I    between atoms: C_10  and  N_11 
REMARK    6  A    between atoms: N_11  and  C_12 
REMARK    7  A    between atoms: C_12  and  C_13 
REMARK       I    between atoms: C_13  and  N_14 
REMARK    8  A    between atoms: N_14  and  N_15 
REMARK    9  A    between atoms: C_16  and  C_17 
REMARK   10  A    between atoms: C_18  and  O_19 
REMARK   11  A    between atoms: C_21  and  O_22 
ROOT
HETATM    1  C   UNL     1     -45.202  60.584 -51.163  1.00  0.00     0.227 C 
ENDROOT
BRANCH   1   2
HETATM    2  N   UNL     1     -44.481  59.453 -51.739  1.00  0.00    -0.348 N 
HETATM    3  C   UNL     1     -44.787  58.154 -51.401  1.00  0.00     0.252 C 
HETATM    4  O   UNL     1     -45.580  57.888 -50.502  1.00  0.00    -0.268 OA
HETATM    5  H   UNL     1     -43.918  59.640 -52.558  1.00  0.00     0.163 HD
BRANCH   3   6
HETATM    6  C   UNL     1     -44.088  57.067 -52.137  1.00  0.00     0.032 A 
HETATM    7  C   UNL     1     -43.283  56.122 -51.490  1.00  0.00     0.020 A 
HETATM    8  C   UNL     1     -42.714  55.069 -52.217  1.00  0.00     0.038 A 
HETATM    9  C   UNL     1     -42.962  54.947 -53.585  1.00  0.00     0.068 A 
HETATM   10  C   UNL     1     -43.732  55.911 -54.236  1.00  0.00     0.038 A 
HETATM   11  C   UNL     1     -44.304  56.961 -53.515  1.00  0.00     0.020 A 
BRANCH   9  12
HETATM   12  O   UNL     1     -42.502  53.935 -54.380  1.00  0.00    -0.351 OA
BRANCH  12  13
HETATM   13  C   UNL     1     -41.164  53.504 -54.125  1.00  0.00     0.175 C 
BRANCH  13  14
HETATM   14  C   UNL     1     -41.079  51.993 -54.340  1.00  0.00     0.026 C 
BRANCH  14  15
HETATM   15  C   UNL     1     -39.772  51.394 -53.820  1.00  0.00    -0.002 C 
HETATM   16  C   UNL     1     -39.566  49.983 -54.352  1.00  0.00     0.005 C 
ENDBRANCH  14  15
ENDBRANCH  13  14
ENDBRANCH  12  13
ENDBRANCH   9  12
ENDBRANCH   3   6
ENDBRANCH   1   2
BRANCH   1  17
HETATM   17  C   UNL     1     -44.560  61.179 -49.903  1.00  0.00     0.255 C 
HETATM   18  N   UNL     1     -45.049  60.642 -48.723  1.00  0.00    -0.246 N 
HETATM   19  H   UNL     1     -45.797  59.943 -48.769  1.00  0.00     0.192 HD
HETATM   20  O   UNL     1     -43.767  62.118 -49.971  1.00  0.00    -0.270 OA
BRANCH  18  21
HETATM   21  N   UNL     1     -44.621  61.112 -47.521  1.00  0.00    -0.184 NA
HETATM   22  C   UNL     1     -45.474  61.854 -46.887  1.00  0.00     0.153 C 
BRANCH  22  23
HETATM   23  C   UNL     1     -45.133  62.445 -45.578  1.00  0.00     0.016 A 
HETATM   24  C   UNL     1     -44.352  61.764 -44.634  1.00  0.00     0.080 A 
HETATM   25  C   UNL     1     -44.041  62.360 -43.413  1.00  0.00     0.074 A 
HETATM   26  C   UNL     1     -44.520  63.637 -43.139  1.00  0.00     0.068 A 
HETATM   27  C   UNL     1     -45.301  64.324 -44.064  1.00  0.00     0.037 A 
HETATM   28  C   UNL     1     -45.609  63.729 -45.290  1.00  0.00     0.018 A 
BRANCH  24  29
HETATM   29  O   UNL     1     -43.851  60.506 -44.840  1.00  0.00    -0.360 OA
HETATM   30  H   UNL     1     -42.873  60.576 -44.943  1.00  0.00     0.217 HD
ENDBRANCH  24  29
BRANCH  26  31
HETATM   31  O   UNL     1     -44.242  64.261 -41.958  1.00  0.00    -0.361 OA
HETATM   32  H   UNL     1     -44.075  65.202 -42.140  1.00  0.00     0.217 HD
ENDBRANCH  26  31
ENDBRANCH  22  23
ENDBRANCH  18  21
ENDBRANCH   1  17
TORSDOF 11
ENDMDL
MODEL 10
REMARK VINA RESULT:      -6.6      2.073      8.709
REMARK  11 active torsions:
REMARK  status: ('A' for Active; 'I' for Inactive)
REMARK    1  A    between atoms: C_2  and  C_3 
REMARK    2  A    between atoms: C_3  and  C_4 
REMARK    3  A    between atoms: C_4  and  O_5 
REMARK    4  A    between atoms: O_5  and  C_6 
REMARK    5  A    between atoms: C_9  and  C_10 
REMARK       I    between atoms: C_10  and  N_11 
REMARK    6  A    between atoms: N_11  and  C_12 
REMARK    7  A    between atoms: C_12  and  C_13 
REMARK       I    between atoms: C_13  and  N_14 
REMARK    8  A    between atoms: N_14  and  N_15 
REMARK    9  A    between atoms: C_16  and  C_17 
REMARK   10  A    between atoms: C_18  and  O_19 
REMARK   11  A    between atoms: C_21  and  O_22 
ROOT
HETATM    1  C   UNL     1     -43.867  57.858 -51.366  1.00  0.00     0.227 C 
ENDROOT
BRANCH   1   2
HETATM    2  N   UNL     1     -42.892  56.776 -51.474  1.00  0.00    -0.348 N 
HETATM    3  C   UNL     1     -43.181  55.499 -51.050  1.00  0.00     0.252 C 
HETATM    4  O   UNL     1     -44.212  55.238 -50.438  1.00  0.00    -0.268 OA
HETATM    5  H   UNL     1     -42.096  56.938 -52.076  1.00  0.00     0.163 HD
BRANCH   3   6
HETATM    6  C   UNL     1     -42.174  54.439 -51.320  1.00  0.00     0.032 A 
HETATM    7  C   UNL     1     -41.871  54.006 -52.616  1.00  0.00     0.020 A 
HETATM    8  C   UNL     1     -40.855  53.064 -52.821  1.00  0.00     0.038 A 
HETATM    9  C   UNL     1     -40.130  52.567 -51.737  1.00  0.00     0.068 A 
HETATM   10  C   UNL     1     -40.460  52.968 -50.443  1.00  0.00     0.038 A 
HETATM   11  C   UNL     1     -41.470  53.909 -50.233  1.00  0.00     0.020 A 
BRANCH   9  12
HETATM   12  O   UNL     1     -39.089  51.685 -51.826  1.00  0.00    -0.351 OA
BRANCH  12  13
HETATM   13  C   UNL     1     -39.304  50.406 -51.227  1.00  0.00     0.175 C 
BRANCH  13  14
HETATM   14  C   UNL     1     -39.786  49.430 -52.299  1.00  0.00     0.026 C 
BRANCH  14  15
HETATM   15  C   UNL     1     -39.191  49.722 -53.677  1.00  0.00    -0.002 C 
HETATM   16  C   UNL     1     -40.284  49.978 -54.703  1.00  0.00     0.005 C 
ENDBRANCH  14  15
ENDBRANCH  13  14
ENDBRANCH  12  13
ENDBRANCH   9  12
ENDBRANCH   3   6
ENDBRANCH   1   2
BRANCH   1  17
HETATM   17  C   UNL     1     -44.591  58.201 -52.674  1.00  0.00     0.255 C 
HETATM   18  N   UNL     1     -44.424  57.250 -53.668  1.00  0.00    -0.246 N 
HETATM   19  H   UNL     1     -43.827  56.438 -53.482  1.00  0.00     0.192 HD
HETATM   20  O   UNL     1     -45.167  59.279 -52.825  1.00  0.00    -0.270 OA
BRANCH  18  21
HETATM   21  N   UNL     1     -44.955  57.443 -54.905  1.00  0.00    -0.184 NA
HETATM   22  C   UNL     1     -44.090  57.523 -55.867  1.00  0.00     0.153 C 
BRANCH  22  23
HETATM   23  C   UNL     1     -44.528  57.749 -57.258  1.00  0.00     0.016 A 
HETATM   24  C   UNL     1     -43.691  57.496 -58.353  1.00  0.00     0.080 A 
HETATM   25  C   UNL     1     -44.144  57.710 -59.654  1.00  0.00     0.074 A 
HETATM   26  C   UNL     1     -45.437  58.185 -59.852  1.00  0.00     0.068 A 
HETATM   27  C   UNL     1     -46.279  58.446 -58.775  1.00  0.00     0.037 A 
HETATM   28  C   UNL     1     -45.826  58.226 -57.472  1.00  0.00     0.018 A 
BRANCH  24  29
HETATM   29  O   UNL     1     -42.409  57.030 -58.227  1.00  0.00    -0.360 OA
HETATM   30  H   UNL     1     -42.272  56.752 -57.292  1.00  0.00     0.217 HD
ENDBRANCH  24  29
BRANCH  26  31
HETATM   31  O   UNL     1     -45.925  58.410 -61.106  1.00  0.00    -0.361 OA
HETATM   32  H   UNL     1     -45.271  58.934 -61.600  1.00  0.00     0.217 HD
ENDBRANCH  26  31
ENDBRANCH  22  23
ENDBRANCH  18  21
ENDBRANCH   1  17
TORSDOF 11
ENDMDL
