MODEL 1
REMARK VINA RESULT:      -8.8      0.000      0.000
REMARK  1 active torsions:
REMARK  status: ('A' for Active; 'I' for Inactive)
REMARK    1  A    between atoms: C_8  and  C_9 
ROOT
HETATM    1  C   UNL     1     -42.747  54.809 -50.111  1.00  0.00     0.073 C 
HETATM    2  C   UNL     1     -43.500  55.854 -50.857  1.00  0.00     0.062 A 
HETATM    3  N   UNL     1     -44.741  56.159 -50.475  1.00  0.00    -0.178 NA
HETATM    4  N   UNL     1     -45.099  57.139 -51.306  1.00  0.00    -0.262 N 
HETATM    5  H   UNL     1     -46.018  57.548 -51.185  1.00  0.00     0.191 HD
HETATM    6  C   UNL     1     -44.162  57.446 -52.259  1.00  0.00     0.134 A 
HETATM    7  C   UNL     1     -43.069  56.635 -51.987  1.00  0.00     0.032 A 
HETATM    8  C   UNL     1     -41.692  56.588 -52.576  1.00  0.00     0.119 C 
HETATM    9  S   UNL     1     -41.235  57.905 -53.723  1.00  0.00    -0.141 SA
HETATM   10  C   UNL     1     -42.663  57.867 -54.845  1.00  0.00     0.136 C 
HETATM   11  C   UNL     1     -42.191  58.339 -56.221  1.00  0.00     0.031 C 
HETATM   12  C   UNL     1     -43.780  58.760 -54.319  1.00  0.00     0.236 C 
HETATM   13  O   UNL     1     -44.191  59.742 -54.944  1.00  0.00    -0.272 OA
HETATM   14  N   UNL     1     -44.450  58.432 -53.173  1.00  0.00    -0.311 N 
HETATM   15  H   UNL     1     -45.258  59.028 -53.024  1.00  0.00     0.170 HD
ENDROOT
BRANCH   8  16
HETATM   16  C   UNL     1     -41.421  55.189 -53.114  1.00  0.00    -0.039 A 
HETATM   17  C   UNL     1     -40.618  54.321 -52.344  1.00  0.00     0.021 A 
HETATM   18  C   UNL     1     -40.359  52.997 -52.741  1.00  0.00    -0.025 A 
HETATM   19  C   UNL     1     -40.894  52.527 -53.958  1.00  0.00    -0.026 A 
HETATM   20  C   UNL     1     -39.592  52.130 -51.947  1.00  0.00     0.012 A 
HETATM   21  C   UNL     1     -41.668  53.392 -54.743  1.00  0.00     0.013 A 
HETATM   22  C   UNL     1     -40.646  51.201 -54.351  1.00  0.00     0.012 A 
HETATM   23  C   UNL     1     -41.931  54.701 -54.327  1.00  0.00     0.009 A 
HETATM   24  C   UNL     1     -39.884  50.350 -53.549  1.00  0.00     0.001 A 
HETATM   25  C   UNL     1     -39.359  50.813 -52.347  1.00  0.00     0.001 A 
ENDBRANCH   8  16
TORSDOF 1
ENDMDL
MODEL 2
REMARK VINA RESULT:      -8.4      1.373      2.090
REMARK  1 active torsions:
REMARK  status: ('A' for Active; 'I' for Inactive)
REMARK    1  A    between atoms: C_8  and  C_9 
ROOT
HETATM    1  C   UNL     1     -41.980  55.402 -49.533  1.00  0.00     0.073 C 
HETATM    2  C   UNL     1     -42.910  55.824 -50.615  1.00  0.00     0.062 A 
HETATM    3  N   UNL     1     -44.173  56.122 -50.308  1.00  0.00    -0.178 NA
HETATM    4  N   UNL     1     -44.706  56.495 -51.472  1.00  0.00    -0.262 N 
HETATM    5  H   UNL     1     -45.675  56.790 -51.476  1.00  0.00     0.191 HD
HETATM    6  C   UNL     1     -43.856  56.395 -52.544  1.00  0.00     0.134 A 
HETATM    7  C   UNL     1     -42.640  55.976 -52.022  1.00  0.00     0.032 A 
HETATM    8  C   UNL     1     -41.289  55.812 -52.649  1.00  0.00     0.119 C 
HETATM    9  S   UNL     1     -41.080  56.416 -54.337  1.00  0.00    -0.141 SA
HETATM   10  C   UNL     1     -42.512  55.639 -55.140  1.00  0.00     0.136 C 
HETATM   11  C   UNL     1     -42.158  55.408 -56.609  1.00  0.00     0.031 C 
HETATM   12  C   UNL     1     -43.743  56.527 -55.010  1.00  0.00     0.236 C 
HETATM   13  O   UNL     1     -44.323  56.999 -55.993  1.00  0.00    -0.272 OA
HETATM   14  N   UNL     1     -44.322  56.740 -53.791  1.00  0.00    -0.311 N 
HETATM   15  H   UNL     1     -45.210  57.224 -53.872  1.00  0.00     0.170 HD
ENDROOT
BRANCH   8  16
HETATM   16  C   UNL     1     -40.812  54.378 -52.450  1.00  0.00    -0.039 A 
HETATM   17  C   UNL     1     -40.918  53.483 -53.535  1.00  0.00     0.021 A 
HETATM   18  C   UNL     1     -40.456  52.157 -53.454  1.00  0.00    -0.025 A 
HETATM   19  C   UNL     1     -39.895  51.697 -52.245  1.00  0.00    -0.026 A 
HETATM   20  C   UNL     1     -40.530  51.287 -54.554  1.00  0.00     0.012 A 
HETATM   21  C   UNL     1     -39.813  52.571 -51.153  1.00  0.00     0.013 A 
HETATM   22  C   UNL     1     -39.423  50.375 -52.166  1.00  0.00     0.012 A 
HETATM   23  C   UNL     1     -40.262  53.892 -51.254  1.00  0.00     0.009 A 
HETATM   24  C   UNL     1     -39.499  49.524 -53.269  1.00  0.00     0.001 A 
HETATM   25  C   UNL     1     -40.051  49.979 -54.463  1.00  0.00     0.001 A 
ENDBRANCH   8  16
TORSDOF 1
ENDMDL
MODEL 3
REMARK VINA RESULT:      -7.9      2.463      3.441
REMARK  1 active torsions:
REMARK  status: ('A' for Active; 'I' for Inactive)
REMARK    1  A    between atoms: C_8  and  C_9 
ROOT
HETATM    1  C   UNL     1     -43.559  53.928 -56.270  1.00  0.00     0.073 C 
HETATM    2  C   UNL     1     -43.137  55.354 -56.329  1.00  0.00     0.062 A 
HETATM    3  N   UNL     1     -43.112  55.977 -57.508  1.00  0.00    -0.178 NA
HETATM    4  N   UNL     1     -42.741  57.222 -57.204  1.00  0.00    -0.262 N 
HETATM    5  H   UNL     1     -42.673  57.892 -57.960  1.00  0.00     0.191 HD
HETATM    6  C   UNL     1     -42.461  57.423 -55.876  1.00  0.00     0.134 A 
HETATM    7  C   UNL     1     -42.733  56.216 -55.248  1.00  0.00     0.032 A 
HETATM    8  C   UNL     1     -42.758  55.829 -53.800  1.00  0.00     0.119 C 
HETATM    9  S   UNL     1     -42.591  57.153 -52.585  1.00  0.00    -0.141 SA
HETATM   10  C   UNL     1     -41.123  58.005 -53.234  1.00  0.00     0.136 C 
HETATM   11  C   UNL     1     -40.399  58.655 -52.054  1.00  0.00     0.031 C 
HETATM   12  C   UNL     1     -41.526  59.050 -54.267  1.00  0.00     0.236 C 
HETATM   13  O   UNL     1     -41.302  60.254 -54.110  1.00  0.00    -0.272 OA
HETATM   14  N   UNL     1     -42.052  58.671 -55.470  1.00  0.00    -0.311 N 
HETATM   15  H   UNL     1     -42.134  59.454 -56.110  1.00  0.00     0.170 HD
ENDROOT
BRANCH   8  16
HETATM   16  C   UNL     1     -41.799  54.667 -53.573  1.00  0.00    -0.039 A 
HETATM   17  C   UNL     1     -41.734  54.097 -52.283  1.00  0.00     0.021 A 
HETATM   18  C   UNL     1     -40.913  52.991 -51.999  1.00  0.00    -0.025 A 
HETATM   19  C   UNL     1     -40.109  52.449 -53.023  1.00  0.00    -0.026 A 
HETATM   20  C   UNL     1     -40.888  52.407 -50.722  1.00  0.00     0.012 A 
HETATM   21  C   UNL     1     -40.146  53.028 -54.298  1.00  0.00     0.013 A 
HETATM   22  C   UNL     1     -39.298  51.337 -52.742  1.00  0.00     0.012 A 
HETATM   23  C   UNL     1     -40.979  54.118 -54.570  1.00  0.00     0.009 A 
HETATM   24  C   UNL     1     -39.286  50.765 -51.469  1.00  0.00     0.001 A 
HETATM   25  C   UNL     1     -40.081  51.298 -50.460  1.00  0.00     0.001 A 
ENDBRANCH   8  16
TORSDOF 1
ENDMDL
MODEL 4
REMARK VINA RESULT:      -7.8      2.194      3.106
REMARK  1 active torsions:
REMARK  status: ('A' for Active; 'I' for Inactive)
REMARK    1  A    between atoms: C_8  and  C_9 
ROOT
HETATM    1  C   UNL     1     -39.619  58.796 -50.981  1.00  0.00     0.073 C 
HETATM    2  C   UNL     1     -40.939  59.457 -51.172  1.00  0.00     0.062 A 
HETATM    3  N   UNL     1     -41.393  60.289 -50.234  1.00  0.00    -0.178 NA
HETATM    4  N   UNL     1     -42.551  60.728 -50.729  1.00  0.00    -0.262 N 
HETATM    5  H   UNL     1     -43.073  61.401 -50.181  1.00  0.00     0.191 HD
HETATM    6  C   UNL     1     -42.904  60.169 -51.930  1.00  0.00     0.134 A 
HETATM    7  C   UNL     1     -41.852  59.334 -52.280  1.00  0.00     0.032 A 
HETATM    8  C   UNL     1     -41.571  58.552 -53.527  1.00  0.00     0.119 C 
HETATM    9  S   UNL     1     -42.655  58.834 -54.943  1.00  0.00    -0.141 SA
HETATM   10  C   UNL     1     -44.279  58.653 -54.149  1.00  0.00     0.136 C 
HETATM   11  C   UNL     1     -45.263  58.143 -55.203  1.00  0.00     0.031 C 
HETATM   12  C   UNL     1     -44.743  59.985 -53.573  1.00  0.00     0.236 C 
HETATM   13  O   UNL     1     -45.768  60.552 -53.963  1.00  0.00    -0.272 OA
HETATM   14  N   UNL     1     -44.092  60.547 -52.510  1.00  0.00    -0.311 N 
HETATM   15  H   UNL     1     -44.592  61.348 -52.140  1.00  0.00     0.170 HD
ENDROOT
BRANCH   8  16
HETATM   16  C   UNL     1     -41.401  57.080 -53.172  1.00  0.00    -0.039 A 
HETATM   17  C   UNL     1     -40.920  56.204 -54.168  1.00  0.00     0.021 A 
HETATM   18  C   UNL     1     -40.686  54.842 -53.912  1.00  0.00    -0.025 A 
HETATM   19  C   UNL     1     -40.964  54.325 -52.630  1.00  0.00    -0.026 A 
HETATM   20  C   UNL     1     -40.169  53.988 -54.900  1.00  0.00     0.012 A 
HETATM   21  C   UNL     1     -41.470  55.183 -51.643  1.00  0.00     0.013 A 
HETATM   22  C   UNL     1     -40.720  52.966 -52.369  1.00  0.00     0.012 A 
HETATM   23  C   UNL     1     -41.682  56.539 -51.908  1.00  0.00     0.009 A 
HETATM   24  C   UNL     1     -40.202  52.131 -53.360  1.00  0.00     0.001 A 
HETATM   25  C   UNL     1     -39.925  52.642 -54.624  1.00  0.00     0.001 A 
ENDBRANCH   8  16
TORSDOF 1
ENDMDL
MODEL 5
REMARK VINA RESULT:      -7.6      2.344      3.555
REMARK  1 active torsions:
REMARK  status: ('A' for Active; 'I' for Inactive)
REMARK    1  A    between atoms: C_8  and  C_9 
ROOT
HETATM    1  C   UNL     1     -43.326  56.417 -56.696  1.00  0.00     0.073 C 
HETATM    2  C   UNL     1     -42.733  57.505 -55.871  1.00  0.00     0.062 A 
HETATM    3  N   UNL     1     -42.269  58.600 -56.475  1.00  0.00    -0.178 NA
HETATM    4  N   UNL     1     -41.859  59.372 -55.467  1.00  0.00    -0.262 N 
HETATM    5  H   UNL     1     -41.479  60.282 -55.695  1.00  0.00     0.191 HD
HETATM    6  C   UNL     1     -41.980  58.798 -54.227  1.00  0.00     0.134 A 
HETATM    7  C   UNL     1     -42.580  57.565 -54.440  1.00  0.00     0.032 A 
HETATM    8  C   UNL     1     -43.098  56.530 -53.488  1.00  0.00     0.119 C 
HETATM    9  S   UNL     1     -43.151  56.968 -51.738  1.00  0.00    -0.141 SA
HETATM   10  C   UNL     1     -41.462  57.595 -51.508  1.00  0.00     0.136 C 
HETATM   11  C   UNL     1     -41.062  57.345 -50.053  1.00  0.00     0.031 C 
HETATM   12  C   UNL     1     -41.394  59.080 -51.842  1.00  0.00     0.236 C 
HETATM   13  O   UNL     1     -41.082  59.931 -51.004  1.00  0.00    -0.272 OA
HETATM   14  N   UNL     1     -41.566  59.512 -53.127  1.00  0.00    -0.311 N 
HETATM   15  H   UNL     1     -41.349  60.498 -53.228  1.00  0.00     0.170 HD
ENDROOT
BRANCH   8  16
HETATM   16  C   UNL     1     -42.407  55.201 -53.764  1.00  0.00    -0.039 A 
HETATM   17  C   UNL     1     -41.503  54.705 -52.800  1.00  0.00     0.021 A 
HETATM   18  C   UNL     1     -40.860  53.463 -52.951  1.00  0.00    -0.025 A 
HETATM   19  C   UNL     1     -41.102  52.700 -54.112  1.00  0.00    -0.026 A 
HETATM   20  C   UNL     1     -39.995  52.962 -51.965  1.00  0.00     0.012 A 
HETATM   21  C   UNL     1     -41.974  53.200 -55.088  1.00  0.00     0.013 A 
HETATM   22  C   UNL     1     -40.468  51.454 -54.259  1.00  0.00     0.012 A 
HETATM   23  C   UNL     1     -42.619  54.428 -54.916  1.00  0.00     0.009 A 
HETATM   24  C   UNL     1     -39.614  50.968 -53.269  1.00  0.00     0.001 A 
HETATM   25  C   UNL     1     -39.378  51.719 -52.122  1.00  0.00     0.001 A 
ENDBRANCH   8  16
TORSDOF 1
ENDMDL
MODEL 6
REMARK VINA RESULT:      -7.5      2.479      5.230
REMARK  1 active torsions:
REMARK  status: ('A' for Active; 'I' for Inactive)
REMARK    1  A    between atoms: C_8  and  C_9 
ROOT
HETATM    1  C   UNL     1     -40.643  54.102 -54.040  1.00  0.00     0.073 C 
HETATM    2  C   UNL     1     -41.679  54.462 -53.033  1.00  0.00     0.062 A 
HETATM    3  N   UNL     1     -42.045  53.558 -52.123  1.00  0.00    -0.178 NA
HETATM    4  N   UNL     1     -42.933  54.205 -51.368  1.00  0.00    -0.262 N 
HETATM    5  H   UNL     1     -43.339  53.708 -50.585  1.00  0.00     0.191 HD
HETATM    6  C   UNL     1     -43.210  55.482 -51.785  1.00  0.00     0.134 A 
HETATM    7  C   UNL     1     -42.382  55.709 -52.876  1.00  0.00     0.032 A 
HETATM    8  C   UNL     1     -42.112  56.943 -53.683  1.00  0.00     0.119 C 
HETATM    9  S   UNL     1     -42.814  58.494 -53.085  1.00  0.00    -0.141 SA
HETATM   10  C   UNL     1     -44.538  57.989 -52.816  1.00  0.00     0.136 C 
HETATM   11  C   UNL     1     -45.423  59.221 -53.012  1.00  0.00     0.031 C 
HETATM   12  C   UNL     1     -44.713  57.411 -51.418  1.00  0.00     0.236 C 
HETATM   13  O   UNL     1     -45.459  57.925 -50.579  1.00  0.00    -0.272 OA
HETATM   14  N   UNL     1     -44.129  56.222 -51.079  1.00  0.00    -0.311 N 
HETATM   15  H   UNL     1     -44.448  55.887 -50.176  1.00  0.00     0.170 HD
ENDROOT
BRANCH   8  16
HETATM   16  C   UNL     1     -42.415  56.661 -55.150  1.00  0.00    -0.039 A 
HETATM   17  C   UNL     1     -42.084  57.649 -56.102  1.00  0.00     0.021 A 
HETATM   18  C   UNL     1     -42.283  57.451 -57.480  1.00  0.00    -0.025 A 
HETATM   19  C   UNL     1     -42.855  56.242 -57.926  1.00  0.00    -0.026 A 
HETATM   20  C   UNL     1     -41.912  58.426 -58.420  1.00  0.00     0.012 A 
HETATM   21  C   UNL     1     -43.214  55.268 -56.984  1.00  0.00     0.013 A 
HETATM   22  C   UNL     1     -43.045  56.039 -59.303  1.00  0.00     0.012 A 
HETATM   23  C   UNL     1     -42.995  55.472 -55.618  1.00  0.00     0.009 A 
HETATM   24  C   UNL     1     -42.667  57.015 -60.227  1.00  0.00     0.001 A 
HETATM   25  C   UNL     1     -42.100  58.207 -59.786  1.00  0.00     0.001 A 
ENDBRANCH   8  16
TORSDOF 1
ENDMDL
MODEL 7
REMARK VINA RESULT:      -7.3      3.621      5.947
REMARK  1 active torsions:
REMARK  status: ('A' for Active; 'I' for Inactive)
REMARK    1  A    between atoms: C_8  and  C_9 
ROOT
HETATM    1  C   UNL     1     -41.720  60.088 -53.781  1.00  0.00     0.073 C 
HETATM    2  C   UNL     1     -41.299  59.232 -52.638  1.00  0.00     0.062 A 
HETATM    3  N   UNL     1     -40.160  59.511 -52.002  1.00  0.00    -0.178 NA
HETATM    4  N   UNL     1     -40.108  58.601 -51.028  1.00  0.00    -0.262 N 
HETATM    5  H   UNL     1     -39.320  58.634 -50.392  1.00  0.00     0.191 HD
HETATM    6  C   UNL     1     -41.139  57.696 -51.040  1.00  0.00     0.134 A 
HETATM    7  C   UNL     1     -41.972  58.089 -52.078  1.00  0.00     0.032 A 
HETATM    8  C   UNL     1     -43.319  57.599 -52.515  1.00  0.00     0.119 C 
HETATM    9  S   UNL     1     -44.155  56.409 -51.446  1.00  0.00    -0.141 SA
HETATM   10  C   UNL     1     -42.824  55.197 -51.205  1.00  0.00     0.136 C 
HETATM   11  C   UNL     1     -43.470  53.831 -50.972  1.00  0.00     0.031 C 
HETATM   12  C   UNL     1     -41.949  55.593 -50.023  1.00  0.00     0.236 C 
HETATM   13  O   UNL     1     -41.835  54.884 -49.018  1.00  0.00    -0.272 OA
HETATM   14  N   UNL     1     -41.160  56.708 -50.084  1.00  0.00    -0.311 N 
HETATM   15  H   UNL     1     -40.526  56.767 -49.294  1.00  0.00     0.170 HD
ENDROOT
BRANCH   8  16
HETATM   16  C   UNL     1     -43.248  57.164 -53.974  1.00  0.00    -0.039 A 
HETATM   17  C   UNL     1     -44.170  57.724 -54.883  1.00  0.00     0.021 A 
HETATM   18  C   UNL     1     -44.143  57.417 -56.255  1.00  0.00    -0.025 A 
HETATM   19  C   UNL     1     -43.184  56.502 -56.737  1.00  0.00    -0.026 A 
HETATM   20  C   UNL     1     -45.040  58.012 -57.157  1.00  0.00     0.012 A 
HETATM   21  C   UNL     1     -42.284  55.919 -55.835  1.00  0.00     0.013 A 
HETATM   22  C   UNL     1     -43.149  56.202 -58.109  1.00  0.00     0.012 A 
HETATM   23  C   UNL     1     -42.312  56.246 -54.476  1.00  0.00     0.009 A 
HETATM   24  C   UNL     1     -44.045  56.804 -58.994  1.00  0.00     0.001 A 
HETATM   25  C   UNL     1     -44.988  57.710 -58.519  1.00  0.00     0.001 A 
ENDBRANCH   8  16
TORSDOF 1
ENDMDL
MODEL 8
REMARK VINA RESULT:      -7.3      3.136      4.729
REMARK  1 active torsions:
REMARK  status: ('A' for Active; 'I' for Inactive)
REMARK    1  A    between atoms: C_8  and  C_9 
ROOT
HETATM    1  C   UNL     1     -41.964  57.427 -54.986  1.00  0.00     0.073 C 
HETATM    2  C   UNL     1     -42.242  58.846 -54.630  1.00  0.00     0.062 A 
HETATM    3  N   UNL     1     -41.755  59.818 -55.403  1.00  0.00    -0.178 NA
HETATM    4  N   UNL     1     -42.217  60.935 -54.839  1.00  0.00    -0.262 N 
HETATM    5  H   UNL     1     -41.983  61.817 -55.279  1.00  0.00     0.191 HD
HETATM    6  C   UNL     1     -42.937  60.736 -53.689  1.00  0.00     0.134 A 
HETATM    7  C   UNL     1     -43.003  59.360 -53.521  1.00  0.00     0.032 A 
HETATM    8  C   UNL     1     -43.755  58.510 -52.542  1.00  0.00     0.119 C 
HETATM    9  S   UNL     1     -44.949  59.339 -51.471  1.00  0.00    -0.141 SA
HETATM   10  C   UNL     1     -43.927  60.701 -50.838  1.00  0.00     0.136 C 
HETATM   11  C   UNL     1     -44.447  61.070 -49.448  1.00  0.00     0.031 C 
HETATM   12  C   UNL     1     -43.991  61.897 -51.778  1.00  0.00     0.236 C 
HETATM   13  O   UNL     1     -44.442  62.991 -51.425  1.00  0.00    -0.272 OA
HETATM   14  N   UNL     1     -43.438  61.831 -53.026  1.00  0.00    -0.311 N 
HETATM   15  H   UNL     1     -43.422  62.738 -53.482  1.00  0.00     0.170 HD
ENDROOT
BRANCH   8  16
HETATM   16  C   UNL     1     -42.773  57.622 -51.788  1.00  0.00    -0.039 A 
HETATM   17  C   UNL     1     -42.915  56.222 -51.903  1.00  0.00     0.021 A 
HETATM   18  C   UNL     1     -42.023  55.330 -51.283  1.00  0.00    -0.025 A 
HETATM   19  C   UNL     1     -40.970  55.844 -50.498  1.00  0.00    -0.026 A 
HETATM   20  C   UNL     1     -42.150  53.940 -51.438  1.00  0.00     0.012 A 
HETATM   21  C   UNL     1     -40.840  57.232 -50.354  1.00  0.00     0.013 A 
HETATM   22  C   UNL     1     -40.071  54.954 -49.886  1.00  0.00     0.012 A 
HETATM   23  C   UNL     1     -41.725  58.107 -50.991  1.00  0.00     0.009 A 
HETATM   24  C   UNL     1     -40.208  53.575 -50.053  1.00  0.00     0.001 A 
HETATM   25  C   UNL     1     -41.245  53.068 -50.830  1.00  0.00     0.001 A 
ENDBRANCH   8  16
TORSDOF 1
ENDMDL
MODEL 9
REMARK VINA RESULT:      -7.3      3.390      5.485
REMARK  1 active torsions:
REMARK  status: ('A' for Active; 'I' for Inactive)
REMARK    1  A    between atoms: C_8  and  C_9 
ROOT
HETATM    1  C   UNL     1     -43.289  54.402 -52.222  1.00  0.00     0.073 C 
HETATM    2  C   UNL     1     -42.876  54.529 -53.647  1.00  0.00     0.062 A 
HETATM    3  N   UNL     1     -42.152  53.557 -54.203  1.00  0.00    -0.178 NA
HETATM    4  N   UNL     1     -41.997  53.956 -55.466  1.00  0.00    -0.262 N 
HETATM    5  H   UNL     1     -41.483  53.349 -56.094  1.00  0.00     0.191 HD
HETATM    6  C   UNL     1     -42.540  55.184 -55.744  1.00  0.00     0.134 A 
HETATM    7  C   UNL     1     -43.159  55.596 -54.572  1.00  0.00     0.032 A 
HETATM    8  C   UNL     1     -44.034  56.773 -54.266  1.00  0.00     0.119 C 
HETATM    9  S   UNL     1     -44.574  57.787 -55.658  1.00  0.00    -0.141 SA
HETATM   10  C   UNL     1     -42.984  58.076 -56.487  1.00  0.00     0.136 C 
HETATM   11  C   UNL     1     -43.069  59.421 -57.209  1.00  0.00     0.031 C 
HETATM   12  C   UNL     1     -42.681  56.951 -57.468  1.00  0.00     0.236 C 
HETATM   13  O   UNL     1     -42.560  57.147 -58.681  1.00  0.00    -0.272 OA
HETATM   14  N   UNL     1     -42.415  55.689 -57.017  1.00  0.00    -0.311 N 
HETATM   15  H   UNL     1     -42.087  55.082 -57.762  1.00  0.00     0.170 HD
ENDROOT
BRANCH   8  16
HETATM   16  C   UNL     1     -43.418  57.578 -53.128  1.00  0.00    -0.039 A 
HETATM   17  C   UNL     1     -42.012  57.676 -53.065  1.00  0.00     0.021 A 
HETATM   18  C   UNL     1     -41.362  58.439 -52.079  1.00  0.00    -0.025 A 
HETATM   19  C   UNL     1     -42.134  59.105 -51.104  1.00  0.00    -0.026 A 
HETATM   20  C   UNL     1     -39.963  58.562 -52.051  1.00  0.00     0.012 A 
HETATM   21  C   UNL     1     -43.530  58.987 -51.142  1.00  0.00     0.013 A 
HETATM   22  C   UNL     1     -41.487  59.876 -50.124  1.00  0.00     0.012 A 
HETATM   23  C   UNL     1     -44.163  58.238 -52.139  1.00  0.00     0.009 A 
HETATM   24  C   UNL     1     -40.096  59.992 -50.112  1.00  0.00     0.001 A 
HETATM   25  C   UNL     1     -39.335  59.338 -51.075  1.00  0.00     0.001 A 
ENDBRANCH   8  16
TORSDOF 1
ENDMDL
MODEL 10
REMARK VINA RESULT:      -7.2      3.807      7.702
REMARK  1 active torsions:
REMARK  status: ('A' for Active; 'I' for Inactive)
REMARK    1  A    between atoms: C_8  and  C_9 
ROOT
HETATM    1  C   UNL     1     -44.867  60.035 -54.577  1.00  0.00     0.073 C 
HETATM    2  C   UNL     1     -44.732  58.568 -54.360  1.00  0.00     0.062 A 
HETATM    3  N   UNL     1     -45.517  57.735 -55.045  1.00  0.00    -0.178 NA
HETATM    4  N   UNL     1     -45.115  56.524 -54.655  1.00  0.00    -0.262 N 
HETATM    5  H   UNL     1     -45.569  55.720 -55.069  1.00  0.00     0.191 HD
HETATM    6  C   UNL     1     -44.137  56.534 -53.693  1.00  0.00     0.134 A 
HETATM    7  C   UNL     1     -43.830  57.870 -53.481  1.00  0.00     0.032 A 
HETATM    8  C   UNL     1     -42.763  58.531 -52.663  1.00  0.00     0.119 C 
HETATM    9  S   UNL     1     -41.499  57.467 -51.935  1.00  0.00    -0.141 SA
HETATM   10  C   UNL     1     -42.547  56.210 -51.148  1.00  0.00     0.136 C 
HETATM   11  C   UNL     1     -41.793  55.665 -49.934  1.00  0.00     0.031 C 
HETATM   12  C   UNL     1     -42.872  55.094 -52.131  1.00  0.00     0.236 C 
HETATM   13  O   UNL     1     -42.522  53.924 -51.942  1.00  0.00    -0.272 OA
HETATM   14  N   UNL     1     -43.671  55.332 -53.214  1.00  0.00    -0.311 N 
HETATM   15  H   UNL     1     -43.922  54.474 -53.696  1.00  0.00     0.170 HD
ENDROOT
BRANCH   8  16
HETATM   16  C   UNL     1     -43.410  59.482 -51.663  1.00  0.00    -0.039 A 
HETATM   17  C   UNL     1     -42.798  60.733 -51.439  1.00  0.00     0.021 A 
HETATM   18  C   UNL     1     -43.355  61.690 -50.572  1.00  0.00    -0.025 A 
HETATM   19  C   UNL     1     -44.546  61.383 -49.883  1.00  0.00    -0.026 A 
HETATM   20  C   UNL     1     -42.758  62.948 -50.388  1.00  0.00     0.012 A 
HETATM   21  C   UNL     1     -45.144  60.130 -50.077  1.00  0.00     0.013 A 
HETATM   22  C   UNL     1     -45.110  62.342 -49.024  1.00  0.00     0.012 A 
HETATM   23  C   UNL     1     -44.587  59.196 -50.955  1.00  0.00     0.009 A 
HETATM   24  C   UNL     1     -44.507  63.589 -48.855  1.00  0.00     0.001 A 
HETATM   25  C   UNL     1     -43.333  63.893 -49.537  1.00  0.00     0.001 A 
ENDBRANCH   8  16
TORSDOF 1
ENDMDL
