MODEL 1
REMARK VINA RESULT:      -8.5      0.000      0.000
REMARK  6 active torsions:
REMARK  status: ('A' for Active; 'I' for Inactive)
REMARK    1  A    between atoms: O_2  and  C_3 
REMARK    2  A    between atoms: C_6  and  C_7 
REMARK    3  A    between atoms: C_13  and  C_14 
REMARK       I    between atoms: C_14  and  N_15 
REMARK    4  A    between atoms: N_15  and  C_16 
REMARK    5  A    between atoms: C_16  and  C_17 
REMARK    6  A    between atoms: C_24  and  C_25 
ROOT
HETATM    1  C   UNL     1     -40.681  55.124 -53.616  1.00  0.00     0.118 C 
HETATM    2  N   UNL     1     -41.456  55.219 -54.858  1.00  0.00    -0.365 N 
HETATM    3  C   UNL     1     -41.951  56.431 -55.238  1.00  0.00     0.138 A 
HETATM    4  N   UNL     1     -41.943  57.494 -54.359  1.00  0.00    -0.240 N 
HETATM    5  N   UNL     1     -42.391  58.639 -54.885  1.00  0.00    -0.181 NA
HETATM    6  C   UNL     1     -42.802  58.274 -56.102  1.00  0.00     0.160 A 
HETATM    7  C   UNL     1     -42.551  56.907 -56.391  1.00  0.00     0.096 A 
HETATM    8  C   UNL     1     -41.459  57.430 -52.990  1.00  0.00     0.221 C 
HETATM    9  C   UNL     1     -41.370  55.963 -52.533  1.00  0.00     0.066 C 
HETATM   10  H   UNL     1     -41.964  54.368 -55.106  1.00  0.00     0.161 HD
ENDROOT
BRANCH   7  11
HETATM   11  C   UNL     1     -42.852  56.266 -57.655  1.00  0.00     0.257 C 
HETATM   12  N   UNL     1     -42.715  57.053 -58.776  1.00  0.00    -0.352 N 
HETATM   13  H   UNL     1     -42.619  58.051 -58.633  1.00  0.00     0.163 HD
HETATM   14  O   UNL     1     -43.238  55.103 -57.705  1.00  0.00    -0.267 OA
BRANCH  12  15
HETATM   15  C   UNL     1     -43.166  56.574 -60.061  1.00  0.00     0.161 C 
BRANCH  15  16
HETATM   16  C   UNL     1     -44.617  56.874 -60.339  1.00  0.00    -0.041 A 
HETATM   17  C   UNL     1     -45.522  55.868 -60.704  1.00  0.00     0.009 A 
HETATM   18  C   UNL     1     -46.879  56.156 -60.867  1.00  0.00     0.001 A 
HETATM   19  C   UNL     1     -47.350  57.448 -60.648  1.00  0.00     0.000 A 
HETATM   20  C   UNL     1     -46.467  58.454 -60.268  1.00  0.00     0.001 A 
HETATM   21  C   UNL     1     -45.110  58.170 -60.111  1.00  0.00     0.009 A 
ENDBRANCH  15  16
ENDBRANCH  12  15
ENDBRANCH   7  11
BRANCH   1  22
HETATM   22  C   UNL     1     -40.429  53.670 -53.264  1.00  0.00    -0.035 A 
HETATM   23  C   UNL     1     -40.362  52.725 -54.304  1.00  0.00     0.012 A 
HETATM   24  C   UNL     1     -40.060  51.381 -54.049  1.00  0.00     0.037 A 
HETATM   25  C   UNL     1     -39.822  50.955 -52.745  1.00  0.00     0.068 A 
HETATM   26  C   UNL     1     -39.927  51.873 -51.701  1.00  0.00     0.037 A 
HETATM   27  C   UNL     1     -40.229  53.217 -51.953  1.00  0.00     0.012 A 
BRANCH  25  28
HETATM   28  O   UNL     1     -39.492  49.685 -52.362  1.00  0.00    -0.356 OA
HETATM   29  C   UNL     1     -39.455  49.432 -50.962  1.00  0.00     0.210 C 
ENDBRANCH  25  28
ENDBRANCH   1  22
BRANCH   8  30
HETATM   30  C   UNL     1     -42.339  58.201 -52.028  1.00  0.00     0.409 C 
HETATM   31  F   UNL     1     -43.652  58.103 -52.335  1.00  0.00    -0.169 F 
HETATM   32  F   UNL     1     -42.198  57.682 -50.776  1.00  0.00    -0.169 F 
HETATM   33  F   UNL     1     -42.017  59.507 -51.925  1.00  0.00    -0.169 F 
ENDBRANCH   8  30
TORSDOF 6
ENDMDL
MODEL 2
REMARK VINA RESULT:      -8.3      0.876      1.280
REMARK  6 active torsions:
REMARK  status: ('A' for Active; 'I' for Inactive)
REMARK    1  A    between atoms: O_2  and  C_3 
REMARK    2  A    between atoms: C_6  and  C_7 
REMARK    3  A    between atoms: C_13  and  C_14 
REMARK       I    between atoms: C_14  and  N_15 
REMARK    4  A    between atoms: N_15  and  C_16 
REMARK    5  A    between atoms: C_16  and  C_17 
REMARK    6  A    between atoms: C_24  and  C_25 
ROOT
HETATM    1  C   UNL     1     -41.164  55.568 -53.283  1.00  0.00     0.118 C 
HETATM    2  N   UNL     1     -41.709  55.751 -54.633  1.00  0.00    -0.365 N 
HETATM    3  C   UNL     1     -42.386  56.897 -54.923  1.00  0.00     0.138 A 
HETATM    4  N   UNL     1     -42.771  57.755 -53.912  1.00  0.00    -0.240 N 
HETATM    5  N   UNL     1     -43.363  58.873 -54.344  1.00  0.00    -0.181 NA
HETATM    6  C   UNL     1     -43.460  58.678 -55.661  1.00  0.00     0.160 A 
HETATM    7  C   UNL     1     -42.864  57.464 -56.092  1.00  0.00     0.096 A 
HETATM    8  C   UNL     1     -42.535  57.522 -52.498  1.00  0.00     0.221 C 
HETATM    9  C   UNL     1     -42.204  56.038 -52.258  1.00  0.00     0.066 C 
HETATM   10  H   UNL     1     -41.961  54.883 -55.108  1.00  0.00     0.161 HD
ENDROOT
BRANCH   7  11
HETATM   11  C   UNL     1     -42.786  57.032 -57.473  1.00  0.00     0.257 C 
HETATM   12  N   UNL     1     -42.918  58.021 -58.421  1.00  0.00    -0.352 N 
HETATM   13  H   UNL     1     -43.259  58.922 -58.106  1.00  0.00     0.163 HD
HETATM   14  O   UNL     1     -42.645  55.849 -57.765  1.00  0.00    -0.267 OA
BRANCH  12  15
HETATM   15  C   UNL     1     -43.043  57.679 -59.818  1.00  0.00     0.161 C 
BRANCH  15  16
HETATM   16  C   UNL     1     -44.426  57.216 -60.202  1.00  0.00    -0.041 A 
HETATM   17  C   UNL     1     -44.674  55.900 -60.618  1.00  0.00     0.009 A 
HETATM   18  C   UNL     1     -45.976  55.471 -60.881  1.00  0.00     0.001 A 
HETATM   19  C   UNL     1     -47.048  56.345 -60.713  1.00  0.00     0.000 A 
HETATM   20  C   UNL     1     -46.819  57.649 -60.283  1.00  0.00     0.001 A 
HETATM   21  C   UNL     1     -45.517  58.082 -60.027  1.00  0.00     0.009 A 
ENDBRANCH  15  16
ENDBRANCH  12  15
ENDBRANCH   7  11
BRANCH   1  22
HETATM   22  C   UNL     1     -40.660  54.147 -53.108  1.00  0.00    -0.035 A 
HETATM   23  C   UNL     1     -40.422  53.670 -51.807  1.00  0.00     0.012 A 
HETATM   24  C   UNL     1     -40.025  52.346 -51.579  1.00  0.00     0.037 A 
HETATM   25  C   UNL     1     -39.854  51.474 -52.650  1.00  0.00     0.068 A 
HETATM   26  C   UNL     1     -40.046  51.947 -53.948  1.00  0.00     0.037 A 
HETATM   27  C   UNL     1     -40.442  53.269 -54.179  1.00  0.00     0.012 A 
BRANCH  25  28
HETATM   28  O   UNL     1     -39.499  50.156 -52.566  1.00  0.00    -0.356 OA
HETATM   29  C   UNL     1     -39.503  49.579 -51.266  1.00  0.00     0.210 C 
ENDBRANCH  25  28
ENDBRANCH   1  22
BRANCH   8  30
HETATM   30  C   UNL     1     -43.721  57.914 -51.640  1.00  0.00     0.409 C 
HETATM   31  F   UNL     1     -44.898  57.777 -52.290  1.00  0.00    -0.169 F 
HETATM   32  F   UNL     1     -43.783  57.091 -50.557  1.00  0.00    -0.169 F 
HETATM   33  F   UNL     1     -43.644  59.168 -51.148  1.00  0.00    -0.169 F 
ENDBRANCH   8  30
TORSDOF 6
ENDMDL
MODEL 3
REMARK VINA RESULT:      -8.2      1.842      2.534
REMARK  6 active torsions:
REMARK  status: ('A' for Active; 'I' for Inactive)
REMARK    1  A    between atoms: O_2  and  C_3 
REMARK    2  A    between atoms: C_6  and  C_7 
REMARK    3  A    between atoms: C_13  and  C_14 
REMARK       I    between atoms: C_14  and  N_15 
REMARK    4  A    between atoms: N_15  and  C_16 
REMARK    5  A    between atoms: C_16  and  C_17 
REMARK    6  A    between atoms: C_24  and  C_25 
ROOT
HETATM    1  C   UNL     1     -41.101  56.552 -53.376  1.00  0.00     0.118 C 
HETATM    2  N   UNL     1     -42.346  56.849 -54.093  1.00  0.00    -0.365 N 
HETATM    3  C   UNL     1     -42.846  58.116 -54.052  1.00  0.00     0.138 A 
HETATM    4  N   UNL     1     -42.339  59.038 -53.159  1.00  0.00    -0.240 N 
HETATM    5  N   UNL     1     -42.872  60.259 -53.277  1.00  0.00    -0.181 NA
HETATM    6  C   UNL     1     -43.826  60.088 -54.195  1.00  0.00     0.160 A 
HETATM    7  C   UNL     1     -43.861  58.773 -54.727  1.00  0.00     0.096 A 
HETATM    8  C   UNL     1     -41.291  58.760 -52.192  1.00  0.00     0.221 C 
HETATM    9  C   UNL     1     -41.138  57.240 -52.006  1.00  0.00     0.066 C 
HETATM   10  H   UNL     1     -42.986  56.057 -54.174  1.00  0.00     0.161 HD
ENDROOT
BRANCH   7  11
HETATM   11  C   UNL     1     -44.764  58.332 -55.771  1.00  0.00     0.257 C 
HETATM   12  N   UNL     1     -44.433  58.711 -57.053  1.00  0.00    -0.352 N 
HETATM   13  H   UNL     1     -43.720  59.423 -57.155  1.00  0.00     0.163 HD
HETATM   14  O   UNL     1     -45.777  57.691 -55.511  1.00  0.00    -0.267 OA
BRANCH  12  15
HETATM   15  C   UNL     1     -45.356  58.488 -58.140  1.00  0.00     0.161 C 
BRANCH  15  16
HETATM   16  C   UNL     1     -45.032  57.266 -58.962  1.00  0.00    -0.041 A 
HETATM   17  C   UNL     1     -43.775  56.648 -58.900  1.00  0.00     0.009 A 
HETATM   18  C   UNL     1     -43.529  55.466 -59.602  1.00  0.00     0.001 A 
HETATM   19  C   UNL     1     -44.540  54.876 -60.356  1.00  0.00     0.000 A 
HETATM   20  C   UNL     1     -45.799  55.468 -60.412  1.00  0.00     0.001 A 
HETATM   21  C   UNL     1     -46.045  56.654 -59.718  1.00  0.00     0.009 A 
ENDBRANCH  15  16
ENDBRANCH  12  15
ENDBRANCH   7  11
BRANCH   1  22
HETATM   22  C   UNL     1     -40.849  55.056 -53.357  1.00  0.00    -0.035 A 
HETATM   23  C   UNL     1     -40.540  54.407 -54.566  1.00  0.00     0.012 A 
HETATM   24  C   UNL     1     -40.227  53.042 -54.601  1.00  0.00     0.037 A 
HETATM   25  C   UNL     1     -40.222  52.297 -53.425  1.00  0.00     0.068 A 
HETATM   26  C   UNL     1     -40.569  52.919 -52.227  1.00  0.00     0.037 A 
HETATM   27  C   UNL     1     -40.882  54.283 -52.189  1.00  0.00     0.012 A 
BRANCH  25  28
HETATM   28  O   UNL     1     -39.910  50.971 -53.316  1.00  0.00    -0.356 OA
HETATM   29  C   UNL     1     -39.929  50.211 -54.518  1.00  0.00     0.210 C 
ENDBRANCH  25  28
ENDBRANCH   1  22
BRANCH   8  30
HETATM   30  C   UNL     1     -41.558  59.404 -50.847  1.00  0.00     0.409 C 
HETATM   31  F   UNL     1     -41.222  60.713 -50.824  1.00  0.00    -0.169 F 
HETATM   32  F   UNL     1     -42.893  59.347 -50.579  1.00  0.00    -0.169 F 
HETATM   33  F   UNL     1     -40.947  58.784 -49.817  1.00  0.00    -0.169 F 
ENDBRANCH   8  30
TORSDOF 6
ENDMDL
MODEL 4
REMARK VINA RESULT:      -7.9      3.608      6.712
REMARK  6 active torsions:
REMARK  status: ('A' for Active; 'I' for Inactive)
REMARK    1  A    between atoms: O_2  and  C_3 
REMARK    2  A    between atoms: C_6  and  C_7 
REMARK    3  A    between atoms: C_13  and  C_14 
REMARK       I    between atoms: C_14  and  N_15 
REMARK    4  A    between atoms: N_15  and  C_16 
REMARK    5  A    between atoms: C_16  and  C_17 
REMARK    6  A    between atoms: C_24  and  C_25 
ROOT
HETATM    1  C   UNL     1     -42.646  54.454 -54.278  1.00  0.00     0.118 C 
HETATM    2  N   UNL     1     -43.017  55.545 -53.369  1.00  0.00    -0.365 N 
HETATM    3  C   UNL     1     -43.780  56.570 -53.843  1.00  0.00     0.138 A 
HETATM    4  N   UNL     1     -43.992  56.712 -55.199  1.00  0.00    -0.240 N 
HETATM    5  N   UNL     1     -44.816  57.716 -55.518  1.00  0.00    -0.181 NA
HETATM    6  C   UNL     1     -45.052  58.302 -54.342  1.00  0.00     0.160 A 
HETATM    7  C   UNL     1     -44.439  57.633 -53.251  1.00  0.00     0.096 A 
HETATM    8  C   UNL     1     -43.425  55.846 -56.219  1.00  0.00     0.221 C 
HETATM    9  C   UNL     1     -42.246  55.048 -55.634  1.00  0.00     0.066 C 
HETATM   10  H   UNL     1     -42.340  55.723 -52.625  1.00  0.00     0.161 HD
ENDROOT
BRANCH   7  11
HETATM   11  C   UNL     1     -44.574  58.030 -51.864  1.00  0.00     0.257 C 
HETATM   12  N   UNL     1     -45.422  59.087 -51.620  1.00  0.00    -0.352 N 
HETATM   13  H   UNL     1     -45.722  59.633 -52.419  1.00  0.00     0.163 HD
HETATM   14  O   UNL     1     -43.939  57.471 -50.975  1.00  0.00    -0.267 OA
BRANCH  12  15
HETATM   15  C   UNL     1     -45.486  59.681 -50.306  1.00  0.00     0.161 C 
BRANCH  15  16
HETATM   16  C   UNL     1     -44.846  61.044 -50.231  1.00  0.00    -0.041 A 
HETATM   17  C   UNL     1     -45.569  62.177 -49.831  1.00  0.00     0.009 A 
HETATM   18  C   UNL     1     -44.933  63.411 -49.684  1.00  0.00     0.001 A 
HETATM   19  C   UNL     1     -43.564  63.524 -49.913  1.00  0.00     0.000 A 
HETATM   20  C   UNL     1     -42.829  62.404 -50.294  1.00  0.00     0.001 A 
HETATM   21  C   UNL     1     -43.465  61.171 -50.449  1.00  0.00     0.009 A 
ENDBRANCH  15  16
ENDBRANCH  12  15
ENDBRANCH   7  11
BRANCH   1  22
HETATM   22  C   UNL     1     -41.617  53.551 -53.622  1.00  0.00    -0.035 A 
HETATM   23  C   UNL     1     -41.330  53.733 -52.258  1.00  0.00     0.012 A 
HETATM   24  C   UNL     1     -40.444  52.886 -51.581  1.00  0.00     0.037 A 
HETATM   25  C   UNL     1     -39.824  51.839 -52.258  1.00  0.00     0.068 A 
HETATM   26  C   UNL     1     -40.068  51.674 -53.621  1.00  0.00     0.037 A 
HETATM   27  C   UNL     1     -40.953  52.520 -54.300  1.00  0.00     0.012 A 
BRANCH  25  28
HETATM   28  O   UNL     1     -38.965  50.926 -51.713  1.00  0.00    -0.356 OA
HETATM   29  C   UNL     1     -39.553  49.859 -50.980  1.00  0.00     0.210 C 
ENDBRANCH  25  28
ENDBRANCH   1  22
BRANCH   8  30
HETATM   30  C   UNL     1     -42.953  56.616 -57.435  1.00  0.00     0.409 C 
HETATM   31  F   UNL     1     -42.015  57.540 -57.131  1.00  0.00    -0.169 F 
HETATM   32  F   UNL     1     -42.369  55.753 -58.314  1.00  0.00    -0.169 F 
HETATM   33  F   UNL     1     -43.948  57.220 -58.116  1.00  0.00    -0.169 F 
ENDBRANCH   8  30
TORSDOF 6
ENDMDL
MODEL 5
REMARK VINA RESULT:      -7.9      1.640      2.177
REMARK  6 active torsions:
REMARK  status: ('A' for Active; 'I' for Inactive)
REMARK    1  A    between atoms: O_2  and  C_3 
REMARK    2  A    between atoms: C_6  and  C_7 
REMARK    3  A    between atoms: C_13  and  C_14 
REMARK       I    between atoms: C_14  and  N_15 
REMARK    4  A    between atoms: N_15  and  C_16 
REMARK    5  A    between atoms: C_16  and  C_17 
REMARK    6  A    between atoms: C_24  and  C_25 
ROOT
HETATM    1  C   UNL     1     -41.359  55.539 -53.246  1.00  0.00     0.118 C 
HETATM    2  N   UNL     1     -41.816  55.748 -54.624  1.00  0.00    -0.365 N 
HETATM    3  C   UNL     1     -42.461  56.906 -54.939  1.00  0.00     0.138 A 
HETATM    4  N   UNL     1     -42.898  57.754 -53.942  1.00  0.00    -0.240 N 
HETATM    5  N   UNL     1     -43.450  58.886 -54.394  1.00  0.00    -0.181 NA
HETATM    6  C   UNL     1     -43.466  58.710 -55.717  1.00  0.00     0.160 A 
HETATM    7  C   UNL     1     -42.858  57.495 -56.127  1.00  0.00     0.096 A 
HETATM    8  C   UNL     1     -42.754  57.499 -52.519  1.00  0.00     0.221 C 
HETATM    9  C   UNL     1     -42.455  56.008 -52.281  1.00  0.00     0.066 C 
HETATM   10  H   UNL     1     -42.048  54.889 -55.127  1.00  0.00     0.161 HD
ENDROOT
BRANCH   7  11
HETATM   11  C   UNL     1     -42.699  57.081 -57.507  1.00  0.00     0.257 C 
HETATM   12  N   UNL     1     -41.912  57.894 -58.292  1.00  0.00    -0.352 N 
HETATM   13  H   UNL     1     -41.676  58.807 -57.922  1.00  0.00     0.163 HD
HETATM   14  O   UNL     1     -43.264  56.084 -57.944  1.00  0.00    -0.267 OA
BRANCH  12  15
HETATM   15  C   UNL     1     -41.839  57.679 -59.718  1.00  0.00     0.161 C 
BRANCH  15  16
HETATM   16  C   UNL     1     -42.541  58.744 -60.522  1.00  0.00    -0.041 A 
HETATM   17  C   UNL     1     -43.935  58.891 -60.493  1.00  0.00     0.009 A 
HETATM   18  C   UNL     1     -44.553  59.941 -61.175  1.00  0.00     0.001 A 
HETATM   19  C   UNL     1     -43.786  60.867 -61.878  1.00  0.00     0.000 A 
HETATM   20  C   UNL     1     -42.399  60.744 -61.901  1.00  0.00     0.001 A 
HETATM   21  C   UNL     1     -41.780  59.692 -61.226  1.00  0.00     0.009 A 
ENDBRANCH  15  16
ENDBRANCH  12  15
ENDBRANCH   7  11
BRANCH   1  22
HETATM   22  C   UNL     1     -40.883  54.110 -53.061  1.00  0.00    -0.035 A 
HETATM   23  C   UNL     1     -40.729  53.297 -54.198  1.00  0.00     0.012 A 
HETATM   24  C   UNL     1     -40.225  51.994 -54.098  1.00  0.00     0.037 A 
HETATM   25  C   UNL     1     -39.867  51.477 -52.855  1.00  0.00     0.068 A 
HETATM   26  C   UNL     1     -40.055  52.259 -51.716  1.00  0.00     0.037 A 
HETATM   27  C   UNL     1     -40.559  53.561 -51.813  1.00  0.00     0.012 A 
BRANCH  25  28
HETATM   28  O   UNL     1     -39.339  50.238 -52.622  1.00  0.00    -0.356 OA
HETATM   29  C   UNL     1     -39.454  49.738 -51.296  1.00  0.00     0.210 C 
ENDBRANCH  25  28
ENDBRANCH   1  22
BRANCH   8  30
HETATM   30  C   UNL     1     -43.986  57.894 -51.732  1.00  0.00     0.409 C 
HETATM   31  F   UNL     1     -44.173  57.121 -50.639  1.00  0.00    -0.169 F 
HETATM   32  F   UNL     1     -43.839  59.170 -51.278  1.00  0.00    -0.169 F 
HETATM   33  F   UNL     1     -45.121  57.889 -52.461  1.00  0.00    -0.169 F 
ENDBRANCH   8  30
TORSDOF 6
ENDMDL
MODEL 6
REMARK VINA RESULT:      -7.9      3.648      6.918
REMARK  6 active torsions:
REMARK  status: ('A' for Active; 'I' for Inactive)
REMARK    1  A    between atoms: O_2  and  C_3 
REMARK    2  A    between atoms: C_6  and  C_7 
REMARK    3  A    between atoms: C_13  and  C_14 
REMARK       I    between atoms: C_14  and  N_15 
REMARK    4  A    between atoms: N_15  and  C_16 
REMARK    5  A    between atoms: C_16  and  C_17 
REMARK    6  A    between atoms: C_24  and  C_25 
ROOT
HETATM    1  C   UNL     1     -42.326  54.776 -53.995  1.00  0.00     0.118 C 
HETATM    2  N   UNL     1     -42.168  56.021 -53.235  1.00  0.00    -0.365 N 
HETATM    3  C   UNL     1     -42.778  57.154 -53.687  1.00  0.00     0.138 A 
HETATM    4  N   UNL     1     -43.322  57.195 -54.954  1.00  0.00    -0.240 N 
HETATM    5  N   UNL     1     -43.951  58.340 -55.239  1.00  0.00    -0.181 NA
HETATM    6  C   UNL     1     -43.707  59.096 -54.166  1.00  0.00     0.160 A 
HETATM    7  C   UNL     1     -42.984  58.414 -53.154  1.00  0.00     0.096 A 
HETATM    8  C   UNL     1     -43.277  56.099 -55.908  1.00  0.00     0.221 C 
HETATM    9  C   UNL     1     -42.197  55.085 -55.492  1.00  0.00     0.066 C 
HETATM   10  H   UNL     1     -41.288  56.094 -52.722  1.00  0.00     0.161 HD
ENDROOT
BRANCH   7  11
HETATM   11  C   UNL     1     -42.631  58.986 -51.869  1.00  0.00     0.257 C 
HETATM   12  N   UNL     1     -42.915  60.323 -51.708  1.00  0.00    -0.352 N 
HETATM   13  H   UNL     1     -43.151  60.850 -52.540  1.00  0.00     0.163 HD
HETATM   14  O   UNL     1     -42.081  58.315 -51.001  1.00  0.00    -0.267 OA
BRANCH  12  15
HETATM   15  C   UNL     1     -42.438  61.033 -50.545  1.00  0.00     0.161 C 
BRANCH  15  16
HETATM   16  C   UNL     1     -43.513  61.819 -49.838  1.00  0.00    -0.041 A 
HETATM   17  C   UNL     1     -43.496  63.221 -49.798  1.00  0.00     0.009 A 
HETATM   18  C   UNL     1     -44.550  63.928 -49.215  1.00  0.00     0.001 A 
HETATM   19  C   UNL     1     -45.642  63.246 -48.685  1.00  0.00     0.000 A 
HETATM   20  C   UNL     1     -45.681  61.855 -48.733  1.00  0.00     0.001 A 
HETATM   21  C   UNL     1     -44.626  61.146 -49.309  1.00  0.00     0.009 A 
ENDBRANCH  15  16
ENDBRANCH  12  15
ENDBRANCH   7  11
BRANCH   1  22
HETATM   22  C   UNL     1     -41.390  53.710 -53.457  1.00  0.00    -0.035 A 
HETATM   23  C   UNL     1     -41.011  53.764 -52.104  1.00  0.00     0.012 A 
HETATM   24  C   UNL     1     -40.208  52.769 -51.532  1.00  0.00     0.037 A 
HETATM   25  C   UNL     1     -39.765  51.700 -52.306  1.00  0.00     0.068 A 
HETATM   26  C   UNL     1     -40.099  51.657 -53.659  1.00  0.00     0.037 A 
HETATM   27  C   UNL     1     -40.900  52.651 -54.233  1.00  0.00     0.012 A 
BRANCH  25  28
HETATM   28  O   UNL     1     -39.004  50.652 -51.869  1.00  0.00    -0.356 OA
HETATM   29  C   UNL     1     -39.570  49.836 -50.850  1.00  0.00     0.210 C 
ENDBRANCH  25  28
ENDBRANCH   1  22
BRANCH   8  30
HETATM   30  C   UNL     1     -43.001  56.572 -57.320  1.00  0.00     0.409 C 
HETATM   31  F   UNL     1     -41.992  57.470 -57.378  1.00  0.00    -0.169 F 
HETATM   32  F   UNL     1     -42.613  55.511 -58.081  1.00  0.00    -0.169 F 
HETATM   33  F   UNL     1     -44.079  57.096 -57.938  1.00  0.00    -0.169 F 
ENDBRANCH   8  30
TORSDOF 6
ENDMDL
MODEL 7
REMARK VINA RESULT:      -7.8      2.349      8.491
REMARK  6 active torsions:
REMARK  status: ('A' for Active; 'I' for Inactive)
REMARK    1  A    between atoms: O_2  and  C_3 
REMARK    2  A    between atoms: C_6  and  C_7 
REMARK    3  A    between atoms: C_13  and  C_14 
REMARK       I    between atoms: C_14  and  N_15 
REMARK    4  A    between atoms: N_15  and  C_16 
REMARK    5  A    between atoms: C_16  and  C_17 
REMARK    6  A    between atoms: C_24  and  C_25 
ROOT
HETATM    1  C   UNL     1     -45.428  57.884 -55.532  1.00  0.00     0.118 C 
HETATM    2  N   UNL     1     -44.360  56.885 -55.407  1.00  0.00    -0.365 N 
HETATM    3  C   UNL     1     -43.826  56.639 -54.177  1.00  0.00     0.138 A 
HETATM    4  N   UNL     1     -44.099  57.479 -53.117  1.00  0.00    -0.240 N 
HETATM    5  N   UNL     1     -43.569  57.079 -51.956  1.00  0.00    -0.181 NA
HETATM    6  C   UNL     1     -42.844  56.013 -52.303  1.00  0.00     0.160 A 
HETATM    7  C   UNL     1     -42.964  55.679 -53.677  1.00  0.00     0.096 A 
HETATM    8  C   UNL     1     -44.920  58.674 -53.201  1.00  0.00     0.221 C 
HETATM    9  C   UNL     1     -45.074  59.103 -54.672  1.00  0.00     0.066 C 
HETATM   10  H   UNL     1     -43.777  56.784 -56.239  1.00  0.00     0.161 HD
ENDROOT
BRANCH   7  11
HETATM   11  C   UNL     1     -42.322  54.541 -54.305  1.00  0.00     0.257 C 
HETATM   12  N   UNL     1     -41.063  54.231 -53.843  1.00  0.00    -0.352 N 
HETATM   13  H   UNL     1     -40.599  54.920 -53.263  1.00  0.00     0.163 HD
HETATM   14  O   UNL     1     -42.865  53.922 -55.214  1.00  0.00    -0.267 OA
BRANCH  12  15
HETATM   15  C   UNL     1     -40.262  53.239 -54.522  1.00  0.00     0.161 C 
BRANCH  15  16
HETATM   16  C   UNL     1     -40.071  51.973 -53.726  1.00  0.00    -0.041 A 
HETATM   17  C   UNL     1     -39.998  50.717 -54.345  1.00  0.00     0.009 A 
HETATM   18  C   UNL     1     -39.731  49.570 -53.595  1.00  0.00     0.001 A 
HETATM   19  C   UNL     1     -39.514  49.666 -52.223  1.00  0.00     0.000 A 
HETATM   20  C   UNL     1     -39.565  50.909 -51.597  1.00  0.00     0.001 A 
HETATM   21  C   UNL     1     -39.839  52.055 -52.344  1.00  0.00     0.009 A 
ENDBRANCH  15  16
ENDBRANCH  12  15
ENDBRANCH   7  11
BRANCH   1  22
HETATM   22  C   UNL     1     -45.713  58.168 -56.995  1.00  0.00    -0.035 A 
HETATM   23  C   UNL     1     -47.033  58.460 -57.382  1.00  0.00     0.012 A 
HETATM   24  C   UNL     1     -47.346  58.800 -58.704  1.00  0.00     0.037 A 
HETATM   25  C   UNL     1     -46.342  58.852 -59.668  1.00  0.00     0.068 A 
HETATM   26  C   UNL     1     -45.036  58.523 -59.305  1.00  0.00     0.037 A 
HETATM   27  C   UNL     1     -44.721  58.182 -57.985  1.00  0.00     0.012 A 
BRANCH  25  28
HETATM   28  O   UNL     1     -46.505  59.195 -60.980  1.00  0.00    -0.356 OA
HETATM   29  C   UNL     1     -47.762  58.883 -61.568  1.00  0.00     0.210 C 
ENDBRANCH  25  28
ENDBRANCH   1  22
BRANCH   8  30
HETATM   30  C   UNL     1     -44.348  59.827 -52.402  1.00  0.00     0.409 C 
HETATM   31  F   UNL     1     -44.542  59.681 -51.072  1.00  0.00    -0.169 F 
HETATM   32  F   UNL     1     -43.000  59.878 -52.589  1.00  0.00    -0.169 F 
HETATM   33  F   UNL     1     -44.819  61.034 -52.776  1.00  0.00    -0.169 F 
ENDBRANCH   8  30
TORSDOF 6
ENDMDL
MODEL 8
REMARK VINA RESULT:      -7.8      3.659      8.261
REMARK  6 active torsions:
REMARK  status: ('A' for Active; 'I' for Inactive)
REMARK    1  A    between atoms: O_2  and  C_3 
REMARK    2  A    between atoms: C_6  and  C_7 
REMARK    3  A    between atoms: C_13  and  C_14 
REMARK       I    between atoms: C_14  and  N_15 
REMARK    4  A    between atoms: N_15  and  C_16 
REMARK    5  A    between atoms: C_16  and  C_17 
REMARK    6  A    between atoms: C_24  and  C_25 
ROOT
HETATM    1  C   UNL     1     -42.028  56.279 -55.472  1.00  0.00     0.118 C 
HETATM    2  N   UNL     1     -42.975  56.902 -54.541  1.00  0.00    -0.365 N 
HETATM    3  C   UNL     1     -42.735  56.821 -53.202  1.00  0.00     0.138 A 
HETATM    4  N   UNL     1     -41.767  55.965 -52.717  1.00  0.00    -0.240 N 
HETATM    5  N   UNL     1     -41.588  56.040 -51.393  1.00  0.00    -0.181 NA
HETATM    6  C   UNL     1     -42.544  56.887 -51.004  1.00  0.00     0.160 A 
HETATM    7  C   UNL     1     -43.295  57.418 -52.085  1.00  0.00     0.096 A 
HETATM    8  C   UNL     1     -40.962  55.079 -53.539  1.00  0.00     0.221 C 
HETATM    9  C   UNL     1     -41.615  54.908 -54.923  1.00  0.00     0.066 C 
HETATM   10  H   UNL     1     -43.938  56.938 -54.879  1.00  0.00     0.161 HD
ENDROOT
BRANCH   7  11
HETATM   11  C   UNL     1     -44.358  58.394 -51.947  1.00  0.00     0.257 C 
HETATM   12  N   UNL     1     -44.578  58.865 -50.672  1.00  0.00    -0.352 N 
HETATM   13  H   UNL     1     -44.140  58.363 -49.910  1.00  0.00     0.163 HD
HETATM   14  O   UNL     1     -45.034  58.742 -52.909  1.00  0.00    -0.267 OA
BRANCH  12  15
HETATM   15  C   UNL     1     -45.727  59.694 -50.392  1.00  0.00     0.161 C 
BRANCH  15  16
HETATM   16  C   UNL     1     -45.397  60.925 -49.586  1.00  0.00    -0.041 A 
HETATM   17  C   UNL     1     -45.402  60.912 -48.184  1.00  0.00     0.009 A 
HETATM   18  C   UNL     1     -45.005  62.038 -47.460  1.00  0.00     0.001 A 
HETATM   19  C   UNL     1     -44.581  63.184 -48.128  1.00  0.00     0.000 A 
HETATM   20  C   UNL     1     -44.553  63.207 -49.520  1.00  0.00     0.001 A 
HETATM   21  C   UNL     1     -44.956  62.084 -50.245  1.00  0.00     0.009 A 
ENDBRANCH  15  16
ENDBRANCH  12  15
ENDBRANCH   7  11
BRANCH   1  22
HETATM   22  C   UNL     1     -42.596  56.283 -56.880  1.00  0.00    -0.035 A 
HETATM   23  C   UNL     1     -42.477  57.452 -57.653  1.00  0.00     0.012 A 
HETATM   24  C   UNL     1     -42.917  57.493 -58.982  1.00  0.00     0.037 A 
HETATM   25  C   UNL     1     -43.489  56.364 -59.563  1.00  0.00     0.068 A 
HETATM   26  C   UNL     1     -43.651  55.213 -58.794  1.00  0.00     0.037 A 
HETATM   27  C   UNL     1     -43.212  55.169 -57.465  1.00  0.00     0.012 A 
BRANCH  25  28
HETATM   28  O   UNL     1     -43.932  56.261 -60.852  1.00  0.00    -0.356 OA
HETATM   29  C   UNL     1     -44.927  55.277 -61.106  1.00  0.00     0.210 C 
ENDBRANCH  25  28
ENDBRANCH   1  22
BRANCH   8  30
HETATM   30  C   UNL     1     -40.769  53.717 -52.906  1.00  0.00     0.409 C 
HETATM   31  F   UNL     1     -40.271  52.808 -53.773  1.00  0.00    -0.169 F 
HETATM   32  F   UNL     1     -39.863  53.816 -51.893  1.00  0.00    -0.169 F 
HETATM   33  F   UNL     1     -41.890  53.213 -52.351  1.00  0.00    -0.169 F 
ENDBRANCH   8  30
TORSDOF 6
ENDMDL
MODEL 9
REMARK VINA RESULT:      -7.7      3.344      4.401
REMARK  6 active torsions:
REMARK  status: ('A' for Active; 'I' for Inactive)
REMARK    1  A    between atoms: O_2  and  C_3 
REMARK    2  A    between atoms: C_6  and  C_7 
REMARK    3  A    between atoms: C_13  and  C_14 
REMARK       I    between atoms: C_14  and  N_15 
REMARK    4  A    between atoms: N_15  and  C_16 
REMARK    5  A    between atoms: C_16  and  C_17 
REMARK    6  A    between atoms: C_24  and  C_25 
ROOT
HETATM    1  C   UNL     1     -41.390  56.875 -53.451  1.00  0.00     0.118 C 
HETATM    2  N   UNL     1     -41.677  57.531 -54.732  1.00  0.00    -0.365 N 
HETATM    3  C   UNL     1     -42.235  58.775 -54.728  1.00  0.00     0.138 A 
HETATM    4  N   UNL     1     -42.748  59.305 -53.562  1.00  0.00    -0.240 N 
HETATM    5  N   UNL     1     -43.198  60.558 -53.686  1.00  0.00    -0.181 NA
HETATM    6  C   UNL     1     -43.071  60.799 -54.993  1.00  0.00     0.160 A 
HETATM    7  C   UNL     1     -42.470  59.728 -55.703  1.00  0.00     0.096 A 
HETATM    8  C   UNL     1     -42.777  58.615 -52.284  1.00  0.00     0.221 C 
HETATM    9  C   UNL     1     -42.569  57.104 -52.497  1.00  0.00     0.066 C 
HETATM   10  H   UNL     1     -41.886  56.888 -55.498  1.00  0.00     0.161 HD
ENDROOT
BRANCH   7  11
HETATM   11  C   UNL     1     -42.171  59.747 -57.122  1.00  0.00     0.257 C 
HETATM   12  N   UNL     1     -42.518  60.898 -57.793  1.00  0.00    -0.352 N 
HETATM   13  H   UNL     1     -43.128  61.549 -57.313  1.00  0.00     0.163 HD
HETATM   14  O   UNL     1     -41.671  58.778 -57.682  1.00  0.00    -0.267 OA
BRANCH  12  15
HETATM   15  C   UNL     1     -42.438  60.952 -59.234  1.00  0.00     0.161 C 
BRANCH  15  16
HETATM   16  C   UNL     1     -41.340  61.852 -59.741  1.00  0.00    -0.041 A 
HETATM   17  C   UNL     1     -40.356  62.369 -58.886  1.00  0.00     0.009 A 
HETATM   18  C   UNL     1     -39.299  63.126 -59.394  1.00  0.00     0.001 A 
HETATM   19  C   UNL     1     -39.200  63.359 -60.763  1.00  0.00     0.000 A 
HETATM   20  C   UNL     1     -40.160  62.838 -61.627  1.00  0.00     0.001 A 
HETATM   21  C   UNL     1     -41.221  62.087 -61.120  1.00  0.00     0.009 A 
ENDBRANCH  15  16
ENDBRANCH  12  15
ENDBRANCH   7  11
BRANCH   1  22
HETATM   22  C   UNL     1     -40.996  55.428 -53.679  1.00  0.00    -0.035 A 
HETATM   23  C   UNL     1     -41.199  54.501 -52.641  1.00  0.00     0.012 A 
HETATM   24  C   UNL     1     -40.923  53.139 -52.817  1.00  0.00     0.037 A 
HETATM   25  C   UNL     1     -40.433  52.678 -54.036  1.00  0.00     0.068 A 
HETATM   26  C   UNL     1     -40.187  53.593 -55.058  1.00  0.00     0.037 A 
HETATM   27  C   UNL     1     -40.462  54.954 -54.885  1.00  0.00     0.012 A 
BRANCH  25  28
HETATM   28  O   UNL     1     -40.150  51.378 -54.348  1.00  0.00    -0.356 OA
HETATM   29  C   UNL     1     -39.554  50.592 -53.322  1.00  0.00     0.210 C 
ENDBRANCH  25  28
ENDBRANCH   1  22
BRANCH   8  30
HETATM   30  C   UNL     1     -44.075  58.839 -51.534  1.00  0.00     0.409 C 
HETATM   31  F   UNL     1     -45.135  58.969 -52.361  1.00  0.00    -0.169 F 
HETATM   32  F   UNL     1     -44.332  57.756 -50.748  1.00  0.00    -0.169 F 
HETATM   33  F   UNL     1     -44.045  59.900 -50.702  1.00  0.00    -0.169 F 
ENDBRANCH   8  30
TORSDOF 6
ENDMDL
MODEL 10
REMARK VINA RESULT:      -7.7      3.539      6.648
REMARK  6 active torsions:
REMARK  status: ('A' for Active; 'I' for Inactive)
REMARK    1  A    between atoms: O_2  and  C_3 
REMARK    2  A    between atoms: C_6  and  C_7 
REMARK    3  A    between atoms: C_13  and  C_14 
REMARK       I    between atoms: C_14  and  N_15 
REMARK    4  A    between atoms: N_15  and  C_16 
REMARK    5  A    between atoms: C_16  and  C_17 
REMARK    6  A    between atoms: C_24  and  C_25 
ROOT
HETATM    1  C   UNL     1     -43.191  55.543 -56.030  1.00  0.00     0.118 C 
HETATM    2  N   UNL     1     -43.361  56.903 -55.505  1.00  0.00    -0.365 N 
HETATM    3  C   UNL     1     -43.910  57.858 -56.307  1.00  0.00     0.138 A 
HETATM    4  N   UNL     1     -44.072  57.625 -57.658  1.00  0.00    -0.240 N 
HETATM    5  N   UNL     1     -44.687  58.617 -58.311  1.00  0.00    -0.181 NA
HETATM    6  C   UNL     1     -44.824  59.559 -57.375  1.00  0.00     0.160 A 
HETATM    7  C   UNL     1     -44.364  59.149 -56.097  1.00  0.00     0.096 A 
HETATM    8  C   UNL     1     -43.665  56.409 -58.341  1.00  0.00     0.221 C 
HETATM    9  C   UNL     1     -42.667  55.626 -57.468  1.00  0.00     0.066 C 
HETATM   10  H   UNL     1     -42.673  57.172 -54.799  1.00  0.00     0.161 HD
ENDROOT
BRANCH   7  11
HETATM   11  C   UNL     1     -44.440  59.958 -54.897  1.00  0.00     0.257 C 
HETATM   12  N   UNL     1     -43.260  60.532 -54.483  1.00  0.00    -0.352 N 
HETATM   13  H   UNL     1     -42.405  60.193 -54.909  1.00  0.00     0.163 HD
HETATM   14  O   UNL     1     -45.492  60.087 -54.279  1.00  0.00    -0.267 OA
BRANCH  12  15
HETATM   15  C   UNL     1     -43.184  61.200 -53.205  1.00  0.00     0.161 C 
BRANCH  15  16
HETATM   16  C   UNL     1     -42.271  60.513 -52.221  1.00  0.00    -0.041 A 
HETATM   17  C   UNL     1     -42.376  60.731 -50.840  1.00  0.00     0.009 A 
HETATM   18  C   UNL     1     -41.579  60.016 -49.945  1.00  0.00     0.001 A 
HETATM   19  C   UNL     1     -40.683  59.059 -50.415  1.00  0.00     0.000 A 
HETATM   20  C   UNL     1     -40.580  58.818 -51.783  1.00  0.00     0.001 A 
HETATM   21  C   UNL     1     -41.370  59.538 -52.680  1.00  0.00     0.009 A 
ENDBRANCH  15  16
ENDBRANCH  12  15
ENDBRANCH   7  11
BRANCH   1  22
HETATM   22  C   UNL     1     -42.361  54.710 -55.071  1.00  0.00    -0.035 A 
HETATM   23  C   UNL     1     -41.073  54.307 -55.466  1.00  0.00     0.012 A 
HETATM   24  C   UNL     1     -40.233  53.599 -54.598  1.00  0.00     0.037 A 
HETATM   25  C   UNL     1     -40.668  53.276 -53.315  1.00  0.00     0.068 A 
HETATM   26  C   UNL     1     -41.959  53.633 -52.926  1.00  0.00     0.037 A 
HETATM   27  C   UNL     1     -42.800  54.340 -53.792  1.00  0.00     0.012 A 
BRANCH  25  28
HETATM   28  O   UNL     1     -39.943  52.616 -52.363  1.00  0.00    -0.356 OA
HETATM   29  C   UNL     1     -39.835  53.249 -51.093  1.00  0.00     0.210 C 
ENDBRANCH  25  28
ENDBRANCH   1  22
BRANCH   8  30
HETATM   30  C   UNL     1     -43.039  56.684 -59.692  1.00  0.00     0.409 C 
HETATM   31  F   UNL     1     -42.307  57.821 -59.701  1.00  0.00    -0.169 F 
HETATM   32  F   UNL     1     -42.181  55.673 -60.004  1.00  0.00    -0.169 F 
HETATM   33  F   UNL     1     -43.930  56.738 -60.703  1.00  0.00    -0.169 F 
ENDBRANCH   8  30
TORSDOF 6
ENDMDL
