MODEL 1
REMARK VINA RESULT:      -9.4      0.000      0.000
REMARK  7 active torsions:
REMARK  status: ('A' for Active; 'I' for Inactive)
REMARK    1  A    between atoms: C_8  and  C_9 
REMARK    2  A    between atoms: C_9  and  N_10 
REMARK    3  A    between atoms: C_14  and  C_15 
REMARK    4  A    between atoms: C_15  and  C_16 
REMARK    5  A    between atoms: C_16  and  C_17 
REMARK    6  A    between atoms: N_27  and  C_28 
REMARK    7  A    between atoms: C_28  and  C_29 
ROOT
HETATM    1  C   UNL     1     -41.652  54.609 -53.254  1.00  0.00     0.123 C 
HETATM    2  N   UNL     1     -41.461  56.051 -53.154  1.00  0.00    -0.324 N 
HETATM    3  C   UNL     1     -41.307  56.448 -51.839  1.00  0.00     0.326 C 
HETATM    4  O   UNL     1     -40.932  57.568 -51.545  1.00  0.00    -0.247 OA
HETATM    5  N   UNL     1     -41.630  55.415 -51.022  1.00  0.00    -0.268 N 
HETATM    6  C   UNL     1     -41.922  54.302 -51.761  1.00  0.00     0.257 C 
HETATM    7  O   UNL     1     -42.323  53.234 -51.326  1.00  0.00    -0.270 OA
HETATM    8  H   UNL     1     -40.898  56.593 -53.802  1.00  0.00     0.165 HD
ENDROOT
BRANCH   1   9
HETATM    9  C   UNL     1     -42.879  54.228 -54.146  1.00  0.00     0.027 C 
HETATM   10  C   UNL     1     -42.594  54.147 -55.657  1.00  0.00     0.035 C 
HETATM   11  C   UNL     1     -42.487  55.497 -56.358  1.00  0.00     0.235 C 
HETATM   12  N   UNL     1     -43.693  56.354 -56.081  1.00  0.00    -0.067 N 
HETATM   13  H   UNL     1     -44.498  55.916 -56.552  1.00  0.00     0.280 HD
HETATM   14  C   UNL     1     -44.042  56.483 -54.621  1.00  0.00     0.235 C 
HETATM   15  C   UNL     1     -44.131  55.115 -53.961  1.00  0.00     0.035 C 
BRANCH  12  16
HETATM   16  C   UNL     1     -43.561  57.740 -56.702  1.00  0.00     0.278 C 
BRANCH  16  17
HETATM   17  C   UNL     1     -44.165  57.864 -58.045  1.00  0.00     0.034 A 
HETATM   18  C   UNL     1     -43.516  57.853 -59.313  1.00  0.00     0.062 A 
HETATM   19  C   UNL     1     -42.069  57.695 -59.618  1.00  0.00     0.073 C 
HETATM   20  N   UNL     1     -44.387  57.983 -60.319  1.00  0.00    -0.176 NA
HETATM   21  N   UNL     1     -45.584  58.145 -59.720  1.00  0.00    -0.262 N 
HETATM   22  C   UNL     1     -46.753  58.404 -60.528  1.00  0.00     0.181 C 
HETATM   23  C   UNL     1     -45.491  58.040 -58.366  1.00  0.00     0.131 A 
HETATM   24 CL   UNL     1     -46.865  58.140 -57.370  1.00  0.00    -0.062 Cl
ENDBRANCH  16  17
ENDBRANCH  12  16
ENDBRANCH   1   9
BRANCH   1  25
HETATM   25  C   UNL     1     -40.292  53.974 -53.667  1.00  0.00     0.080 C 
BRANCH  25  26
HETATM   26  C   UNL     1     -40.120  52.492 -53.452  1.00  0.00    -0.052 A 
HETATM   27  C   UNL     1     -39.627  51.981 -52.247  1.00  0.00     0.049 A 
HETATM   28  C   UNL     1     -39.492  50.604 -52.075  1.00  0.00     0.116 A 
HETATM   29  F   UNL     1     -39.014  50.136 -50.916  1.00  0.00    -0.206 F 
HETATM   30  C   UNL     1     -39.847  49.715 -53.080  1.00  0.00     0.042 A 
HETATM   31  C   UNL     1     -40.348  50.210 -54.281  1.00  0.00     0.003 A 
HETATM   32  C   UNL     1     -40.484  51.588 -54.465  1.00  0.00     0.007 A 
ENDBRANCH  25  26
ENDBRANCH   1  25
BRANCH   5  33
HETATM   33  C   UNL     1     -41.590  55.461 -49.570  1.00  0.00     0.140 C 
BRANCH  33  34
HETATM   34  C   UNL     1     -40.373  54.771 -48.924  1.00  0.00    -0.004 C 
HETATM   35  C   UNL     1     -40.745  53.484 -48.190  1.00  0.00     0.011 C 
HETATM   36  C   UNL     1     -39.244  54.510 -49.920  1.00  0.00     0.011 C 
ENDBRANCH  33  34
ENDBRANCH   5  33
TORSDOF 7
ENDMDL
MODEL 2
REMARK VINA RESULT:      -9.2      1.189      1.593
REMARK  7 active torsions:
REMARK  status: ('A' for Active; 'I' for Inactive)
REMARK    1  A    between atoms: C_8  and  C_9 
REMARK    2  A    between atoms: C_9  and  N_10 
REMARK    3  A    between atoms: C_14  and  C_15 
REMARK    4  A    between atoms: C_15  and  C_16 
REMARK    5  A    between atoms: C_16  and  C_17 
REMARK    6  A    between atoms: N_27  and  C_28 
REMARK    7  A    between atoms: C_28  and  C_29 
ROOT
HETATM    1  C   UNL     1     -41.577  54.586 -53.376  1.00  0.00     0.123 C 
HETATM    2  N   UNL     1     -41.363  56.019 -53.225  1.00  0.00    -0.324 N 
HETATM    3  C   UNL     1     -41.283  56.379 -51.893  1.00  0.00     0.326 C 
HETATM    4  O   UNL     1     -40.903  57.483 -51.546  1.00  0.00    -0.247 OA
HETATM    5  N   UNL     1     -41.679  55.334 -51.126  1.00  0.00    -0.268 N 
HETATM    6  C   UNL     1     -41.948  54.247 -51.911  1.00  0.00     0.257 C 
HETATM    7  O   UNL     1     -42.397  53.177 -51.530  1.00  0.00    -0.270 OA
HETATM    8  H   UNL     1     -40.748  56.566 -53.821  1.00  0.00     0.165 HD
ENDROOT
BRANCH   1   9
HETATM    9  C   UNL     1     -42.754  54.256 -54.352  1.00  0.00     0.027 C 
HETATM   10  C   UNL     1     -42.489  54.578 -55.834  1.00  0.00     0.035 C 
HETATM   11  C   UNL     1     -42.590  56.057 -56.191  1.00  0.00     0.235 C 
HETATM   12  N   UNL     1     -43.901  56.642 -55.738  1.00  0.00    -0.067 N 
HETATM   13  H   UNL     1     -44.643  56.217 -56.312  1.00  0.00     0.280 HD
HETATM   14  C   UNL     1     -44.237  56.367 -54.295  1.00  0.00     0.235 C 
HETATM   15  C   UNL     1     -44.116  54.884 -53.981  1.00  0.00     0.035 C 
BRANCH  12  16
HETATM   16  C   UNL     1     -43.980  58.139 -56.008  1.00  0.00     0.278 C 
BRANCH  16  17
HETATM   17  C   UNL     1     -44.312  58.488 -57.405  1.00  0.00     0.034 A 
HETATM   18  C   UNL     1     -45.582  58.454 -58.050  1.00  0.00     0.062 A 
HETATM   19  C   UNL     1     -46.905  58.078 -57.484  1.00  0.00     0.073 C 
HETATM   20  N   UNL     1     -45.503  58.846 -59.325  1.00  0.00    -0.176 NA
HETATM   21  N   UNL     1     -44.190  59.071 -59.537  1.00  0.00    -0.262 N 
HETATM   22  C   UNL     1     -43.735  59.430 -60.860  1.00  0.00     0.181 C 
HETATM   23  C   UNL     1     -43.459  58.903 -58.401  1.00  0.00     0.131 A 
HETATM   24 CL   UNL     1     -41.783  59.188 -58.373  1.00  0.00    -0.062 Cl
ENDBRANCH  16  17
ENDBRANCH  12  16
ENDBRANCH   1   9
BRANCH   1  25
HETATM   25  C   UNL     1     -40.208  53.930 -53.720  1.00  0.00     0.080 C 
BRANCH  25  26
HETATM   26  C   UNL     1     -40.067  52.446 -53.494  1.00  0.00    -0.052 A 
HETATM   27  C   UNL     1     -39.570  51.935 -52.291  1.00  0.00     0.049 A 
HETATM   28  C   UNL     1     -39.465  50.557 -52.109  1.00  0.00     0.116 A 
HETATM   29  F   UNL     1     -38.981  50.087 -50.953  1.00  0.00    -0.206 F 
HETATM   30  C   UNL     1     -39.855  49.667 -53.101  1.00  0.00     0.042 A 
HETATM   31  C   UNL     1     -40.361  50.163 -54.299  1.00  0.00     0.003 A 
HETATM   32  C   UNL     1     -40.468  51.542 -54.494  1.00  0.00     0.007 A 
ENDBRANCH  25  26
ENDBRANCH   1  25
BRANCH   5  33
HETATM   33  C   UNL     1     -41.729  55.342 -49.673  1.00  0.00     0.140 C 
BRANCH  33  34
HETATM   34  C   UNL     1     -40.516  54.704 -48.970  1.00  0.00    -0.004 C 
HETATM   35  C   UNL     1     -40.844  53.351 -48.338  1.00  0.00     0.011 C 
HETATM   36  C   UNL     1     -39.298  54.583 -49.885  1.00  0.00     0.011 C 
ENDBRANCH  33  34
ENDBRANCH   5  33
TORSDOF 7
ENDMDL
MODEL 3
REMARK VINA RESULT:      -8.7      2.050      2.859
REMARK  7 active torsions:
REMARK  status: ('A' for Active; 'I' for Inactive)
REMARK    1  A    between atoms: C_8  and  C_9 
REMARK    2  A    between atoms: C_9  and  N_10 
REMARK    3  A    between atoms: C_14  and  C_15 
REMARK    4  A    between atoms: C_15  and  C_16 
REMARK    5  A    between atoms: C_16  and  C_17 
REMARK    6  A    between atoms: N_27  and  C_28 
REMARK    7  A    between atoms: C_28  and  C_29 
ROOT
HETATM    1  C   UNL     1     -41.525  55.743 -53.957  1.00  0.00     0.123 C 
HETATM    2  N   UNL     1     -41.303  57.099 -54.444  1.00  0.00    -0.324 N 
HETATM    3  C   UNL     1     -40.927  57.946 -53.418  1.00  0.00     0.326 C 
HETATM    4  O   UNL     1     -40.494  59.063 -53.634  1.00  0.00    -0.247 OA
HETATM    5  N   UNL     1     -41.122  57.321 -52.231  1.00  0.00    -0.268 N 
HETATM    6  C   UNL     1     -41.547  56.038 -52.437  1.00  0.00     0.257 C 
HETATM    7  O   UNL     1     -41.882  55.243 -51.573  1.00  0.00    -0.270 OA
HETATM    8  H   UNL     1     -40.849  57.316 -55.326  1.00  0.00     0.165 HD
ENDROOT
BRANCH   1   9
HETATM    9  C   UNL     1     -42.889  55.149 -54.442  1.00  0.00     0.027 C 
HETATM   10  C   UNL     1     -42.884  54.569 -55.868  1.00  0.00     0.035 C 
HETATM   11  C   UNL     1     -42.928  55.612 -56.979  1.00  0.00     0.235 C 
HETATM   12  N   UNL     1     -44.076  56.567 -56.789  1.00  0.00    -0.067 N 
HETATM   13  H   UNL     1     -44.946  56.036 -56.939  1.00  0.00     0.280 HD
HETATM   14  C   UNL     1     -44.155  57.178 -55.414  1.00  0.00     0.235 C 
HETATM   15  C   UNL     1     -44.099  56.104 -54.338  1.00  0.00     0.035 C 
BRANCH  12  16
HETATM   16  C   UNL     1     -44.082  57.668 -57.842  1.00  0.00     0.278 C 
BRANCH  16  17
HETATM   17  C   UNL     1     -45.262  57.653 -58.731  1.00  0.00     0.034 A 
HETATM   18  C   UNL     1     -46.407  58.500 -58.698  1.00  0.00     0.062 A 
HETATM   19  C   UNL     1     -46.707  59.628 -57.777  1.00  0.00     0.073 C 
HETATM   20  N   UNL     1     -47.276  58.198 -59.668  1.00  0.00    -0.176 NA
HETATM   21  N   UNL     1     -46.744  57.126 -60.288  1.00  0.00    -0.262 N 
HETATM   22  C   UNL     1     -47.482  56.478 -61.347  1.00  0.00     0.181 C 
HETATM   23  C   UNL     1     -45.524  56.800 -59.777  1.00  0.00     0.131 A 
HETATM   24 CL   UNL     1     -44.603  55.525 -60.422  1.00  0.00    -0.062 Cl
ENDBRANCH  16  17
ENDBRANCH  12  16
ENDBRANCH   1   9
BRANCH   1  25
HETATM   25  C   UNL     1     -40.262  54.900 -54.295  1.00  0.00     0.080 C 
BRANCH  25  26
HETATM   26  C   UNL     1     -40.185  53.501 -53.736  1.00  0.00    -0.052 A 
HETATM   27  C   UNL     1     -40.358  52.378 -54.551  1.00  0.00     0.049 A 
HETATM   28  C   UNL     1     -40.267  51.099 -54.005  1.00  0.00     0.116 A 
HETATM   29  F   UNL     1     -40.443  50.037 -54.801  1.00  0.00    -0.206 F 
HETATM   30  C   UNL     1     -39.997  50.909 -52.656  1.00  0.00     0.042 A 
HETATM   31  C   UNL     1     -39.812  52.018 -51.836  1.00  0.00     0.003 A 
HETATM   32  C   UNL     1     -39.904  53.305 -52.372  1.00  0.00     0.007 A 
ENDBRANCH  25  26
ENDBRANCH   1  25
BRANCH   5  33
HETATM   33  C   UNL     1     -40.839  57.904 -50.930  1.00  0.00     0.140 C 
BRANCH  33  34
HETATM   34  C   UNL     1     -40.534  59.414 -50.938  1.00  0.00    -0.004 C 
HETATM   35  C   UNL     1     -41.633  60.241 -50.273  1.00  0.00     0.011 C 
HETATM   36  C   UNL     1     -39.173  59.746 -50.328  1.00  0.00     0.011 C 
ENDBRANCH  33  34
ENDBRANCH   5  33
TORSDOF 7
ENDMDL
MODEL 4
REMARK VINA RESULT:      -8.7      2.213      3.215
REMARK  7 active torsions:
REMARK  status: ('A' for Active; 'I' for Inactive)
REMARK    1  A    between atoms: C_8  and  C_9 
REMARK    2  A    between atoms: C_9  and  N_10 
REMARK    3  A    between atoms: C_14  and  C_15 
REMARK    4  A    between atoms: C_15  and  C_16 
REMARK    5  A    between atoms: C_16  and  C_17 
REMARK    6  A    between atoms: N_27  and  C_28 
REMARK    7  A    between atoms: C_28  and  C_29 
ROOT
HETATM    1  C   UNL     1     -41.541  54.633 -53.525  1.00  0.00     0.123 C 
HETATM    2  N   UNL     1     -41.306  56.061 -53.352  1.00  0.00    -0.324 N 
HETATM    3  C   UNL     1     -41.258  56.406 -52.015  1.00  0.00     0.326 C 
HETATM    4  O   UNL     1     -40.868  57.499 -51.646  1.00  0.00    -0.247 OA
HETATM    5  N   UNL     1     -41.692  55.359 -51.270  1.00  0.00    -0.268 N 
HETATM    6  C   UNL     1     -41.958  54.286 -52.074  1.00  0.00     0.257 C 
HETATM    7  O   UNL     1     -42.436  53.220 -51.718  1.00  0.00    -0.270 OA
HETATM    8  H   UNL     1     -40.666  56.603 -53.926  1.00  0.00     0.165 HD
ENDROOT
BRANCH   1   9
HETATM    9  C   UNL     1     -42.696  54.334 -54.537  1.00  0.00     0.027 C 
HETATM   10  C   UNL     1     -42.539  54.984 -55.923  1.00  0.00     0.035 C 
HETATM   11  C   UNL     1     -42.867  56.472 -55.969  1.00  0.00     0.235 C 
HETATM   12  N   UNL     1     -44.230  56.751 -55.393  1.00  0.00    -0.067 N 
HETATM   13  H   UNL     1     -44.925  56.344 -56.035  1.00  0.00     0.280 HD
HETATM   14  C   UNL     1     -44.465  56.145 -54.034  1.00  0.00     0.235 C 
HETATM   15  C   UNL     1     -44.118  54.663 -54.032  1.00  0.00     0.035 C 
BRANCH  12  16
HETATM   16  C   UNL     1     -44.536  58.243 -55.350  1.00  0.00     0.278 C 
BRANCH  16  17
HETATM   17  C   UNL     1     -43.634  59.023 -54.477  1.00  0.00     0.034 A 
HETATM   18  C   UNL     1     -42.451  59.733 -54.833  1.00  0.00     0.062 A 
HETATM   19  C   UNL     1     -41.826  59.889 -56.173  1.00  0.00     0.073 C 
HETATM   20  N   UNL     1     -41.894  60.332 -53.776  1.00  0.00    -0.176 NA
HETATM   21  N   UNL     1     -42.660  59.968 -52.728  1.00  0.00    -0.262 N 
HETATM   22  C   UNL     1     -42.282  60.376 -51.395  1.00  0.00     0.181 C 
HETATM   23  C   UNL     1     -43.728  59.219 -53.119  1.00  0.00     0.131 A 
HETATM   24 CL   UNL     1     -44.892  58.681 -52.003  1.00  0.00    -0.062 Cl
ENDBRANCH  16  17
ENDBRANCH  12  16
ENDBRANCH   1   9
BRANCH   1  25
HETATM   25  C   UNL     1     -40.174  53.958 -53.838  1.00  0.00     0.080 C 
BRANCH  25  26
HETATM   26  C   UNL     1     -40.048  52.479 -53.569  1.00  0.00    -0.052 A 
HETATM   27  C   UNL     1     -39.562  51.998 -52.349  1.00  0.00     0.049 A 
HETATM   28  C   UNL     1     -39.470  50.625 -52.127  1.00  0.00     0.116 A 
HETATM   29  F   UNL     1     -38.997  50.185 -50.955  1.00  0.00    -0.206 F 
HETATM   30  C   UNL     1     -39.862  49.711 -53.096  1.00  0.00     0.042 A 
HETATM   31  C   UNL     1     -40.356  50.177 -54.311  1.00  0.00     0.003 A 
HETATM   32  C   UNL     1     -40.450  51.551 -54.545  1.00  0.00     0.007 A 
ENDBRANCH  25  26
ENDBRANCH   1  25
BRANCH   5  33
HETATM   33  C   UNL     1     -41.783  55.353 -49.819  1.00  0.00     0.140 C 
BRANCH  33  34
HETATM   34  C   UNL     1     -40.586  54.713 -49.090  1.00  0.00    -0.004 C 
HETATM   35  C   UNL     1     -40.911  53.331 -48.524  1.00  0.00     0.011 C 
HETATM   36  C   UNL     1     -39.329  54.653 -49.955  1.00  0.00     0.011 C 
ENDBRANCH  33  34
ENDBRANCH   5  33
TORSDOF 7
ENDMDL
MODEL 5
REMARK VINA RESULT:      -8.5      2.340      3.315
REMARK  7 active torsions:
REMARK  status: ('A' for Active; 'I' for Inactive)
REMARK    1  A    between atoms: C_8  and  C_9 
REMARK    2  A    between atoms: C_9  and  N_10 
REMARK    3  A    between atoms: C_14  and  C_15 
REMARK    4  A    between atoms: C_15  and  C_16 
REMARK    5  A    between atoms: C_16  and  C_17 
REMARK    6  A    between atoms: N_27  and  C_28 
REMARK    7  A    between atoms: C_28  and  C_29 
ROOT
HETATM    1  C   UNL     1     -41.886  56.535 -54.000  1.00  0.00     0.123 C 
HETATM    2  N   UNL     1     -41.765  57.828 -54.661  1.00  0.00    -0.324 N 
HETATM    3  C   UNL     1     -41.551  58.842 -53.747  1.00  0.00     0.326 C 
HETATM    4  O   UNL     1     -41.216  59.960 -54.094  1.00  0.00    -0.247 OA
HETATM    5  N   UNL     1     -41.770  58.367 -52.497  1.00  0.00    -0.268 N 
HETATM    6  C   UNL     1     -42.049  57.029 -52.542  1.00  0.00     0.257 C 
HETATM    7  O   UNL     1     -42.366  56.327 -51.594  1.00  0.00    -0.270 OA
HETATM    8  H   UNL     1     -41.271  57.971 -55.537  1.00  0.00     0.165 HD
ENDROOT
BRANCH   1   9
HETATM    9  C   UNL     1     -43.145  55.736 -54.475  1.00  0.00     0.027 C 
HETATM   10  C   UNL     1     -42.944  54.885 -55.742  1.00  0.00     0.035 C 
HETATM   11  C   UNL     1     -42.939  55.676 -57.045  1.00  0.00     0.235 C 
HETATM   12  N   UNL     1     -44.164  56.543 -57.165  1.00  0.00    -0.067 N 
HETATM   13  H   UNL     1     -44.974  55.917 -57.281  1.00  0.00     0.280 HD
HETATM   14  C   UNL     1     -44.434  57.407 -55.961  1.00  0.00     0.235 C 
HETATM   15  C   UNL     1     -44.422  56.579 -54.684  1.00  0.00     0.035 C 
BRANCH  12  16
HETATM   16  C   UNL     1     -44.131  57.406 -58.420  1.00  0.00     0.278 C 
BRANCH  16  17
HETATM   17  C   UNL     1     -45.201  57.105 -59.394  1.00  0.00     0.034 A 
HETATM   18  C   UNL     1     -45.435  55.893 -60.107  1.00  0.00     0.062 A 
HETATM   19  C   UNL     1     -44.679  54.614 -60.045  1.00  0.00     0.073 C 
HETATM   20  N   UNL     1     -46.507  55.983 -60.901  1.00  0.00    -0.176 NA
HETATM   21  N   UNL     1     -46.932  57.255 -60.764  1.00  0.00    -0.262 N 
HETATM   22  C   UNL     1     -48.040  57.723 -61.565  1.00  0.00     0.181 C 
HETATM   23  C   UNL     1     -46.198  57.938 -59.843  1.00  0.00     0.131 A 
HETATM   24 CL   UNL     1     -46.565  59.546 -59.430  1.00  0.00    -0.062 Cl
ENDBRANCH  16  17
ENDBRANCH  12  16
ENDBRANCH   1   9
BRANCH   1  25
HETATM   25  C   UNL     1     -40.524  55.795 -54.140  1.00  0.00     0.080 C 
BRANCH  25  26
HETATM   26  C   UNL     1     -40.447  54.373 -53.645  1.00  0.00    -0.052 A 
HETATM   27  C   UNL     1     -40.273  53.302 -54.527  1.00  0.00     0.049 A 
HETATM   28  C   UNL     1     -40.192  52.000 -54.036  1.00  0.00     0.116 A 
HETATM   29  F   UNL     1     -40.031  50.987 -54.897  1.00  0.00    -0.206 F 
HETATM   30  C   UNL     1     -40.272  51.737 -52.675  1.00  0.00     0.042 A 
HETATM   31  C   UNL     1     -40.436  52.795 -51.786  1.00  0.00     0.003 A 
HETATM   32  C   UNL     1     -40.521  54.104 -52.267  1.00  0.00     0.007 A 
ENDBRANCH  25  26
ENDBRANCH   1  25
BRANCH   5  33
HETATM   33  C   UNL     1     -41.642  59.148 -51.277  1.00  0.00     0.140 C 
BRANCH  33  34
HETATM   34  C   UNL     1     -42.903  59.930 -50.864  1.00  0.00    -0.004 C 
HETATM   35  C   UNL     1     -42.832  61.408 -51.244  1.00  0.00     0.011 C 
HETATM   36  C   UNL     1     -44.190  59.304 -51.398  1.00  0.00     0.011 C 
ENDBRANCH  33  34
ENDBRANCH   5  33
TORSDOF 7
ENDMDL
MODEL 6
REMARK VINA RESULT:      -8.4      3.242      5.940
REMARK  7 active torsions:
REMARK  status: ('A' for Active; 'I' for Inactive)
REMARK    1  A    between atoms: C_8  and  C_9 
REMARK    2  A    between atoms: C_9  and  N_10 
REMARK    3  A    between atoms: C_14  and  C_15 
REMARK    4  A    between atoms: C_15  and  C_16 
REMARK    5  A    between atoms: C_16  and  C_17 
REMARK    6  A    between atoms: N_27  and  C_28 
REMARK    7  A    between atoms: C_28  and  C_29 
ROOT
HETATM    1  C   UNL     1     -42.310  56.001 -53.431  1.00  0.00     0.123 C 
HETATM    2  N   UNL     1     -43.511  56.826 -53.398  1.00  0.00    -0.324 N 
HETATM    3  C   UNL     1     -44.069  56.955 -54.656  1.00  0.00     0.326 C 
HETATM    4  O   UNL     1     -45.180  57.424 -54.821  1.00  0.00    -0.247 OA
HETATM    5  N   UNL     1     -43.195  56.486 -55.580  1.00  0.00    -0.268 N 
HETATM    6  C   UNL     1     -42.090  55.968 -54.964  1.00  0.00     0.257 C 
HETATM    7  O   UNL     1     -41.090  55.539 -55.519  1.00  0.00    -0.270 OA
HETATM    8  H   UNL     1     -44.205  56.786 -52.657  1.00  0.00     0.165 HD
ENDROOT
BRANCH   1   9
HETATM    9  C   UNL     1     -41.103  56.671 -52.696  1.00  0.00     0.027 C 
HETATM   10  C   UNL     1     -41.283  56.867 -51.180  1.00  0.00     0.035 C 
HETATM   11  C   UNL     1     -42.184  58.035 -50.792  1.00  0.00     0.235 C 
HETATM   12  N   UNL     1     -41.739  59.312 -51.452  1.00  0.00    -0.067 N 
HETATM   13  H   UNL     1     -40.833  59.575 -51.037  1.00  0.00     0.280 HD
HETATM   14  C   UNL     1     -41.536  59.203 -52.941  1.00  0.00     0.235 C 
HETATM   15  C   UNL     1     -40.639  58.023 -53.283  1.00  0.00     0.035 C 
BRANCH  12  16
HETATM   16  C   UNL     1     -42.681  60.470 -51.146  1.00  0.00     0.278 C 
BRANCH  16  17
HETATM   17  C   UNL     1     -43.864  60.541 -52.029  1.00  0.00     0.034 A 
HETATM   18  C   UNL     1     -45.086  59.815 -51.932  1.00  0.00     0.062 A 
HETATM   19  C   UNL     1     -45.498  58.814 -50.912  1.00  0.00     0.073 C 
HETATM   20  N   UNL     1     -45.939  60.145 -52.907  1.00  0.00    -0.176 NA
HETATM   21  N   UNL     1     -45.263  61.025 -53.673  1.00  0.00    -0.262 N 
HETATM   22  C   UNL     1     -45.871  61.525 -54.885  1.00  0.00     0.181 C 
HETATM   23  C   UNL     1     -44.037  61.311 -53.154  1.00  0.00     0.131 A 
HETATM   24 CL   UNL     1     -43.004  62.443 -53.889  1.00  0.00    -0.062 Cl
ENDBRANCH  16  17
ENDBRANCH  12  16
ENDBRANCH   1   9
BRANCH   1  25
HETATM   25  C   UNL     1     -42.695  54.575 -52.941  1.00  0.00     0.080 C 
BRANCH  25  26
HETATM   26  C   UNL     1     -41.596  53.546 -52.853  1.00  0.00    -0.052 A 
HETATM   27  C   UNL     1     -41.275  52.727 -53.941  1.00  0.00     0.049 A 
HETATM   28  C   UNL     1     -40.244  51.795 -53.831  1.00  0.00     0.116 A 
HETATM   29  F   UNL     1     -39.956  51.017 -54.882  1.00  0.00    -0.206 F 
HETATM   30  C   UNL     1     -39.514  51.663 -52.658  1.00  0.00     0.042 A 
HETATM   31  C   UNL     1     -39.817  52.479 -51.572  1.00  0.00     0.003 A 
HETATM   32  C   UNL     1     -40.850  53.414 -51.669  1.00  0.00     0.007 A 
ENDBRANCH  25  26
ENDBRANCH   1  25
BRANCH   5  33
HETATM   33  C   UNL     1     -43.436  56.460 -57.013  1.00  0.00     0.140 C 
BRANCH  33  34
HETATM   34  C   UNL     1     -43.346  57.826 -57.719  1.00  0.00    -0.004 C 
HETATM   35  C   UNL     1     -42.155  57.921 -58.671  1.00  0.00     0.011 C 
HETATM   36  C   UNL     1     -44.638  58.205 -58.442  1.00  0.00     0.011 C 
ENDBRANCH  33  34
ENDBRANCH   5  33
TORSDOF 7
ENDMDL
MODEL 7
REMARK VINA RESULT:      -8.3      4.473      7.101
REMARK  7 active torsions:
REMARK  status: ('A' for Active; 'I' for Inactive)
REMARK    1  A    between atoms: C_8  and  C_9 
REMARK    2  A    between atoms: C_9  and  N_10 
REMARK    3  A    between atoms: C_14  and  C_15 
REMARK    4  A    between atoms: C_15  and  C_16 
REMARK    5  A    between atoms: C_16  and  C_17 
REMARK    6  A    between atoms: N_27  and  C_28 
REMARK    7  A    between atoms: C_28  and  C_29 
ROOT
HETATM    1  C   UNL     1     -43.292  56.183 -53.336  1.00  0.00     0.123 C 
HETATM    2  N   UNL     1     -44.555  56.798 -53.723  1.00  0.00    -0.324 N 
HETATM    3  C   UNL     1     -44.471  57.375 -54.976  1.00  0.00     0.326 C 
HETATM    4  O   UNL     1     -45.459  57.758 -55.575  1.00  0.00    -0.247 OA
HETATM    5  N   UNL     1     -43.171  57.415 -55.360  1.00  0.00    -0.268 N 
HETATM    6  C   UNL     1     -42.384  56.802 -54.426  1.00  0.00     0.257 C 
HETATM    7  O   UNL     1     -41.164  56.739 -54.441  1.00  0.00    -0.270 OA
HETATM    8  H   UNL     1     -45.465  56.389 -53.534  1.00  0.00     0.165 HD
ENDROOT
BRANCH   1   9
HETATM    9  C   UNL     1     -42.833  56.608 -51.902  1.00  0.00     0.027 C 
HETATM   10  C   UNL     1     -43.842  56.317 -50.776  1.00  0.00     0.035 C 
HETATM   11  C   UNL     1     -45.013  57.291 -50.704  1.00  0.00     0.235 C 
HETATM   12  N   UNL     1     -44.537  58.718 -50.647  1.00  0.00    -0.067 N 
HETATM   13  H   UNL     1     -44.072  58.852 -49.737  1.00  0.00     0.280 HD
HETATM   14  C   UNL     1     -43.541  59.083 -51.717  1.00  0.00     0.235 C 
HETATM   15  C   UNL     1     -42.395  58.082 -51.759  1.00  0.00     0.035 C 
BRANCH  12  16
HETATM   16  C   UNL     1     -45.695  59.707 -50.665  1.00  0.00     0.278 C 
BRANCH  16  17
HETATM   17  C   UNL     1     -45.437  60.959 -49.922  1.00  0.00     0.034 A 
HETATM   18  C   UNL     1     -45.025  62.223 -50.433  1.00  0.00     0.062 A 
HETATM   19  C   UNL     1     -44.764  62.619 -51.843  1.00  0.00     0.073 C 
HETATM   20  N   UNL     1     -44.897  63.133 -49.463  1.00  0.00    -0.176 NA
HETATM   21  N   UNL     1     -45.156  62.462 -48.323  1.00  0.00    -0.262 N 
HETATM   22  C   UNL     1     -45.017  63.137 -47.053  1.00  0.00     0.181 C 
HETATM   23  C   UNL     1     -45.519  61.172 -48.567  1.00  0.00     0.131 A 
HETATM   24 CL   UNL     1     -45.963  60.121 -47.307  1.00  0.00    -0.062 Cl
ENDBRANCH  16  17
ENDBRANCH  12  16
ENDBRANCH   1   9
BRANCH   1  25
HETATM   25  C   UNL     1     -43.411  54.650 -53.581  1.00  0.00     0.080 C 
BRANCH  25  26
HETATM   26  C   UNL     1     -42.161  53.820 -53.435  1.00  0.00    -0.052 A 
HETATM   27  C   UNL     1     -41.551  53.632 -52.190  1.00  0.00     0.049 A 
HETATM   28  C   UNL     1     -40.404  52.847 -52.087  1.00  0.00     0.116 A 
HETATM   29  F   UNL     1     -39.832  52.684 -50.888  1.00  0.00    -0.206 F 
HETATM   30  C   UNL     1     -39.849  52.232 -53.202  1.00  0.00     0.042 A 
HETATM   31  C   UNL     1     -40.451  52.404 -54.445  1.00  0.00     0.003 A 
HETATM   32  C   UNL     1     -41.600  53.191 -54.560  1.00  0.00     0.007 A 
ENDBRANCH  25  26
ENDBRANCH   1  25
BRANCH   5  33
HETATM   33  C   UNL     1     -42.695  57.955 -56.623  1.00  0.00     0.140 C 
BRANCH  33  34
HETATM   34  C   UNL     1     -42.859  57.024 -57.840  1.00  0.00    -0.004 C 
HETATM   35  C   UNL     1     -42.967  55.552 -57.445  1.00  0.00     0.011 C 
HETATM   36  C   UNL     1     -44.030  57.423 -58.737  1.00  0.00     0.011 C 
ENDBRANCH  33  34
ENDBRANCH   5  33
TORSDOF 7
ENDMDL
MODEL 8
REMARK VINA RESULT:      -8.3      1.942      2.694
REMARK  7 active torsions:
REMARK  status: ('A' for Active; 'I' for Inactive)
REMARK    1  A    between atoms: C_8  and  C_9 
REMARK    2  A    between atoms: C_9  and  N_10 
REMARK    3  A    between atoms: C_14  and  C_15 
REMARK    4  A    between atoms: C_15  and  C_16 
REMARK    5  A    between atoms: C_16  and  C_17 
REMARK    6  A    between atoms: N_27  and  C_28 
REMARK    7  A    between atoms: C_28  and  C_29 
ROOT
HETATM    1  C   UNL     1     -41.452  55.616 -54.030  1.00  0.00     0.123 C 
HETATM    2  N   UNL     1     -41.238  56.969 -54.527  1.00  0.00    -0.324 N 
HETATM    3  C   UNL     1     -40.962  57.847 -53.496  1.00  0.00     0.326 C 
HETATM    4  O   UNL     1     -40.550  58.974 -53.703  1.00  0.00    -0.247 OA
HETATM    5  N   UNL     1     -41.223  57.238 -52.313  1.00  0.00    -0.268 N 
HETATM    6  C   UNL     1     -41.591  55.939 -52.522  1.00  0.00     0.257 C 
HETATM    7  O   UNL     1     -41.963  55.149 -51.667  1.00  0.00    -0.270 OA
HETATM    8  H   UNL     1     -40.729  57.185 -55.379  1.00  0.00     0.165 HD
ENDROOT
BRANCH   1   9
HETATM    9  C   UNL     1     -42.758  54.970 -54.598  1.00  0.00     0.027 C 
HETATM   10  C   UNL     1     -42.834  54.880 -56.133  1.00  0.00     0.035 C 
HETATM   11  C   UNL     1     -43.166  56.195 -56.831  1.00  0.00     0.235 C 
HETATM   12  N   UNL     1     -44.414  56.816 -56.264  1.00  0.00    -0.067 N 
HETATM   13  H   UNL     1     -45.206  56.212 -56.527  1.00  0.00     0.280 HD
HETATM   14  C   UNL     1     -44.421  56.937 -54.762  1.00  0.00     0.235 C 
HETATM   15  C   UNL     1     -44.078  55.607 -54.108  1.00  0.00     0.035 C 
BRANCH  12  16
HETATM   16  C   UNL     1     -44.710  58.174 -56.890  1.00  0.00     0.278 C 
BRANCH  16  17
HETATM   17  C   UNL     1     -44.205  58.329 -58.270  1.00  0.00     0.034 A 
HETATM   18  C   UNL     1     -44.742  57.792 -59.475  1.00  0.00     0.062 A 
HETATM   19  C   UNL     1     -45.956  56.952 -59.663  1.00  0.00     0.073 C 
HETATM   20  N   UNL     1     -44.022  58.149 -60.543  1.00  0.00    -0.176 NA
HETATM   21  N   UNL     1     -42.988  58.854 -60.042  1.00  0.00    -0.262 N 
HETATM   22  C   UNL     1     -41.950  59.324 -60.932  1.00  0.00     0.181 C 
HETATM   23  C   UNL     1     -43.090  59.012 -58.693  1.00  0.00     0.131 A 
HETATM   24 CL   UNL     1     -41.950  59.919 -57.817  1.00  0.00    -0.062 Cl
ENDBRANCH  16  17
ENDBRANCH  12  16
ENDBRANCH   1   9
BRANCH   1  25
HETATM   25  C   UNL     1     -40.142  54.808 -54.260  1.00  0.00     0.080 C 
BRANCH  25  26
HETATM   26  C   UNL     1     -40.126  53.364 -53.825  1.00  0.00    -0.052 A 
HETATM   27  C   UNL     1     -39.862  53.004 -52.500  1.00  0.00     0.049 A 
HETATM   28  C   UNL     1     -39.868  51.660 -52.128  1.00  0.00     0.116 A 
HETATM   29  F   UNL     1     -39.607  51.336 -50.855  1.00  0.00    -0.206 F 
HETATM   30  C   UNL     1     -40.142  50.659 -53.049  1.00  0.00     0.042 A 
HETATM   31  C   UNL     1     -40.416  51.005 -54.370  1.00  0.00     0.003 A 
HETATM   32  C   UNL     1     -40.409  52.348 -54.754  1.00  0.00     0.007 A 
ENDBRANCH  25  26
ENDBRANCH   1  25
BRANCH   5  33
HETATM   33  C   UNL     1     -41.052  57.854 -51.007  1.00  0.00     0.140 C 
BRANCH  33  34
HETATM   34  C   UNL     1     -42.169  58.828 -50.589  1.00  0.00    -0.004 C 
HETATM   35  C   UNL     1     -41.731  60.291 -50.655  1.00  0.00     0.011 C 
HETATM   36  C   UNL     1     -43.461  58.622 -51.379  1.00  0.00     0.011 C 
ENDBRANCH  33  34
ENDBRANCH   5  33
TORSDOF 7
ENDMDL
MODEL 9
REMARK VINA RESULT:      -8.2      3.715      7.617
REMARK  7 active torsions:
REMARK  status: ('A' for Active; 'I' for Inactive)
REMARK    1  A    between atoms: C_8  and  C_9 
REMARK    2  A    between atoms: C_9  and  N_10 
REMARK    3  A    between atoms: C_14  and  C_15 
REMARK    4  A    between atoms: C_15  and  C_16 
REMARK    5  A    between atoms: C_16  and  C_17 
REMARK    6  A    between atoms: N_27  and  C_28 
REMARK    7  A    between atoms: C_28  and  C_29 
ROOT
HETATM    1  C   UNL     1     -42.965  56.448 -52.108  1.00  0.00     0.123 C 
HETATM    2  N   UNL     1     -44.214  56.624 -52.839  1.00  0.00    -0.324 N 
HETATM    3  C   UNL     1     -44.525  57.962 -52.988  1.00  0.00     0.326 C 
HETATM    4  O   UNL     1     -45.407  58.338 -53.740  1.00  0.00    -0.247 OA
HETATM    5  N   UNL     1     -43.709  58.699 -52.195  1.00  0.00    -0.268 N 
HETATM    6  C   UNL     1     -42.799  57.891 -51.573  1.00  0.00     0.257 C 
HETATM    7  O   UNL     1     -41.979  58.239 -50.738  1.00  0.00    -0.270 OA
HETATM    8  H   UNL     1     -44.485  56.061 -53.639  1.00  0.00     0.165 HD
ENDROOT
BRANCH   1   9
HETATM    9  C   UNL     1     -43.096  55.417 -50.939  1.00  0.00     0.027 C 
HETATM   10  C   UNL     1     -42.006  55.509 -49.856  1.00  0.00     0.035 C 
HETATM   11  C   UNL     1     -40.662  54.907 -50.254  1.00  0.00     0.235 C 
HETATM   12  N   UNL     1     -40.819  53.492 -50.743  1.00  0.00    -0.067 N 
HETATM   13  H   UNL     1     -41.098  52.916 -49.935  1.00  0.00     0.280 HD
HETATM   14  C   UNL     1     -41.873  53.316 -51.805  1.00  0.00     0.235 C 
HETATM   15  C   UNL     1     -43.193  53.937 -51.370  1.00  0.00     0.035 C 
BRANCH  12  16
HETATM   16  C   UNL     1     -39.499  52.907 -51.227  1.00  0.00     0.278 C 
BRANCH  16  17
HETATM   17  C   UNL     1     -39.641  51.704 -52.074  1.00  0.00     0.034 A 
HETATM   18  C   UNL     1     -39.661  50.337 -51.675  1.00  0.00     0.062 A 
HETATM   19  C   UNL     1     -39.561  49.764 -50.306  1.00  0.00     0.073 C 
HETATM   20  N   UNL     1     -39.814  49.516 -52.719  1.00  0.00    -0.176 NA
HETATM   21  N   UNL     1     -39.829  50.326 -53.796  1.00  0.00    -0.262 N 
HETATM   22  C   UNL     1     -39.894  49.749 -55.119  1.00  0.00     0.181 C 
HETATM   23  C   UNL     1     -39.766  51.640 -53.442  1.00  0.00     0.131 A 
HETATM   24 CL   UNL     1     -39.833  52.878 -54.605  1.00  0.00    -0.062 Cl
ENDBRANCH  16  17
ENDBRANCH  12  16
ENDBRANCH   1   9
BRANCH   1  25
HETATM   25  C   UNL     1     -41.841  56.155 -53.145  1.00  0.00     0.080 C 
BRANCH  25  26
HETATM   26  C   UNL     1     -42.246  55.997 -54.589  1.00  0.00    -0.052 A 
HETATM   27  C   UNL     1     -42.096  57.041 -55.508  1.00  0.00     0.049 A 
HETATM   28  C   UNL     1     -42.467  56.857 -56.839  1.00  0.00     0.116 A 
HETATM   29  F   UNL     1     -42.321  57.871 -57.701  1.00  0.00    -0.206 F 
HETATM   30  C   UNL     1     -42.981  55.647 -57.283  1.00  0.00     0.042 A 
HETATM   31  C   UNL     1     -43.127  54.597 -56.380  1.00  0.00     0.003 A 
HETATM   32  C   UNL     1     -42.760  54.770 -55.044  1.00  0.00     0.007 A 
ENDBRANCH  25  26
ENDBRANCH   1  25
BRANCH   5  33
HETATM   33  C   UNL     1     -43.744  60.149 -52.087  1.00  0.00     0.140 C 
BRANCH  33  34
HETATM   34  C   UNL     1     -43.361  60.912 -53.369  1.00  0.00    -0.004 C 
HETATM   35  C   UNL     1     -43.282  62.423 -53.154  1.00  0.00     0.011 C 
HETATM   36  C   UNL     1     -42.071  60.395 -54.003  1.00  0.00     0.011 C 
ENDBRANCH  33  34
ENDBRANCH   5  33
TORSDOF 7
ENDMDL
MODEL 10
REMARK VINA RESULT:      -8.2      2.636      3.699
REMARK  7 active torsions:
REMARK  status: ('A' for Active; 'I' for Inactive)
REMARK    1  A    between atoms: C_8  and  C_9 
REMARK    2  A    between atoms: C_9  and  N_10 
REMARK    3  A    between atoms: C_14  and  C_15 
REMARK    4  A    between atoms: C_15  and  C_16 
REMARK    5  A    between atoms: C_16  and  C_17 
REMARK    6  A    between atoms: N_27  and  C_28 
REMARK    7  A    between atoms: C_28  and  C_29 
ROOT
HETATM    1  C   UNL     1     -41.668  56.205 -54.077  1.00  0.00     0.123 C 
HETATM    2  N   UNL     1     -41.484  57.525 -54.668  1.00  0.00    -0.324 N 
HETATM    3  C   UNL     1     -41.352  58.498 -53.696  1.00  0.00     0.326 C 
HETATM    4  O   UNL     1     -40.985  59.628 -53.963  1.00  0.00    -0.247 OA
HETATM    5  N   UNL     1     -41.683  57.971 -52.492  1.00  0.00    -0.268 N 
HETATM    6  C   UNL     1     -41.959  56.638 -52.619  1.00  0.00     0.257 C 
HETATM    7  O   UNL     1     -42.362  55.898 -51.735  1.00  0.00    -0.270 OA
HETATM    8  H   UNL     1     -40.914  57.703 -55.489  1.00  0.00     0.165 HD
ENDROOT
BRANCH   1   9
HETATM    9  C   UNL     1     -42.880  55.435 -54.696  1.00  0.00     0.027 C 
HETATM   10  C   UNL     1     -42.836  55.259 -56.225  1.00  0.00     0.035 C 
HETATM   11  C   UNL     1     -43.206  56.507 -57.020  1.00  0.00     0.235 C 
HETATM   12  N   UNL     1     -44.533  57.063 -56.579  1.00  0.00    -0.067 N 
HETATM   13  H   UNL     1     -45.260  56.389 -56.860  1.00  0.00     0.280 HD
HETATM   14  C   UNL     1     -44.659  57.263 -55.090  1.00  0.00     0.235 C 
HETATM   15  C   UNL     1     -44.273  55.998 -54.338  1.00  0.00     0.035 C 
BRANCH  12  16
HETATM   16  C   UNL     1     -44.876  58.360 -57.301  1.00  0.00     0.278 C 
BRANCH  16  17
HETATM   17  C   UNL     1     -43.802  59.375 -57.270  1.00  0.00     0.034 A 
HETATM   18  C   UNL     1     -43.542  60.360 -56.274  1.00  0.00     0.062 A 
HETATM   19  C   UNL     1     -44.269  60.613 -55.001  1.00  0.00     0.073 C 
HETATM   20  N   UNL     1     -42.476  61.106 -56.578  1.00  0.00    -0.176 NA
HETATM   21  N   UNL     1     -42.079  60.664 -57.788  1.00  0.00    -0.262 N 
HETATM   22  C   UNL     1     -40.984  61.324 -58.462  1.00  0.00     0.181 C 
HETATM   23  C   UNL     1     -42.826  59.606 -58.210  1.00  0.00     0.131 A 
HETATM   24 CL   UNL     1     -42.494  58.814 -59.677  1.00  0.00    -0.062 Cl
ENDBRANCH  16  17
ENDBRANCH  12  16
ENDBRANCH   1   9
BRANCH   1  25
HETATM   25  C   UNL     1     -40.299  55.465 -54.125  1.00  0.00     0.080 C 
BRANCH  25  26
HETATM   26  C   UNL     1     -40.266  54.029 -53.666  1.00  0.00    -0.052 A 
HETATM   27  C   UNL     1     -40.235  52.971 -54.581  1.00  0.00     0.049 A 
HETATM   28  C   UNL     1     -40.190  51.655 -54.124  1.00  0.00     0.116 A 
HETATM   29  F   UNL     1     -40.167  50.656 -55.015  1.00  0.00    -0.206 F 
HETATM   30  C   UNL     1     -40.167  51.364 -52.766  1.00  0.00     0.042 A 
HETATM   31  C   UNL     1     -40.187  52.408 -51.846  1.00  0.00     0.003 A 
HETATM   32  C   UNL     1     -40.235  53.731 -52.293  1.00  0.00     0.007 A 
ENDBRANCH  25  26
ENDBRANCH   1  25
BRANCH   5  33
HETATM   33  C   UNL     1     -41.664  58.699 -51.233  1.00  0.00     0.140 C 
BRANCH  33  34
HETATM   34  C   UNL     1     -42.928  59.529 -50.936  1.00  0.00    -0.004 C 
HETATM   35  C   UNL     1     -42.767  61.002 -51.309  1.00  0.00     0.011 C 
HETATM   36  C   UNL     1     -44.183  58.948 -51.584  1.00  0.00     0.011 C 
ENDBRANCH  33  34
ENDBRANCH   5  33
TORSDOF 7
ENDMDL
