MODEL 1
REMARK VINA RESULT:      -8.0      0.000      0.000
REMARK  5 active torsions:
REMARK  status: ('A' for Active; 'I' for Inactive)
REMARK    1  A    between atoms: C_2  and  N_3 
REMARK    2  A    between atoms: C_2  and  C_19 
REMARK       I    between atoms: N_3  and  C_4 
REMARK    3  A    between atoms: C_4  and  C_5 
REMARK    4  A    between atoms: C_7  and  O_8 
REMARK    5  A    between atoms: O_8  and  C_9 
ROOT
HETATM    1  C   UNL     1     -42.924  55.901 -55.167  1.00  0.00     0.146 A 
HETATM    2  O   UNL     1     -41.645  55.572 -54.796  1.00  0.00    -0.282 OA
HETATM    3  C   UNL     1     -41.721  54.654 -53.797  1.00  0.00     0.191 A 
HETATM    4  C   UNL     1     -43.040  54.381 -53.507  1.00  0.00     0.067 A 
HETATM    5  C   UNL     1     -43.813  55.180 -54.387  1.00  0.00     0.048 A 
ENDROOT
BRANCH   1   6
HETATM    6  C   UNL     1     -43.089  56.881 -56.228  1.00  0.00     0.276 C 
HETATM    7  N   UNL     1     -44.368  56.964 -56.751  1.00  0.00    -0.347 N 
HETATM    8  H   UNL     1     -45.045  56.265 -56.493  1.00  0.00     0.163 HD
HETATM    9  O   UNL     1     -42.179  57.594 -56.644  1.00  0.00    -0.265 OA
BRANCH   7  10
HETATM   10  C   UNL     1     -44.673  57.805 -57.895  1.00  0.00     0.114 C 
HETATM   11  C   UNL     1     -45.714  58.858 -57.510  1.00  0.00     0.037 C 
BRANCH  10  12
HETATM   12  C   UNL     1     -45.105  56.939 -59.063  1.00  0.00    -0.033 A 
HETATM   13  C   UNL     1     -46.435  56.984 -59.502  1.00  0.00     0.028 A 
HETATM   14  C   UNL     1     -46.813  56.200 -60.580  1.00  0.00     0.116 A 
HETATM   15  N   UNL     1     -45.968  55.389 -61.252  1.00  0.00    -0.273 NA
HETATM   16  C   UNL     1     -44.687  55.370 -60.830  1.00  0.00     0.116 A 
HETATM   17  C   UNL     1     -44.213  56.118 -59.761  1.00  0.00     0.028 A 
ENDBRANCH  10  12
ENDBRANCH   7  10
ENDBRANCH   1   6
BRANCH   3  18
HETATM   18  O   UNL     1     -40.534  54.256 -53.345  1.00  0.00    -0.286 OA
BRANCH  18  19
HETATM   19  C   UNL     1     -40.282  52.911 -53.230  1.00  0.00     0.100 A 
HETATM   20  C   UNL     1     -39.861  52.372 -52.010  1.00  0.00     0.068 A 
HETATM   21 CL   UNL     1     -39.705  53.348 -50.597  1.00  0.00    -0.081 Cl
HETATM   22  C   UNL     1     -39.566  51.009 -51.919  1.00  0.00     0.026 A 
HETATM   23  C   UNL     1     -39.682  50.192 -53.046  1.00  0.00     0.002 A 
HETATM   24  C   UNL     1     -40.085  50.735 -54.267  1.00  0.00     0.003 A 
HETATM   25  C   UNL     1     -40.378  52.096 -54.361  1.00  0.00     0.039 A 
ENDBRANCH  18  19
ENDBRANCH   3  18
TORSDOF 5
ENDMDL
MODEL 2
REMARK VINA RESULT:      -7.8      1.824      2.089
REMARK  5 active torsions:
REMARK  status: ('A' for Active; 'I' for Inactive)
REMARK    1  A    between atoms: C_2  and  N_3 
REMARK    2  A    between atoms: C_2  and  C_19 
REMARK       I    between atoms: N_3  and  C_4 
REMARK    3  A    between atoms: C_4  and  C_5 
REMARK    4  A    between atoms: C_7  and  O_8 
REMARK    5  A    between atoms: O_8  and  C_9 
ROOT
HETATM    1  C   UNL     1     -42.391  55.751 -53.778  1.00  0.00     0.146 A 
HETATM    2  O   UNL     1     -41.143  55.252 -53.502  1.00  0.00    -0.282 OA
HETATM    3  C   UNL     1     -41.293  54.175 -52.687  1.00  0.00     0.191 A 
HETATM    4  C   UNL     1     -42.629  53.966 -52.423  1.00  0.00     0.067 A 
HETATM    5  C   UNL     1     -43.335  54.977 -53.124  1.00  0.00     0.048 A 
ENDROOT
BRANCH   1   6
HETATM    6  C   UNL     1     -42.475  56.920 -54.638  1.00  0.00     0.276 C 
HETATM    7  N   UNL     1     -43.494  56.883 -55.574  1.00  0.00    -0.347 N 
HETATM    8  H   UNL     1     -43.999  56.022 -55.710  1.00  0.00     0.163 HD
HETATM    9  O   UNL     1     -41.714  57.881 -54.558  1.00  0.00    -0.265 OA
BRANCH   7  10
HETATM   10  C   UNL     1     -43.642  57.915 -56.585  1.00  0.00     0.114 C 
HETATM   11  C   UNL     1     -45.102  58.365 -56.668  1.00  0.00     0.037 C 
BRANCH  10  12
HETATM   12  C   UNL     1     -43.098  57.413 -57.909  1.00  0.00    -0.033 A 
HETATM   13  C   UNL     1     -43.483  56.152 -58.382  1.00  0.00     0.028 A 
HETATM   14  C   UNL     1     -42.991  55.711 -59.600  1.00  0.00     0.116 A 
HETATM   15  N   UNL     1     -42.158  56.434 -60.378  1.00  0.00    -0.273 NA
HETATM   16  C   UNL     1     -41.810  57.654 -59.919  1.00  0.00     0.116 A 
HETATM   17  C   UNL     1     -42.249  58.181 -58.714  1.00  0.00     0.028 A 
ENDBRANCH  10  12
ENDBRANCH   7  10
ENDBRANCH   1   6
BRANCH   3  18
HETATM   18  O   UNL     1     -40.143  53.601 -52.342  1.00  0.00    -0.286 OA
BRANCH  18  19
HETATM   19  C   UNL     1     -39.988  52.250 -52.532  1.00  0.00     0.100 A 
HETATM   20  C   UNL     1     -39.986  51.377 -51.441  1.00  0.00     0.068 A 
HETATM   21 CL   UNL     1     -40.241  51.942 -49.831  1.00  0.00    -0.081 Cl
HETATM   22  C   UNL     1     -39.784  50.010 -51.646  1.00  0.00     0.026 A 
HETATM   23  C   UNL     1     -39.574  49.521 -52.938  1.00  0.00     0.002 A 
HETATM   24  C   UNL     1     -39.559  50.396 -54.025  1.00  0.00     0.003 A 
HETATM   25  C   UNL     1     -39.758  51.763 -53.822  1.00  0.00     0.039 A 
ENDBRANCH  18  19
ENDBRANCH   3  18
TORSDOF 5
ENDMDL
MODEL 3
REMARK VINA RESULT:      -7.6      3.013      4.001
REMARK  5 active torsions:
REMARK  status: ('A' for Active; 'I' for Inactive)
REMARK    1  A    between atoms: C_2  and  N_3 
REMARK    2  A    between atoms: C_2  and  C_19 
REMARK       I    between atoms: N_3  and  C_4 
REMARK    3  A    between atoms: C_4  and  C_5 
REMARK    4  A    between atoms: C_7  and  O_8 
REMARK    5  A    between atoms: O_8  and  C_9 
ROOT
HETATM    1  C   UNL     1     -41.121  57.531 -52.060  1.00  0.00     0.146 A 
HETATM    2  O   UNL     1     -41.563  56.327 -52.544  1.00  0.00    -0.282 OA
HETATM    3  C   UNL     1     -41.684  55.471 -51.496  1.00  0.00     0.191 A 
HETATM    4  C   UNL     1     -41.319  56.104 -50.328  1.00  0.00     0.067 A 
HETATM    5  C   UNL     1     -40.958  57.427 -50.688  1.00  0.00     0.048 A 
ENDROOT
BRANCH   1   6
HETATM    6  C   UNL     1     -40.913  58.608 -53.015  1.00  0.00     0.276 C 
HETATM    7  N   UNL     1     -42.027  58.945 -53.765  1.00  0.00    -0.347 N 
HETATM    8  H   UNL     1     -42.838  58.349 -53.725  1.00  0.00     0.163 HD
HETATM    9  O   UNL     1     -39.842  59.191 -53.161  1.00  0.00    -0.265 OA
BRANCH   7  10
HETATM   10  C   UNL     1     -41.958  59.915 -54.844  1.00  0.00     0.114 C 
HETATM   11  C   UNL     1     -42.972  61.036 -54.608  1.00  0.00     0.037 C 
BRANCH  10  12
HETATM   12  C   UNL     1     -42.146  59.211 -56.174  1.00  0.00    -0.033 A 
HETATM   13  C   UNL     1     -41.875  59.899 -57.364  1.00  0.00     0.028 A 
HETATM   14  C   UNL     1     -42.036  59.240 -58.572  1.00  0.00     0.116 A 
HETATM   15  N   UNL     1     -42.434  57.955 -58.679  1.00  0.00    -0.273 NA
HETATM   16  C   UNL     1     -42.673  57.299 -57.525  1.00  0.00     0.116 A 
HETATM   17  C   UNL     1     -42.542  57.872 -56.268  1.00  0.00     0.028 A 
ENDBRANCH  10  12
ENDBRANCH   7  10
ENDBRANCH   1   6
BRANCH   3  18
HETATM   18  O   UNL     1     -42.105  54.257 -51.841  1.00  0.00    -0.286 OA
BRANCH  18  19
HETATM   19  C   UNL     1     -41.209  53.370 -52.385  1.00  0.00     0.100 A 
HETATM   20  C   UNL     1     -41.255  53.063 -53.748  1.00  0.00     0.068 A 
HETATM   21 CL   UNL     1     -42.382  53.825 -54.808  1.00  0.00    -0.081 Cl
HETATM   22  C   UNL     1     -40.365  52.126 -54.278  1.00  0.00     0.026 A 
HETATM   23  C   UNL     1     -39.441  51.490 -53.446  1.00  0.00     0.002 A 
HETATM   24  C   UNL     1     -39.408  51.785 -52.082  1.00  0.00     0.003 A 
HETATM   25  C   UNL     1     -40.297  52.719 -51.549  1.00  0.00     0.039 A 
ENDBRANCH  18  19
ENDBRANCH   3  18
TORSDOF 5
ENDMDL
MODEL 4
REMARK VINA RESULT:      -7.5      1.505      2.052
REMARK  5 active torsions:
REMARK  status: ('A' for Active; 'I' for Inactive)
REMARK    1  A    between atoms: C_2  and  N_3 
REMARK    2  A    between atoms: C_2  and  C_19 
REMARK       I    between atoms: N_3  and  C_4 
REMARK    3  A    between atoms: C_4  and  C_5 
REMARK    4  A    between atoms: C_7  and  O_8 
REMARK    5  A    between atoms: O_8  and  C_9 
ROOT
HETATM    1  C   UNL     1     -42.674  54.959 -55.734  1.00  0.00     0.146 A 
HETATM    2  O   UNL     1     -41.406  54.554 -55.403  1.00  0.00    -0.282 OA
HETATM    3  C   UNL     1     -41.437  54.076 -54.131  1.00  0.00     0.191 A 
HETATM    4  C   UNL     1     -42.714  54.170 -53.624  1.00  0.00     0.067 A 
HETATM    5  C   UNL     1     -43.510  54.736 -54.652  1.00  0.00     0.048 A 
ENDROOT
BRANCH   1   6
HETATM    6  C   UNL     1     -42.880  55.516 -57.061  1.00  0.00     0.276 C 
HETATM    7  N   UNL     1     -42.495  56.838 -57.205  1.00  0.00    -0.347 N 
HETATM    8  H   UNL     1     -42.252  57.366 -56.382  1.00  0.00     0.163 HD
HETATM    9  O   UNL     1     -43.356  54.882 -57.999  1.00  0.00    -0.265 OA
BRANCH   7  10
HETATM   10  C   UNL     1     -42.743  57.579 -58.429  1.00  0.00     0.114 C 
HETATM   11  C   UNL     1     -41.877  58.839 -58.466  1.00  0.00     0.037 C 
BRANCH  10  12
HETATM   12  C   UNL     1     -44.226  57.870 -58.556  1.00  0.00    -0.033 A 
HETATM   13  C   UNL     1     -44.885  57.591 -59.760  1.00  0.00     0.028 A 
HETATM   14  C   UNL     1     -46.243  57.847 -59.858  1.00  0.00     0.116 A 
HETATM   15  N   UNL     1     -46.987  58.349 -58.850  1.00  0.00    -0.273 NA
HETATM   16  C   UNL     1     -46.343  58.596 -57.690  1.00  0.00     0.116 A 
HETATM   17  C   UNL     1     -44.988  58.374 -57.496  1.00  0.00     0.028 A 
ENDBRANCH  10  12
ENDBRANCH   7  10
ENDBRANCH   1   6
BRANCH   3  18
HETATM   18  O   UNL     1     -40.255  53.651 -53.690  1.00  0.00    -0.286 OA
BRANCH  18  19
HETATM   19  C   UNL     1     -40.097  52.323 -53.381  1.00  0.00     0.100 A 
HETATM   20  C   UNL     1     -39.784  51.933 -52.076  1.00  0.00     0.068 A 
HETATM   21 CL   UNL     1     -39.649  53.082 -50.797  1.00  0.00    -0.081 Cl
HETATM   22  C   UNL     1     -39.583  50.581 -51.785  1.00  0.00     0.026 A 
HETATM   23  C   UNL     1     -39.685  49.625 -52.798  1.00  0.00     0.002 A 
HETATM   24  C   UNL     1     -39.981  50.018 -54.105  1.00  0.00     0.003 A 
HETATM   25  C   UNL     1     -40.179  51.368 -54.398  1.00  0.00     0.039 A 
ENDBRANCH  18  19
ENDBRANCH   3  18
TORSDOF 5
ENDMDL
MODEL 5
REMARK VINA RESULT:      -7.5      3.738      5.812
REMARK  5 active torsions:
REMARK  status: ('A' for Active; 'I' for Inactive)
REMARK    1  A    between atoms: C_2  and  N_3 
REMARK    2  A    between atoms: C_2  and  C_19 
REMARK       I    between atoms: N_3  and  C_4 
REMARK    3  A    between atoms: C_4  and  C_5 
REMARK    4  A    between atoms: C_7  and  O_8 
REMARK    5  A    between atoms: O_8  and  C_9 
ROOT
HETATM    1  C   UNL     1     -42.627  55.373 -54.195  1.00  0.00     0.146 A 
HETATM    2  O   UNL     1     -41.360  54.961 -53.872  1.00  0.00    -0.282 OA
HETATM    3  C   UNL     1     -41.179  53.716 -54.388  1.00  0.00     0.191 A 
HETATM    4  C   UNL     1     -42.321  53.308 -55.042  1.00  0.00     0.067 A 
HETATM    5  C   UNL     1     -43.251  54.371 -54.920  1.00  0.00     0.048 A 
ENDROOT
BRANCH   1   6
HETATM    6  C   UNL     1     -43.047  56.688 -53.737  1.00  0.00     0.276 C 
HETATM    7  N   UNL     1     -42.273  57.739 -54.197  1.00  0.00    -0.347 N 
HETATM    8  H   UNL     1     -41.408  57.535 -54.671  1.00  0.00     0.163 HD
HETATM    9  O   UNL     1     -44.012  56.877 -53.000  1.00  0.00    -0.265 OA
BRANCH   7  10
HETATM   10  C   UNL     1     -42.483  59.101 -53.739  1.00  0.00     0.114 C 
HETATM   11  C   UNL     1     -42.116  60.091 -54.847  1.00  0.00     0.037 C 
BRANCH  10  12
HETATM   12  C   UNL     1     -41.710  59.332 -52.454  1.00  0.00    -0.033 A 
HETATM   13  C   UNL     1     -40.367  58.942 -52.375  1.00  0.00     0.028 A 
HETATM   14  C   UNL     1     -39.669  59.173 -51.201  1.00  0.00     0.116 A 
HETATM   15  N   UNL     1     -40.204  59.767 -50.114  1.00  0.00    -0.273 NA
HETATM   16  C   UNL     1     -41.493  60.153 -50.210  1.00  0.00     0.116 A 
HETATM   17  C   UNL     1     -42.274  59.966 -51.341  1.00  0.00     0.028 A 
ENDBRANCH  10  12
ENDBRANCH   7  10
ENDBRANCH   1   6
BRANCH   3  18
HETATM   18  O   UNL     1     -39.978  53.202 -54.136  1.00  0.00    -0.286 OA
BRANCH  18  19
HETATM   19  C   UNL     1     -39.892  52.004 -53.470  1.00  0.00     0.100 A 
HETATM   20  C   UNL     1     -39.772  51.976 -52.078  1.00  0.00     0.068 A 
HETATM   21 CL   UNL     1     -39.792  53.423 -51.140  1.00  0.00    -0.081 Cl
HETATM   22  C   UNL     1     -39.641  50.752 -51.417  1.00  0.00     0.026 A 
HETATM   23  C   UNL     1     -39.621  49.562 -52.148  1.00  0.00     0.002 A 
HETATM   24  C   UNL     1     -39.723  49.593 -53.540  1.00  0.00     0.003 A 
HETATM   25  C   UNL     1     -39.851  50.814 -54.203  1.00  0.00     0.039 A 
ENDBRANCH  18  19
ENDBRANCH   3  18
TORSDOF 5
ENDMDL
MODEL 6
REMARK VINA RESULT:      -7.4      5.476      6.436
REMARK  5 active torsions:
REMARK  status: ('A' for Active; 'I' for Inactive)
REMARK    1  A    between atoms: C_2  and  N_3 
REMARK    2  A    between atoms: C_2  and  C_19 
REMARK       I    between atoms: N_3  and  C_4 
REMARK    3  A    between atoms: C_4  and  C_5 
REMARK    4  A    between atoms: C_7  and  O_8 
REMARK    5  A    between atoms: O_8  and  C_9 
ROOT
HETATM    1  C   UNL     1     -41.866  55.795 -51.814  1.00  0.00     0.146 A 
HETATM    2  O   UNL     1     -40.744  55.012 -51.722  1.00  0.00    -0.282 OA
HETATM    3  C   UNL     1     -41.142  53.729 -51.518  1.00  0.00     0.191 A 
HETATM    4  C   UNL     1     -42.517  53.665 -51.470  1.00  0.00     0.067 A 
HETATM    5  C   UNL     1     -42.984  54.990 -51.662  1.00  0.00     0.048 A 
ENDROOT
BRANCH   1   6
HETATM    6  C   UNL     1     -41.680  57.220 -52.030  1.00  0.00     0.276 C 
HETATM    7  N   UNL     1     -42.155  58.031 -51.013  1.00  0.00    -0.347 N 
HETATM    8  H   UNL     1     -42.719  57.619 -50.287  1.00  0.00     0.163 HD
HETATM    9  O   UNL     1     -41.145  57.694 -53.029  1.00  0.00    -0.265 OA
BRANCH   7  10
HETATM   10  C   UNL     1     -42.156  59.479 -51.125  1.00  0.00     0.114 C 
HETATM   11  C   UNL     1     -40.995  60.069 -50.323  1.00  0.00     0.037 C 
BRANCH  10  12
HETATM   12  C   UNL     1     -43.508  60.021 -50.705  1.00  0.00    -0.033 A 
HETATM   13  C   UNL     1     -44.676  59.406 -51.172  1.00  0.00     0.028 A 
HETATM   14  C   UNL     1     -45.905  59.902 -50.768  1.00  0.00     0.116 A 
HETATM   15  N   UNL     1     -46.053  60.951 -49.932  1.00  0.00    -0.273 NA
HETATM   16  C   UNL     1     -44.919  61.522 -49.475  1.00  0.00     0.116 A 
HETATM   17  C   UNL     1     -43.645  61.099 -49.822  1.00  0.00     0.028 A 
ENDBRANCH  10  12
ENDBRANCH   7  10
ENDBRANCH   1   6
BRANCH   3  18
HETATM   18  O   UNL     1     -40.134  52.867 -51.407  1.00  0.00    -0.286 OA
BRANCH  18  19
HETATM   19  C   UNL     1     -40.003  51.870 -52.342  1.00  0.00     0.100 A 
HETATM   20  C   UNL     1     -39.816  50.544 -51.941  1.00  0.00     0.068 A 
HETATM   21 CL   UNL     1     -39.806  50.097 -50.275  1.00  0.00    -0.081 Cl
HETATM   22  C   UNL     1     -39.641  49.546 -52.903  1.00  0.00     0.026 A 
HETATM   23  C   UNL     1     -39.643  49.876 -54.260  1.00  0.00     0.002 A 
HETATM   24  C   UNL     1     -39.814  51.203 -54.658  1.00  0.00     0.003 A 
HETATM   25  C   UNL     1     -39.986  52.202 -53.699  1.00  0.00     0.039 A 
ENDBRANCH  18  19
ENDBRANCH   3  18
TORSDOF 5
ENDMDL
MODEL 7
REMARK VINA RESULT:      -7.1      2.066      2.631
REMARK  5 active torsions:
REMARK  status: ('A' for Active; 'I' for Inactive)
REMARK    1  A    between atoms: C_2  and  N_3 
REMARK    2  A    between atoms: C_2  and  C_19 
REMARK       I    between atoms: N_3  and  C_4 
REMARK    3  A    between atoms: C_4  and  C_5 
REMARK    4  A    between atoms: C_7  and  O_8 
REMARK    5  A    between atoms: O_8  and  C_9 
ROOT
HETATM    1  C   UNL     1     -44.071  57.889 -54.044  1.00  0.00     0.146 A 
HETATM    2  O   UNL     1     -42.785  57.415 -53.998  1.00  0.00    -0.282 OA
HETATM    3  C   UNL     1     -42.590  56.850 -52.777  1.00  0.00     0.191 A 
HETATM    4  C   UNL     1     -43.736  56.955 -52.021  1.00  0.00     0.067 A 
HETATM    5  C   UNL     1     -44.689  57.621 -52.834  1.00  0.00     0.048 A 
ENDROOT
BRANCH   1   6
HETATM    6  C   UNL     1     -44.505  58.546 -55.267  1.00  0.00     0.276 C 
HETATM    7  N   UNL     1     -44.955  57.691 -56.259  1.00  0.00    -0.347 N 
HETATM    8  H   UNL     1     -44.816  56.700 -56.146  1.00  0.00     0.163 HD
HETATM    9  O   UNL     1     -44.485  59.763 -55.431  1.00  0.00    -0.265 OA
BRANCH   7  10
HETATM   10  C   UNL     1     -45.311  58.174 -57.581  1.00  0.00     0.114 C 
HETATM   11  C   UNL     1     -46.794  57.912 -57.856  1.00  0.00     0.037 C 
BRANCH  10  12
HETATM   12  C   UNL     1     -44.394  57.550 -58.616  1.00  0.00    -0.033 A 
HETATM   13  C   UNL     1     -43.202  58.197 -58.964  1.00  0.00     0.028 A 
HETATM   14  C   UNL     1     -42.366  57.608 -59.899  1.00  0.00     0.116 A 
HETATM   15  N   UNL     1     -42.625  56.427 -60.499  1.00  0.00    -0.273 NA
HETATM   16  C   UNL     1     -43.767  55.806 -60.140  1.00  0.00     0.116 A 
HETATM   17  C   UNL     1     -44.668  56.315 -59.216  1.00  0.00     0.028 A 
ENDBRANCH  10  12
ENDBRANCH   7  10
ENDBRANCH   1   6
BRANCH   3  18
HETATM   18  O   UNL     1     -41.367  56.353 -52.607  1.00  0.00    -0.286 OA
BRANCH  18  19
HETATM   19  C   UNL     1     -41.033  55.176 -53.232  1.00  0.00     0.100 A 
HETATM   20  C   UNL     1     -41.175  53.956 -52.566  1.00  0.00     0.068 A 
HETATM   21 CL   UNL     1     -41.829  53.867 -50.972  1.00  0.00    -0.081 Cl
HETATM   22  C   UNL     1     -40.790  52.771 -53.198  1.00  0.00     0.026 A 
HETATM   23  C   UNL     1     -40.257  52.809 -54.488  1.00  0.00     0.002 A 
HETATM   24  C   UNL     1     -40.100  54.030 -55.146  1.00  0.00     0.003 A 
HETATM   25  C   UNL     1     -40.480  55.215 -54.515  1.00  0.00     0.039 A 
ENDBRANCH  18  19
ENDBRANCH   3  18
TORSDOF 5
ENDMDL
MODEL 8
REMARK VINA RESULT:      -7.1      2.162      2.843
REMARK  5 active torsions:
REMARK  status: ('A' for Active; 'I' for Inactive)
REMARK    1  A    between atoms: C_2  and  N_3 
REMARK    2  A    between atoms: C_2  and  C_19 
REMARK       I    between atoms: N_3  and  C_4 
REMARK    3  A    between atoms: C_4  and  C_5 
REMARK    4  A    between atoms: C_7  and  O_8 
REMARK    5  A    between atoms: O_8  and  C_9 
ROOT
HETATM    1  C   UNL     1     -43.914  58.038 -54.581  1.00  0.00     0.146 A 
HETATM    2  O   UNL     1     -44.106  56.709 -54.303  1.00  0.00    -0.282 OA
HETATM    3  C   UNL     1     -43.356  56.395 -53.214  1.00  0.00     0.191 A 
HETATM    4  C   UNL     1     -42.669  57.507 -52.779  1.00  0.00     0.067 A 
HETATM    5  C   UNL     1     -43.028  58.563 -53.654  1.00  0.00     0.048 A 
ENDROOT
BRANCH   1   6
HETATM    6  C   UNL     1     -44.621  58.599 -55.720  1.00  0.00     0.276 C 
HETATM    7  N   UNL     1     -45.108  57.667 -56.621  1.00  0.00    -0.347 N 
HETATM    8  H   UNL     1     -44.824  56.706 -56.526  1.00  0.00     0.163 HD
HETATM    9  O   UNL     1     -44.789  59.804 -55.892  1.00  0.00    -0.265 OA
BRANCH   7  10
HETATM   10  C   UNL     1     -45.732  58.064 -57.871  1.00  0.00     0.114 C 
HETATM   11  C   UNL     1     -47.248  58.165 -57.693  1.00  0.00     0.037 C 
BRANCH  10  12
HETATM   12  C   UNL     1     -45.323  57.104 -58.971  1.00  0.00    -0.033 A 
HETATM   13  C   UNL     1     -43.987  56.695 -59.072  1.00  0.00     0.028 A 
HETATM   14  C   UNL     1     -43.630  55.806 -60.072  1.00  0.00     0.116 A 
HETATM   15  N   UNL     1     -44.502  55.292 -60.965  1.00  0.00    -0.273 NA
HETATM   16  C   UNL     1     -45.788  55.679 -60.845  1.00  0.00     0.116 A 
HETATM   17  C   UNL     1     -46.242  56.565 -59.879  1.00  0.00     0.028 A 
ENDBRANCH  10  12
ENDBRANCH   7  10
ENDBRANCH   1   6
BRANCH   3  18
HETATM   18  O   UNL     1     -43.455  55.120 -52.846  1.00  0.00    -0.286 OA
BRANCH  18  19
HETATM   19  C   UNL     1     -42.362  54.299 -52.985  1.00  0.00     0.100 A 
HETATM   20  C   UNL     1     -42.116  53.649 -54.197  1.00  0.00     0.068 A 
HETATM   21 CL   UNL     1     -43.121  53.896 -55.576  1.00  0.00    -0.081 Cl
HETATM   22  C   UNL     1     -41.025  52.782 -54.310  1.00  0.00     0.026 A 
HETATM   23  C   UNL     1     -40.192  52.560 -53.212  1.00  0.00     0.002 A 
HETATM   24  C   UNL     1     -40.450  53.197 -51.997  1.00  0.00     0.003 A 
HETATM   25  C   UNL     1     -41.540  54.060 -51.880  1.00  0.00     0.039 A 
ENDBRANCH  18  19
ENDBRANCH   3  18
TORSDOF 5
ENDMDL
MODEL 9
REMARK VINA RESULT:      -7.0     15.331     17.650
REMARK  5 active torsions:
REMARK  status: ('A' for Active; 'I' for Inactive)
REMARK    1  A    between atoms: C_2  and  N_3 
REMARK    2  A    between atoms: C_2  and  C_19 
REMARK       I    between atoms: N_3  and  C_4 
REMARK    3  A    between atoms: C_4  and  C_5 
REMARK    4  A    between atoms: C_7  and  O_8 
REMARK    5  A    between atoms: O_8  and  C_9 
ROOT
HETATM    1  C   UNL     1     -35.627  41.950 -54.895  1.00  0.00     0.146 A 
HETATM    2  O   UNL     1     -36.839  41.688 -55.480  1.00  0.00    -0.282 OA
HETATM    3  C   UNL     1     -36.672  41.727 -56.828  1.00  0.00     0.191 A 
HETATM    4  C   UNL     1     -35.360  42.019 -57.131  1.00  0.00     0.067 A 
HETATM    5  C   UNL     1     -34.687  42.162 -55.891  1.00  0.00     0.048 A 
ENDROOT
BRANCH   1   6
HETATM    6  C   UNL     1     -35.567  41.965 -53.442  1.00  0.00     0.276 C 
HETATM    7  N   UNL     1     -34.558  41.193 -52.892  1.00  0.00    -0.347 N 
HETATM    8  H   UNL     1     -34.043  40.567 -53.491  1.00  0.00     0.163 HD
HETATM    9  O   UNL     1     -36.340  42.607 -52.735  1.00  0.00    -0.265 OA
BRANCH   7  10
HETATM   10  C   UNL     1     -34.434  41.003 -51.458  1.00  0.00     0.114 C 
HETATM   11  C   UNL     1     -32.977  40.716 -51.089  1.00  0.00     0.037 C 
BRANCH  10  12
HETATM   12  C   UNL     1     -35.390  39.917 -51.003  1.00  0.00    -0.033 A 
HETATM   13  C   UNL     1     -35.322  38.647 -51.589  1.00  0.00     0.028 A 
HETATM   14  C   UNL     1     -36.190  37.658 -51.154  1.00  0.00     0.116 A 
HETATM   15  N   UNL     1     -37.106  37.841 -50.180  1.00  0.00    -0.273 NA
HETATM   16  C   UNL     1     -37.148  39.063 -49.612  1.00  0.00     0.116 A 
HETATM   17  C   UNL     1     -36.322  40.116 -49.979  1.00  0.00     0.028 A 
ENDBRANCH  10  12
ENDBRANCH   7  10
ENDBRANCH   1   6
BRANCH   3  18
HETATM   18  O   UNL     1     -37.787  41.490 -57.513  1.00  0.00    -0.286 OA
BRANCH  18  19
HETATM   19  C   UNL     1     -37.773  40.536 -58.501  1.00  0.00     0.100 A 
HETATM   20  C   UNL     1     -37.586  40.904 -59.836  1.00  0.00     0.068 A 
HETATM   21 CL   UNL     1     -37.303  42.544 -60.291  1.00  0.00    -0.081 Cl
HETATM   22  C   UNL     1     -37.617  39.928 -60.836  1.00  0.00     0.026 A 
HETATM   23  C   UNL     1     -37.845  38.591 -60.501  1.00  0.00     0.002 A 
HETATM   24  C   UNL     1     -38.049  38.228 -59.168  1.00  0.00     0.003 A 
HETATM   25  C   UNL     1     -38.021  39.201 -58.169  1.00  0.00     0.039 A 
ENDBRANCH  18  19
ENDBRANCH   3  18
TORSDOF 5
ENDMDL
MODEL 10
REMARK VINA RESULT:      -6.9      2.699      3.553
REMARK  5 active torsions:
REMARK  status: ('A' for Active; 'I' for Inactive)
REMARK    1  A    between atoms: C_2  and  N_3 
REMARK    2  A    between atoms: C_2  and  C_19 
REMARK       I    between atoms: N_3  and  C_4 
REMARK    3  A    between atoms: C_4  and  C_5 
REMARK    4  A    between atoms: C_7  and  O_8 
REMARK    5  A    between atoms: O_8  and  C_9 
ROOT
HETATM    1  C   UNL     1     -42.367  55.703 -51.765  1.00  0.00     0.146 A 
HETATM    2  O   UNL     1     -41.090  55.245 -51.958  1.00  0.00    -0.282 OA
HETATM    3  C   UNL     1     -41.039  53.953 -51.540  1.00  0.00     0.191 A 
HETATM    4  C   UNL     1     -42.273  53.562 -51.069  1.00  0.00     0.067 A 
HETATM    5  C   UNL     1     -43.128  54.684 -51.213  1.00  0.00     0.048 A 
ENDROOT
BRANCH   1   6
HETATM    6  C   UNL     1     -42.656  57.077 -52.140  1.00  0.00     0.276 C 
HETATM    7  N   UNL     1     -43.551  57.220 -53.186  1.00  0.00    -0.347 N 
HETATM    8  H   UNL     1     -43.820  56.403 -53.711  1.00  0.00     0.163 HD
HETATM    9  O   UNL     1     -42.158  58.054 -51.586  1.00  0.00    -0.265 OA
BRANCH   7  10
HETATM   10  C   UNL     1     -43.855  58.518 -53.763  1.00  0.00     0.114 C 
HETATM   11  C   UNL     1     -45.110  59.102 -53.112  1.00  0.00     0.037 C 
BRANCH  10  12
HETATM   12  C   UNL     1     -43.968  58.393 -55.270  1.00  0.00    -0.033 A 
HETATM   13  C   UNL     1     -45.084  58.928 -55.926  1.00  0.00     0.028 A 
HETATM   14  C   UNL     1     -45.168  58.821 -57.305  1.00  0.00     0.116 A 
HETATM   15  N   UNL     1     -44.224  58.233 -58.071  1.00  0.00    -0.273 NA
HETATM   16  C   UNL     1     -43.147  57.739 -57.427  1.00  0.00     0.116 A 
HETATM   17  C   UNL     1     -42.973  57.797 -56.052  1.00  0.00     0.028 A 
ENDBRANCH  10  12
ENDBRANCH   7  10
ENDBRANCH   1   6
BRANCH   3  18
HETATM   18  O   UNL     1     -39.839  53.393 -51.674  1.00  0.00    -0.286 OA
BRANCH  18  19
HETATM   19  C   UNL     1     -39.749  52.126 -52.195  1.00  0.00     0.100 A 
HETATM   20  C   UNL     1     -39.941  51.907 -53.562  1.00  0.00     0.068 A 
HETATM   21 CL   UNL     1     -40.231  53.211 -54.653  1.00  0.00    -0.081 Cl
HETATM   22  C   UNL     1     -39.889  50.607 -54.071  1.00  0.00     0.026 A 
HETATM   23  C   UNL     1     -39.656  49.529 -53.213  1.00  0.00     0.002 A 
HETATM   24  C   UNL     1     -39.482  49.748 -51.845  1.00  0.00     0.003 A 
HETATM   25  C   UNL     1     -39.536  51.045 -51.334  1.00  0.00     0.039 A 
ENDBRANCH  18  19
ENDBRANCH   3  18
TORSDOF 5
ENDMDL
