MODEL 1
REMARK VINA RESULT:      -8.9      0.000      0.000
REMARK  8 active torsions:
REMARK  status: ('A' for Active; 'I' for Inactive)
REMARK    1  A    between atoms: O_2  and  C_3 
REMARK    2  A    between atoms: C_5  and  O_6 
REMARK    3  A    between atoms: C_9  and  N_10 
REMARK       I    between atoms: N_10  and  C_11 
REMARK       I    between atoms: C_11  and  N_12 
REMARK    4  A    between atoms: N_12  and  C_13 
REMARK    5  A    between atoms: C_16  and  N_17 
REMARK    6  A    between atoms: N_20  and  C_22 
REMARK    7  A    between atoms: C_22  and  C_23 
REMARK    8  A    between atoms: C_25  and  C_26 
ROOT
HETATM    1  C   UNL     1     -42.561  59.994 -53.869  1.00  0.00     0.054 A 
HETATM    2  C   UNL     1     -43.690  59.287 -53.479  1.00  0.00     0.148 A 
HETATM    3  N   UNL     1     -43.706  58.343 -52.494  1.00  0.00    -0.241 NA
HETATM    4  C   UNL     1     -42.557  58.056 -51.850  1.00  0.00     0.125 A 
HETATM    5  C   UNL     1     -41.394  58.764 -52.150  1.00  0.00     0.052 A 
HETATM    6  C   UNL     1     -41.396  59.735 -53.157  1.00  0.00     0.035 A 
ENDROOT
BRANCH   4   7
HETATM    7  N   UNL     1     -42.552  56.986 -50.959  1.00  0.00    -0.364 N 
HETATM    8  C   UNL     1     -41.276  56.731 -50.281  1.00  0.00     0.152 C 
HETATM    9  C   UNL     1     -40.590  55.423 -50.713  1.00  0.00     0.255 C 
HETATM   10  N   UNL     1     -41.412  54.233 -50.214  1.00  0.00    -0.066 N 
HETATM   11  H   UNL     1     -41.966  54.602 -49.433  1.00  0.00     0.280 HD
HETATM   12  C   UNL     1     -42.414  53.724 -51.212  1.00  0.00     0.237 C 
HETATM   13  C   UNL     1     -43.245  54.815 -51.882  1.00  0.00     0.047 C 
HETATM   14  C   UNL     1     -43.620  55.991 -50.985  1.00  0.00     0.126 C 
BRANCH  10  15
HETATM   15  C   UNL     1     -40.592  53.146 -49.550  1.00  0.00     0.273 C 
BRANCH  15  16
HETATM   16  C   UNL     1     -40.275  51.929 -50.377  1.00  0.00    -0.032 A 
HETATM   17  C   UNL     1     -40.130  52.036 -51.773  1.00  0.00     0.025 A 
HETATM   18  C   UNL     1     -39.859  50.907 -52.567  1.00  0.00     0.048 A 
HETATM   19  C   UNL     1     -39.736  49.658 -51.945  1.00  0.00     0.016 A 
HETATM   20  C   UNL     1     -39.884  49.538 -50.564  1.00  0.00     0.001 A 
HETATM   21  C   UNL     1     -40.152  50.665 -49.786  1.00  0.00     0.009 A 
BRANCH  18  22
HETATM   22  C   UNL     1     -39.714  51.020 -54.069  1.00  0.00     0.417 C 
HETATM   23  F   UNL     1     -38.732  50.212 -54.562  1.00  0.00    -0.166 F 
HETATM   24  F   UNL     1     -40.850  50.670 -54.726  1.00  0.00    -0.166 F 
HETATM   25  F   UNL     1     -39.404  52.280 -54.470  1.00  0.00    -0.166 F 
ENDBRANCH  18  22
ENDBRANCH  15  16
ENDBRANCH  10  15
ENDBRANCH   4   7
BRANCH   1  26
HETATM   26  N   UNL     1     -42.489  60.918 -54.934  1.00  0.00    -0.307 N 
HETATM   27  C   UNL     1     -42.071  60.656 -56.232  1.00  0.00     0.325 C 
HETATM   28  N   UNL     1     -42.081  61.817 -56.990  1.00  0.00    -0.309 N 
HETATM   29  O   UNL     1     -41.723  59.551 -56.628  1.00  0.00    -0.247 OA
HETATM   30  H   UNL     1     -42.541  62.619 -56.585  1.00  0.00     0.170 HD
HETATM   31  H   UNL     1     -42.612  61.890 -54.692  1.00  0.00     0.170 HD
BRANCH  28  32
HETATM   32  C   UNL     1     -41.618  61.995 -58.314  1.00  0.00     0.041 A 
HETATM   33  C   UNL     1     -40.431  62.661 -58.646  1.00  0.00     0.066 A 
HETATM   34  C   UNL     1     -40.034  62.791 -59.984  1.00  0.00     0.073 A 
HETATM   35  C   UNL     1     -40.841  62.272 -60.996  1.00  0.00     0.073 A 
HETATM   36  C   UNL     1     -42.035  61.638 -60.671  1.00  0.00     0.073 A 
HETATM   37  C   UNL     1     -42.417  61.479 -59.340  1.00  0.00     0.066 A 
BRANCH  34  38
HETATM   38  O   UNL     1     -38.892  63.403 -60.427  1.00  0.00    -0.356 OA
HETATM   39  C   UNL     1     -38.316  64.385 -59.573  1.00  0.00     0.210 C 
ENDBRANCH  34  38
BRANCH  36  40
HETATM   40  O   UNL     1     -42.806  61.091 -61.660  1.00  0.00    -0.356 OA
HETATM   41  C   UNL     1     -43.531  59.968 -61.155  1.00  0.00     0.210 C 
ENDBRANCH  36  40
ENDBRANCH  28  32
ENDBRANCH   1  26
TORSDOF 8
ENDMDL
MODEL 2
REMARK VINA RESULT:      -8.9      0.549      2.032
REMARK  8 active torsions:
REMARK  status: ('A' for Active; 'I' for Inactive)
REMARK    1  A    between atoms: O_2  and  C_3 
REMARK    2  A    between atoms: C_5  and  O_6 
REMARK    3  A    between atoms: C_9  and  N_10 
REMARK       I    between atoms: N_10  and  C_11 
REMARK       I    between atoms: C_11  and  N_12 
REMARK    4  A    between atoms: N_12  and  C_13 
REMARK    5  A    between atoms: C_16  and  N_17 
REMARK    6  A    between atoms: N_20  and  C_22 
REMARK    7  A    between atoms: C_22  and  C_23 
REMARK    8  A    between atoms: C_25  and  C_26 
ROOT
HETATM    1  C   UNL     1     -42.516  59.999 -53.974  1.00  0.00     0.054 A 
HETATM    2  C   UNL     1     -43.661  59.354 -53.528  1.00  0.00     0.148 A 
HETATM    3  N   UNL     1     -43.682  58.422 -52.531  1.00  0.00    -0.241 NA
HETATM    4  C   UNL     1     -42.521  58.084 -51.933  1.00  0.00     0.125 A 
HETATM    5  C   UNL     1     -41.339  58.729 -52.290  1.00  0.00     0.052 A 
HETATM    6  C   UNL     1     -41.336  59.689 -53.308  1.00  0.00     0.035 A 
ENDROOT
BRANCH   4   7
HETATM    7  N   UNL     1     -42.532  57.024 -51.030  1.00  0.00    -0.364 N 
HETATM    8  C   UNL     1     -41.260  56.760 -50.347  1.00  0.00     0.152 C 
HETATM    9  C   UNL     1     -40.590  55.439 -50.764  1.00  0.00     0.255 C 
HETATM   10  N   UNL     1     -41.428  54.265 -50.252  1.00  0.00    -0.066 N 
HETATM   11  H   UNL     1     -41.978  54.651 -49.477  1.00  0.00     0.280 HD
HETATM   12  C   UNL     1     -42.436  53.758 -51.246  1.00  0.00     0.237 C 
HETATM   13  C   UNL     1     -43.252  54.852 -51.929  1.00  0.00     0.047 C 
HETATM   14  C   UNL     1     -43.613  56.043 -51.046  1.00  0.00     0.126 C 
BRANCH  10  15
HETATM   15  C   UNL     1     -40.623  53.175 -49.575  1.00  0.00     0.273 C 
BRANCH  15  16
HETATM   16  C   UNL     1     -40.309  51.951 -50.393  1.00  0.00    -0.032 A 
HETATM   17  C   UNL     1     -40.164  52.047 -51.790  1.00  0.00     0.025 A 
HETATM   18  C   UNL     1     -39.895  50.913 -52.575  1.00  0.00     0.048 A 
HETATM   19  C   UNL     1     -39.773  49.668 -51.945  1.00  0.00     0.016 A 
HETATM   20  C   UNL     1     -39.919  49.559 -50.562  1.00  0.00     0.001 A 
HETATM   21  C   UNL     1     -40.186  50.692 -49.792  1.00  0.00     0.009 A 
BRANCH  18  22
HETATM   22  C   UNL     1     -39.751  51.013 -54.078  1.00  0.00     0.417 C 
HETATM   23  F   UNL     1     -39.452  52.278 -54.492  1.00  0.00    -0.166 F 
HETATM   24  F   UNL     1     -38.758  50.219 -54.558  1.00  0.00    -0.166 F 
HETATM   25  F   UNL     1     -40.885  50.658 -54.736  1.00  0.00    -0.166 F 
ENDBRANCH  18  22
ENDBRANCH  15  16
ENDBRANCH  10  15
ENDBRANCH   4   7
BRANCH   1  26
HETATM   26  N   UNL     1     -42.444  60.908 -55.052  1.00  0.00    -0.307 N 
HETATM   27  C   UNL     1     -42.005  60.632 -56.339  1.00  0.00     0.325 C 
HETATM   28  N   UNL     1     -42.023  61.781 -57.116  1.00  0.00    -0.309 N 
HETATM   29  O   UNL     1     -41.636  59.527 -56.714  1.00  0.00    -0.247 OA
HETATM   30  H   UNL     1     -42.500  62.582 -56.729  1.00  0.00     0.170 HD
HETATM   31  H   UNL     1     -42.584  61.881 -54.826  1.00  0.00     0.170 HD
BRANCH  28  32
HETATM   32  C   UNL     1     -41.544  61.946 -58.436  1.00  0.00     0.041 A 
HETATM   33  C   UNL     1     -42.145  61.374 -59.565  1.00  0.00     0.066 A 
HETATM   34  C   UNL     1     -41.616  61.590 -60.844  1.00  0.00     0.073 A 
HETATM   35  C   UNL     1     -40.465  62.363 -60.993  1.00  0.00     0.073 A 
HETATM   36  C   UNL     1     -39.848  62.906 -59.870  1.00  0.00     0.073 A 
HETATM   37  C   UNL     1     -40.390  62.720 -58.600  1.00  0.00     0.066 A 
BRANCH  34  38
HETATM   38  O   UNL     1     -42.124  61.100 -62.017  1.00  0.00    -0.356 OA
HETATM   39  C   UNL     1     -42.165  61.994 -63.124  1.00  0.00     0.210 C 
ENDBRANCH  34  38
BRANCH  36  40
HETATM   40  O   UNL     1     -38.743  63.700 -60.019  1.00  0.00    -0.356 OA
HETATM   41  C   UNL     1     -38.632  64.141 -61.373  1.00  0.00     0.210 C 
ENDBRANCH  36  40
ENDBRANCH  28  32
ENDBRANCH   1  26
TORSDOF 8
ENDMDL
MODEL 3
REMARK VINA RESULT:      -8.5      4.032      5.147
REMARK  8 active torsions:
REMARK  status: ('A' for Active; 'I' for Inactive)
REMARK    1  A    between atoms: O_2  and  C_3 
REMARK    2  A    between atoms: C_5  and  O_6 
REMARK    3  A    between atoms: C_9  and  N_10 
REMARK       I    between atoms: N_10  and  C_11 
REMARK       I    between atoms: C_11  and  N_12 
REMARK    4  A    between atoms: N_12  and  C_13 
REMARK    5  A    between atoms: C_16  and  N_17 
REMARK    6  A    between atoms: N_20  and  C_22 
REMARK    7  A    between atoms: C_22  and  C_23 
REMARK    8  A    between atoms: C_25  and  C_26 
ROOT
HETATM    1  C   UNL     1     -44.383  58.007 -56.355  1.00  0.00     0.054 A 
HETATM    2  C   UNL     1     -43.807  56.759 -56.161  1.00  0.00     0.148 A 
HETATM    3  N   UNL     1     -43.320  56.313 -54.967  1.00  0.00    -0.241 NA
HETATM    4  C   UNL     1     -43.384  57.126 -53.894  1.00  0.00     0.125 A 
HETATM    5  C   UNL     1     -44.000  58.372 -53.999  1.00  0.00     0.052 A 
HETATM    6  C   UNL     1     -44.502  58.812 -55.229  1.00  0.00     0.035 A 
ENDROOT
BRANCH   4   7
HETATM    7  N   UNL     1     -42.747  56.723 -52.724  1.00  0.00    -0.364 N 
HETATM    8  C   UNL     1     -41.315  56.427 -52.851  1.00  0.00     0.152 C 
HETATM    9  C   UNL     1     -40.969  54.936 -52.686  1.00  0.00     0.255 C 
HETATM   10  N   UNL     1     -41.209  54.520 -51.233  1.00  0.00    -0.066 N 
HETATM   11  H   UNL     1     -41.170  55.395 -50.698  1.00  0.00     0.280 HD
HETATM   12  C   UNL     1     -42.579  53.955 -50.981  1.00  0.00     0.237 C 
HETATM   13  C   UNL     1     -43.718  54.769 -51.590  1.00  0.00     0.047 C 
HETATM   14  C   UNL     1     -43.522  56.282 -51.568  1.00  0.00     0.126 C 
BRANCH  10  15
HETATM   15  C   UNL     1     -40.082  53.711 -50.624  1.00  0.00     0.273 C 
BRANCH  15  16
HETATM   16  C   UNL     1     -39.970  52.272 -51.049  1.00  0.00    -0.032 A 
HETATM   17  C   UNL     1     -39.889  51.938 -52.414  1.00  0.00     0.025 A 
HETATM   18  C   UNL     1     -39.808  50.598 -52.834  1.00  0.00     0.048 A 
HETATM   19  C   UNL     1     -39.811  49.586 -51.866  1.00  0.00     0.016 A 
HETATM   20  C   UNL     1     -39.896  49.903 -50.511  1.00  0.00     0.001 A 
HETATM   21  C   UNL     1     -39.975  51.236 -50.105  1.00  0.00     0.009 A 
BRANCH  18  22
HETATM   22  C   UNL     1     -39.733  50.238 -54.301  1.00  0.00     0.417 C 
HETATM   23  F   UNL     1     -40.802  49.499 -54.714  1.00  0.00    -0.166 F 
HETATM   24  F   UNL     1     -39.704  51.335 -55.103  1.00  0.00    -0.166 F 
HETATM   25  F   UNL     1     -38.629  49.506 -54.604  1.00  0.00    -0.166 F 
ENDBRANCH  18  22
ENDBRANCH  15  16
ENDBRANCH  10  15
ENDBRANCH   4   7
BRANCH   1  26
HETATM   26  N   UNL     1     -44.825  58.532 -57.589  1.00  0.00    -0.307 N 
HETATM   27  C   UNL     1     -46.084  58.376 -58.152  1.00  0.00     0.325 C 
HETATM   28  N   UNL     1     -46.139  58.985 -59.397  1.00  0.00    -0.309 N 
HETATM   29  O   UNL     1     -47.000  57.763 -57.620  1.00  0.00    -0.247 OA
HETATM   30  H   UNL     1     -45.368  59.589 -59.640  1.00  0.00     0.170 HD
HETATM   31  H   UNL     1     -44.115  58.932 -58.184  1.00  0.00     0.170 HD
BRANCH  28  32
HETATM   32  C   UNL     1     -47.196  58.952 -60.335  1.00  0.00     0.041 A 
HETATM   33  C   UNL     1     -48.067  60.024 -60.574  1.00  0.00     0.066 A 
HETATM   34  C   UNL     1     -49.088  59.917 -61.527  1.00  0.00     0.073 A 
HETATM   35  C   UNL     1     -49.254  58.724 -62.230  1.00  0.00     0.073 A 
HETATM   36  C   UNL     1     -48.411  57.648 -61.972  1.00  0.00     0.073 A 
HETATM   37  C   UNL     1     -47.375  57.761 -61.048  1.00  0.00     0.066 A 
BRANCH  34  38
HETATM   38  O   UNL     1     -49.984  60.899 -61.857  1.00  0.00    -0.356 OA
HETATM   39  C   UNL     1     -50.647  60.770 -63.110  1.00  0.00     0.210 C 
ENDBRANCH  34  38
BRANCH  36  40
HETATM   40  O   UNL     1     -48.546  56.492 -62.692  1.00  0.00    -0.356 OA
HETATM   41  C   UNL     1     -48.402  56.761 -64.087  1.00  0.00     0.210 C 
ENDBRANCH  36  40
ENDBRANCH  28  32
ENDBRANCH   1  26
TORSDOF 8
ENDMDL
MODEL 4
REMARK VINA RESULT:      -8.5      6.488      9.622
REMARK  8 active torsions:
REMARK  status: ('A' for Active; 'I' for Inactive)
REMARK    1  A    between atoms: O_2  and  C_3 
REMARK    2  A    between atoms: C_5  and  O_6 
REMARK    3  A    between atoms: C_9  and  N_10 
REMARK       I    between atoms: N_10  and  C_11 
REMARK       I    between atoms: C_11  and  N_12 
REMARK    4  A    between atoms: N_12  and  C_13 
REMARK    5  A    between atoms: C_16  and  N_17 
REMARK    6  A    between atoms: N_20  and  C_22 
REMARK    7  A    between atoms: C_22  and  C_23 
REMARK    8  A    between atoms: C_25  and  C_26 
ROOT
HETATM    1  C   UNL     1     -44.183  61.005 -50.155  1.00  0.00     0.054 A 
HETATM    2  C   UNL     1     -42.976  60.628 -50.728  1.00  0.00     0.148 A 
HETATM    3  N   UNL     1     -42.804  59.517 -51.501  1.00  0.00    -0.241 NA
HETATM    4  C   UNL     1     -43.862  58.712 -51.727  1.00  0.00     0.125 A 
HETATM    5  C   UNL     1     -45.118  59.056 -51.231  1.00  0.00     0.052 A 
HETATM    6  C   UNL     1     -45.280  60.204 -50.448  1.00  0.00     0.035 A 
ENDROOT
BRANCH   4   7
HETATM    7  N   UNL     1     -43.641  57.505 -52.384  1.00  0.00    -0.364 N 
HETATM    8  C   UNL     1     -42.431  56.777 -51.984  1.00  0.00     0.152 C 
HETATM    9  C   UNL     1     -41.344  56.727 -53.072  1.00  0.00     0.255 C 
HETATM   10  N   UNL     1     -41.826  55.847 -54.227  1.00  0.00    -0.066 N 
HETATM   11  H   UNL     1     -42.548  55.245 -53.817  1.00  0.00     0.280 HD
HETATM   12  C   UNL     1     -42.513  56.609 -55.326  1.00  0.00     0.237 C 
HETATM   13  C   UNL     1     -43.551  57.617 -54.839  1.00  0.00     0.047 C 
HETATM   14  C   UNL     1     -44.356  57.186 -53.617  1.00  0.00     0.126 C 
BRANCH  10  15
HETATM   15  C   UNL     1     -40.800  54.845 -54.716  1.00  0.00     0.273 C 
BRANCH  15  16
HETATM   16  C   UNL     1     -40.464  53.707 -53.789  1.00  0.00    -0.032 A 
HETATM   17  C   UNL     1     -40.293  52.405 -54.295  1.00  0.00     0.025 A 
HETATM   18  C   UNL     1     -40.003  51.324 -53.444  1.00  0.00     0.048 A 
HETATM   19  C   UNL     1     -39.888  51.560 -52.069  1.00  0.00     0.016 A 
HETATM   20  C   UNL     1     -40.061  52.844 -51.554  1.00  0.00     0.001 A 
HETATM   21  C   UNL     1     -40.347  53.910 -52.408  1.00  0.00     0.009 A 
BRANCH  18  22
HETATM   22  C   UNL     1     -39.830  49.921 -53.986  1.00  0.00     0.417 C 
HETATM   23  F   UNL     1     -38.828  49.836 -54.906  1.00  0.00    -0.166 F 
HETATM   24  F   UNL     1     -39.522  49.025 -53.012  1.00  0.00    -0.166 F 
HETATM   25  F   UNL     1     -40.949  49.458 -54.601  1.00  0.00    -0.166 F 
ENDBRANCH  18  22
ENDBRANCH  15  16
ENDBRANCH  10  15
ENDBRANCH   4   7
BRANCH   1  26
HETATM   26  N   UNL     1     -44.381  62.102 -49.288  1.00  0.00    -0.307 N 
HETATM   27  C   UNL     1     -44.667  62.043 -47.931  1.00  0.00     0.325 C 
HETATM   28  N   UNL     1     -44.849  63.318 -47.417  1.00  0.00    -0.309 N 
HETATM   29  O   UNL     1     -44.763  61.000 -47.297  1.00  0.00    -0.247 OA
HETATM   30  H   UNL     1     -44.583  64.089 -48.011  1.00  0.00     0.170 HD
HETATM   31  H   UNL     1     -44.469  63.007 -49.725  1.00  0.00     0.170 HD
BRANCH  28  32
HETATM   32  C   UNL     1     -45.267  63.679 -46.115  1.00  0.00     0.041 A 
HETATM   33  C   UNL     1     -46.603  63.690 -45.695  1.00  0.00     0.066 A 
HETATM   34  C   UNL     1     -46.937  64.053 -44.383  1.00  0.00     0.073 A 
HETATM   35  C   UNL     1     -45.932  64.431 -43.495  1.00  0.00     0.073 A 
HETATM   36  C   UNL     1     -44.607  64.452 -43.919  1.00  0.00     0.073 A 
HETATM   37  C   UNL     1     -44.268  64.060 -45.212  1.00  0.00     0.066 A 
BRANCH  34  38
HETATM   38  O   UNL     1     -48.201  64.084 -43.856  1.00  0.00    -0.356 OA
HETATM   39  C   UNL     1     -49.202  63.342 -44.542  1.00  0.00     0.210 C 
ENDBRANCH  34  38
BRANCH  36  40
HETATM   40  O   UNL     1     -43.615  64.781 -43.035  1.00  0.00    -0.356 OA
HETATM   41  C   UNL     1     -43.226  63.631 -42.281  1.00  0.00     0.210 C 
ENDBRANCH  36  40
ENDBRANCH  28  32
ENDBRANCH   1  26
TORSDOF 8
ENDMDL
MODEL 5
REMARK VINA RESULT:      -8.4      6.771     12.199
REMARK  8 active torsions:
REMARK  status: ('A' for Active; 'I' for Inactive)
REMARK    1  A    between atoms: O_2  and  C_3 
REMARK    2  A    between atoms: C_5  and  O_6 
REMARK    3  A    between atoms: C_9  and  N_10 
REMARK       I    between atoms: N_10  and  C_11 
REMARK       I    between atoms: C_11  and  N_12 
REMARK    4  A    between atoms: N_12  and  C_13 
REMARK    5  A    between atoms: C_16  and  N_17 
REMARK    6  A    between atoms: N_20  and  C_22 
REMARK    7  A    between atoms: C_22  and  C_23 
REMARK    8  A    between atoms: C_25  and  C_26 
ROOT
HETATM    1  C   UNL     1     -42.487  56.592 -56.487  1.00  0.00     0.054 A 
HETATM    2  C   UNL     1     -43.081  57.720 -55.938  1.00  0.00     0.148 A 
HETATM    3  N   UNL     1     -43.953  58.533 -56.603  1.00  0.00    -0.241 NA
HETATM    4  C   UNL     1     -44.264  58.244 -57.883  1.00  0.00     0.125 A 
HETATM    5  C   UNL     1     -43.750  57.096 -58.483  1.00  0.00     0.052 A 
HETATM    6  C   UNL     1     -42.864  56.268 -57.785  1.00  0.00     0.035 A 
ENDROOT
BRANCH   4   7
HETATM    7  N   UNL     1     -45.029  59.162 -58.596  1.00  0.00    -0.364 N 
HETATM    8  C   UNL     1     -45.832  60.085 -57.786  1.00  0.00     0.152 C 
HETATM    9  C   UNL     1     -47.349  59.848 -57.888  1.00  0.00     0.255 C 
HETATM   10  N   UNL     1     -47.826  60.227 -59.292  1.00  0.00    -0.066 N 
HETATM   11  H   UNL     1     -47.110  60.870 -59.650  1.00  0.00     0.280 HD
HETATM   12  C   UNL     1     -47.851  59.075 -60.258  1.00  0.00     0.237 C 
HETATM   13  C   UNL     1     -46.590  58.213 -60.242  1.00  0.00     0.047 C 
HETATM   14  C   UNL     1     -45.285  58.971 -60.021  1.00  0.00     0.126 C 
BRANCH  10  15
HETATM   15  C   UNL     1     -49.076  61.082 -59.315  1.00  0.00     0.273 C 
BRANCH  15  16
HETATM   16  C   UNL     1     -49.881  61.147 -58.044  1.00  0.00    -0.032 A 
HETATM   17  C   UNL     1     -51.004  60.318 -57.870  1.00  0.00     0.025 A 
HETATM   18  C   UNL     1     -51.783  60.380 -56.701  1.00  0.00     0.048 A 
HETATM   19  C   UNL     1     -51.426  61.291 -55.700  1.00  0.00     0.016 A 
HETATM   20  C   UNL     1     -50.318  62.123 -55.862  1.00  0.00     0.001 A 
HETATM   21  C   UNL     1     -49.551  62.052 -57.026  1.00  0.00     0.009 A 
BRANCH  18  22
HETATM   22  C   UNL     1     -52.998  59.497 -56.518  1.00  0.00     0.417 C 
HETATM   23  F   UNL     1     -52.913  58.714 -55.405  1.00  0.00    -0.166 F 
HETATM   24  F   UNL     1     -54.144  60.214 -56.385  1.00  0.00    -0.166 F 
HETATM   25  F   UNL     1     -53.189  58.649 -57.563  1.00  0.00    -0.166 F 
ENDBRANCH  18  22
ENDBRANCH  15  16
ENDBRANCH  10  15
ENDBRANCH   4   7
BRANCH   1  26
HETATM   26  N   UNL     1     -41.523  55.775 -55.858  1.00  0.00    -0.307 N 
HETATM   27  C   UNL     1     -41.752  54.852 -54.847  1.00  0.00     0.325 C 
HETATM   28  N   UNL     1     -40.561  54.273 -54.437  1.00  0.00    -0.309 N 
HETATM   29  O   UNL     1     -42.858  54.611 -54.379  1.00  0.00    -0.247 OA
HETATM   30  H   UNL     1     -39.752  54.444 -55.016  1.00  0.00     0.170 HD
HETATM   31  H   UNL     1     -40.558  55.988 -56.059  1.00  0.00     0.170 HD
BRANCH  28  32
HETATM   32  C   UNL     1     -40.353  53.380 -53.361  1.00  0.00     0.041 A 
HETATM   33  C   UNL     1     -40.415  53.750 -52.011  1.00  0.00     0.066 A 
HETATM   34  C   UNL     1     -40.204  52.804 -51.000  1.00  0.00     0.073 A 
HETATM   35  C   UNL     1     -39.906  51.485 -51.340  1.00  0.00     0.073 A 
HETATM   36  C   UNL     1     -39.812  51.122 -52.680  1.00  0.00     0.073 A 
HETATM   37  C   UNL     1     -40.053  52.052 -53.688  1.00  0.00     0.066 A 
BRANCH  34  38
HETATM   38  O   UNL     1     -40.255  53.044 -49.653  1.00  0.00    -0.356 OA
HETATM   39  C   UNL     1     -40.558  54.374 -49.247  1.00  0.00     0.210 C 
ENDBRANCH  34  38
BRANCH  36  40
HETATM   40  O   UNL     1     -39.562  49.818 -53.015  1.00  0.00    -0.356 OA
HETATM   41  C   UNL     1     -39.609  49.658 -54.434  1.00  0.00     0.210 C 
ENDBRANCH  36  40
ENDBRANCH  28  32
ENDBRANCH   1  26
TORSDOF 8
ENDMDL
MODEL 6
REMARK VINA RESULT:      -8.4      6.992     12.523
REMARK  8 active torsions:
REMARK  status: ('A' for Active; 'I' for Inactive)
REMARK    1  A    between atoms: O_2  and  C_3 
REMARK    2  A    between atoms: C_5  and  O_6 
REMARK    3  A    between atoms: C_9  and  N_10 
REMARK       I    between atoms: N_10  and  C_11 
REMARK       I    between atoms: C_11  and  N_12 
REMARK    4  A    between atoms: N_12  and  C_13 
REMARK    5  A    between atoms: C_16  and  N_17 
REMARK    6  A    between atoms: N_20  and  C_22 
REMARK    7  A    between atoms: C_22  and  C_23 
REMARK    8  A    between atoms: C_25  and  C_26 
ROOT
HETATM    1  C   UNL     1     -43.159  57.100 -57.574  1.00  0.00     0.054 A 
HETATM    2  C   UNL     1     -43.831  58.141 -56.947  1.00  0.00     0.148 A 
HETATM    3  N   UNL     1     -44.743  58.949 -57.560  1.00  0.00    -0.241 NA
HETATM    4  C   UNL     1     -45.019  58.746 -58.865  1.00  0.00     0.125 A 
HETATM    5  C   UNL     1     -44.425  57.685 -59.546  1.00  0.00     0.052 A 
HETATM    6  C   UNL     1     -43.498  56.860 -58.900  1.00  0.00     0.035 A 
ENDROOT
BRANCH   4   7
HETATM    7  N   UNL     1     -45.831  59.670 -59.516  1.00  0.00    -0.364 N 
HETATM    8  C   UNL     1     -46.607  60.559 -58.644  1.00  0.00     0.152 C 
HETATM    9  C   UNL     1     -48.124  60.301 -58.678  1.00  0.00     0.255 C 
HETATM   10  N   UNL     1     -48.674  60.708 -60.047  1.00  0.00    -0.066 N 
HETATM   11  H   UNL     1     -47.986  61.371 -60.422  1.00  0.00     0.280 HD
HETATM   12  C   UNL     1     -48.729  59.581 -61.040  1.00  0.00     0.237 C 
HETATM   13  C   UNL     1     -47.458  58.738 -61.107  1.00  0.00     0.047 C 
HETATM   14  C   UNL     1     -46.154  59.510 -60.931  1.00  0.00     0.126 C 
BRANCH  10  15
HETATM   15  C   UNL     1     -49.936  61.543 -59.987  1.00  0.00     0.273 C 
BRANCH  15  16
HETATM   16  C   UNL     1     -51.164  60.883 -59.419  1.00  0.00    -0.032 A 
HETATM   17  C   UNL     1     -51.359  60.820 -58.027  1.00  0.00     0.025 A 
HETATM   18  C   UNL     1     -52.487  60.186 -57.476  1.00  0.00     0.048 A 
HETATM   19  C   UNL     1     -53.425  59.607 -58.340  1.00  0.00     0.016 A 
HETATM   20  C   UNL     1     -53.240  59.657 -59.721  1.00  0.00     0.001 A 
HETATM   21  C   UNL     1     -52.118  60.289 -60.257  1.00  0.00     0.009 A 
BRANCH  18  22
HETATM   22  C   UNL     1     -52.692  60.109 -55.979  1.00  0.00     0.417 C 
HETATM   23  F   UNL     1     -52.862  58.830 -55.539  1.00  0.00    -0.166 F 
HETATM   24  F   UNL     1     -51.634  60.605 -55.286  1.00  0.00    -0.166 F 
HETATM   25  F   UNL     1     -53.786  60.800 -55.565  1.00  0.00    -0.166 F 
ENDBRANCH  18  22
ENDBRANCH  15  16
ENDBRANCH  10  15
ENDBRANCH   4   7
BRANCH   1  26
HETATM   26  N   UNL     1     -42.154  56.296 -56.995  1.00  0.00    -0.307 N 
HETATM   27  C   UNL     1     -42.282  55.488 -55.874  1.00  0.00     0.325 C 
HETATM   28  N   UNL     1     -41.071  54.888 -55.565  1.00  0.00    -0.309 N 
HETATM   29  O   UNL     1     -43.323  55.354 -55.243  1.00  0.00    -0.247 OA
HETATM   30  H   UNL     1     -40.341  54.958 -56.259  1.00  0.00     0.170 HD
HETATM   31  H   UNL     1     -41.216  56.436 -57.341  1.00  0.00     0.170 HD
BRANCH  28  32
HETATM   32  C   UNL     1     -40.756  54.092 -54.440  1.00  0.00     0.041 A 
HETATM   33  C   UNL     1     -40.344  52.756 -54.514  1.00  0.00     0.066 A 
HETATM   34  C   UNL     1     -40.042  52.034 -53.352  1.00  0.00     0.073 A 
HETATM   35  C   UNL     1     -40.176  52.646 -52.106  1.00  0.00     0.073 A 
HETATM   36  C   UNL     1     -40.616  53.963 -52.027  1.00  0.00     0.073 A 
HETATM   37  C   UNL     1     -40.887  54.694 -53.182  1.00  0.00     0.066 A 
BRANCH  34  38
HETATM   38  O   UNL     1     -39.614  50.735 -53.301  1.00  0.00    -0.356 OA
HETATM   39  C   UNL     1     -39.763  49.962 -54.488  1.00  0.00     0.210 C 
ENDBRANCH  34  38
BRANCH  36  40
HETATM   40  O   UNL     1     -40.707  54.578 -50.808  1.00  0.00    -0.356 OA
HETATM   41  C   UNL     1     -39.762  54.011 -49.899  1.00  0.00     0.210 C 
ENDBRANCH  36  40
ENDBRANCH  28  32
ENDBRANCH   1  26
TORSDOF 8
ENDMDL
MODEL 7
REMARK VINA RESULT:      -8.3      4.410      5.686
REMARK  8 active torsions:
REMARK  status: ('A' for Active; 'I' for Inactive)
REMARK    1  A    between atoms: O_2  and  C_3 
REMARK    2  A    between atoms: C_5  and  O_6 
REMARK    3  A    between atoms: C_9  and  N_10 
REMARK       I    between atoms: N_10  and  C_11 
REMARK       I    between atoms: C_11  and  N_12 
REMARK    4  A    between atoms: N_12  and  C_13 
REMARK    5  A    between atoms: C_16  and  N_17 
REMARK    6  A    between atoms: N_20  and  C_22 
REMARK    7  A    between atoms: C_22  and  C_23 
REMARK    8  A    between atoms: C_25  and  C_26 
ROOT
HETATM    1  C   UNL     1     -45.068  58.385 -55.933  1.00  0.00     0.054 A 
HETATM    2  C   UNL     1     -44.020  57.748 -56.584  1.00  0.00     0.148 A 
HETATM    3  N   UNL     1     -43.129  56.913 -55.975  1.00  0.00    -0.241 NA
HETATM    4  C   UNL     1     -43.249  56.687 -54.651  1.00  0.00     0.125 A 
HETATM    5  C   UNL     1     -44.309  57.249 -53.942  1.00  0.00     0.052 A 
HETATM    6  C   UNL     1     -45.221  58.095 -54.583  1.00  0.00     0.035 A 
ENDROOT
BRANCH   4   7
HETATM    7  N   UNL     1     -42.247  55.961 -54.014  1.00  0.00    -0.364 N 
HETATM    8  C   UNL     1     -42.636  54.632 -53.529  1.00  0.00     0.152 C 
HETATM    9  C   UNL     1     -42.681  54.516 -51.995  1.00  0.00     0.255 C 
HETATM   10  N   UNL     1     -41.258  54.607 -51.440  1.00  0.00    -0.066 N 
HETATM   11  H   UNL     1     -40.650  54.347 -52.225  1.00  0.00     0.280 HD
HETATM   12  C   UNL     1     -40.843  56.000 -51.055  1.00  0.00     0.237 C 
HETATM   13  C   UNL     1     -41.172  57.065 -52.098  1.00  0.00     0.047 C 
HETATM   14  C   UNL     1     -41.030  56.622 -53.550  1.00  0.00     0.126 C 
BRANCH  10  15
HETATM   15  C   UNL     1     -40.926  53.553 -50.404  1.00  0.00     0.273 C 
BRANCH  15  16
HETATM   16  C   UNL     1     -40.469  52.213 -50.917  1.00  0.00    -0.032 A 
HETATM   17  C   UNL     1     -40.310  51.997 -52.298  1.00  0.00     0.025 A 
HETATM   18  C   UNL     1     -39.908  50.746 -52.799  1.00  0.00     0.048 A 
HETATM   19  C   UNL     1     -39.667  49.703 -51.897  1.00  0.00     0.016 A 
HETATM   20  C   UNL     1     -39.826  49.903 -50.526  1.00  0.00     0.001 A 
HETATM   21  C   UNL     1     -40.225  51.148 -50.039  1.00  0.00     0.009 A 
BRANCH  18  22
HETATM   22  C   UNL     1     -39.748  50.509 -54.285  1.00  0.00     0.417 C 
HETATM   23  F   UNL     1     -38.508  50.046 -54.611  1.00  0.00    -0.166 F 
HETATM   24  F   UNL     1     -40.628  49.589 -54.761  1.00  0.00    -0.166 F 
HETATM   25  F   UNL     1     -39.934  51.639 -55.017  1.00  0.00    -0.166 F 
ENDBRANCH  18  22
ENDBRANCH  15  16
ENDBRANCH  10  15
ENDBRANCH   4   7
BRANCH   1  26
HETATM   26  N   UNL     1     -45.959  59.314 -56.512  1.00  0.00    -0.307 N 
HETATM   27  C   UNL     1     -47.027  59.026 -57.350  1.00  0.00     0.325 C 
HETATM   28  N   UNL     1     -47.647  60.193 -57.768  1.00  0.00    -0.309 N 
HETATM   29  O   UNL     1     -47.349  57.892 -57.682  1.00  0.00    -0.247 OA
HETATM   30  H   UNL     1     -47.381  61.043 -57.292  1.00  0.00     0.170 HD
HETATM   31  H   UNL     1     -45.707  60.288 -56.428  1.00  0.00     0.170 HD
BRANCH  28  32
HETATM   32  C   UNL     1     -48.690  60.334 -58.712  1.00  0.00     0.041 A 
HETATM   33  C   UNL     1     -48.525  60.172 -60.094  1.00  0.00     0.066 A 
HETATM   34  C   UNL     1     -49.611  60.322 -60.967  1.00  0.00     0.073 A 
HETATM   35  C   UNL     1     -50.864  60.658 -60.457  1.00  0.00     0.073 A 
HETATM   36  C   UNL     1     -51.024  60.850 -59.089  1.00  0.00     0.073 A 
HETATM   37  C   UNL     1     -49.954  60.672 -58.215  1.00  0.00     0.066 A 
BRANCH  34  38
HETATM   38  O   UNL     1     -49.574  60.171 -62.327  1.00  0.00    -0.356 OA
HETATM   39  C   UNL     1     -49.433  58.845 -62.824  1.00  0.00     0.210 C 
ENDBRANCH  34  38
BRANCH  36  40
HETATM   40  O   UNL     1     -52.263  61.138 -58.583  1.00  0.00    -0.356 OA
HETATM   41  C   UNL     1     -52.551  60.287 -57.473  1.00  0.00     0.210 C 
ENDBRANCH  36  40
ENDBRANCH  28  32
ENDBRANCH   1  26
TORSDOF 8
ENDMDL
MODEL 8
REMARK VINA RESULT:      -8.3      6.064      9.342
REMARK  8 active torsions:
REMARK  status: ('A' for Active; 'I' for Inactive)
REMARK    1  A    between atoms: O_2  and  C_3 
REMARK    2  A    between atoms: C_5  and  O_6 
REMARK    3  A    between atoms: C_9  and  N_10 
REMARK       I    between atoms: N_10  and  C_11 
REMARK       I    between atoms: C_11  and  N_12 
REMARK    4  A    between atoms: N_12  and  C_13 
REMARK    5  A    between atoms: C_16  and  N_17 
REMARK    6  A    between atoms: N_20  and  C_22 
REMARK    7  A    between atoms: C_22  and  C_23 
REMARK    8  A    between atoms: C_25  and  C_26 
ROOT
HETATM    1  C   UNL     1     -45.397  60.074 -51.218  1.00  0.00     0.054 A 
HETATM    2  C   UNL     1     -44.799  60.629 -52.341  1.00  0.00     0.148 A 
HETATM    3  N   UNL     1     -44.217  59.906 -53.341  1.00  0.00    -0.241 NA
HETATM    4  C   UNL     1     -44.201  58.560 -53.246  1.00  0.00     0.125 A 
HETATM    5  C   UNL     1     -44.830  57.930 -52.174  1.00  0.00     0.052 A 
HETATM    6  C   UNL     1     -45.431  58.686 -51.162  1.00  0.00     0.035 A 
ENDROOT
BRANCH   4   7
HETATM    7  N   UNL     1     -43.471  57.843 -54.190  1.00  0.00    -0.364 N 
HETATM    8  C   UNL     1     -43.906  56.459 -54.410  1.00  0.00     0.152 C 
HETATM    9  C   UNL     1     -42.905  55.403 -53.910  1.00  0.00     0.255 C 
HETATM   10  N   UNL     1     -41.650  55.441 -54.785  1.00  0.00    -0.066 N 
HETATM   11  H   UNL     1     -41.955  55.874 -55.665  1.00  0.00     0.280 HD
HETATM   12  C   UNL     1     -40.564  56.335 -54.253  1.00  0.00     0.237 C 
HETATM   13  C   UNL     1     -41.047  57.710 -53.799  1.00  0.00     0.047 C 
HETATM   14  C   UNL     1     -42.166  58.319 -54.639  1.00  0.00     0.126 C 
BRANCH  10  15
HETATM   15  C   UNL     1     -41.166  54.079 -55.238  1.00  0.00     0.273 C 
BRANCH  15  16
HETATM   16  C   UNL     1     -40.678  53.139 -54.169  1.00  0.00    -0.032 A 
HETATM   17  C   UNL     1     -40.709  53.524 -52.815  1.00  0.00     0.025 A 
HETATM   18  C   UNL     1     -40.236  52.670 -51.803  1.00  0.00     0.048 A 
HETATM   19  C   UNL     1     -39.724  51.417 -52.162  1.00  0.00     0.016 A 
HETATM   20  C   UNL     1     -39.683  51.026 -53.499  1.00  0.00     0.001 A 
HETATM   21  C   UNL     1     -40.156  51.881 -54.496  1.00  0.00     0.009 A 
BRANCH  18  22
HETATM   22  C   UNL     1     -40.259  53.087 -50.349  1.00  0.00     0.417 C 
HETATM   23  F   UNL     1     -41.393  53.767 -50.017  1.00  0.00    -0.166 F 
HETATM   24  F   UNL     1     -40.199  52.024 -49.504  1.00  0.00    -0.166 F 
HETATM   25  F   UNL     1     -39.221  53.901 -50.023  1.00  0.00    -0.166 F 
ENDBRANCH  18  22
ENDBRANCH  15  16
ENDBRANCH  10  15
ENDBRANCH   4   7
BRANCH   1  26
HETATM   26  N   UNL     1     -45.938  60.791 -50.129  1.00  0.00    -0.307 N 
HETATM   27  C   UNL     1     -45.257  61.213 -48.995  1.00  0.00     0.325 C 
HETATM   28  N   UNL     1     -46.123  61.840 -48.113  1.00  0.00    -0.309 N 
HETATM   29  O   UNL     1     -44.062  61.028 -48.807  1.00  0.00    -0.247 OA
HETATM   30  H   UNL     1     -47.043  62.066 -48.464  1.00  0.00     0.170 HD
HETATM   31  H   UNL     1     -46.943  60.874 -50.104  1.00  0.00     0.170 HD
BRANCH  28  32
HETATM   32  C   UNL     1     -45.849  62.304 -46.806  1.00  0.00     0.041 A 
HETATM   33  C   UNL     1     -44.788  61.841 -46.016  1.00  0.00     0.066 A 
HETATM   34  C   UNL     1     -44.576  62.356 -44.730  1.00  0.00     0.073 A 
HETATM   35  C   UNL     1     -45.444  63.322 -44.222  1.00  0.00     0.073 A 
HETATM   36  C   UNL     1     -46.516  63.761 -44.992  1.00  0.00     0.073 A 
HETATM   37  C   UNL     1     -46.711  63.275 -46.283  1.00  0.00     0.066 A 
BRANCH  34  38
HETATM   38  O   UNL     1     -43.568  61.995 -43.877  1.00  0.00    -0.356 OA
HETATM   39  C   UNL     1     -43.524  62.655 -42.617  1.00  0.00     0.210 C 
ENDBRANCH  34  38
BRANCH  36  40
HETATM   40  O   UNL     1     -47.343  64.740 -44.511  1.00  0.00    -0.356 OA
HETATM   41  C   UNL     1     -47.281  64.779 -43.084  1.00  0.00     0.210 C 
ENDBRANCH  36  40
ENDBRANCH  28  32
ENDBRANCH   1  26
TORSDOF 8
ENDMDL
MODEL 9
REMARK VINA RESULT:      -8.2      7.485     12.462
REMARK  8 active torsions:
REMARK  status: ('A' for Active; 'I' for Inactive)
REMARK    1  A    between atoms: O_2  and  C_3 
REMARK    2  A    between atoms: C_5  and  O_6 
REMARK    3  A    between atoms: C_9  and  N_10 
REMARK       I    between atoms: N_10  and  C_11 
REMARK       I    between atoms: C_11  and  N_12 
REMARK    4  A    between atoms: N_12  and  C_13 
REMARK    5  A    between atoms: C_16  and  N_17 
REMARK    6  A    between atoms: N_20  and  C_22 
REMARK    7  A    between atoms: C_22  and  C_23 
REMARK    8  A    between atoms: C_25  and  C_26 
ROOT
HETATM    1  C   UNL     1     -43.023  58.642 -52.529  1.00  0.00     0.054 A 
HETATM    2  C   UNL     1     -44.064  58.957 -53.392  1.00  0.00     0.148 A 
HETATM    3  N   UNL     1     -45.060  59.844 -53.106  1.00  0.00    -0.241 NA
HETATM    4  C   UNL     1     -45.057  60.461 -51.906  1.00  0.00     0.125 A 
HETATM    5  C   UNL     1     -44.014  60.236 -51.010  1.00  0.00     0.052 A 
HETATM    6  C   UNL     1     -42.995  59.330 -51.322  1.00  0.00     0.035 A 
ENDROOT
BRANCH   4   7
HETATM    7  N   UNL     1     -46.158  61.243 -51.567  1.00  0.00    -0.364 N 
HETATM    8  C   UNL     1     -47.245  61.270 -52.553  1.00  0.00     0.152 C 
HETATM    9  C   UNL     1     -47.418  62.629 -53.253  1.00  0.00     0.255 C 
HETATM   10  N   UNL     1     -47.936  63.655 -52.243  1.00  0.00    -0.066 N 
HETATM   11  H   UNL     1     -48.373  63.098 -51.500  1.00  0.00     0.280 HD
HETATM   12  C   UNL     1     -46.849  64.444 -51.566  1.00  0.00     0.237 C 
HETATM   13  C   UNL     1     -45.685  63.600 -51.053  1.00  0.00     0.047 C 
HETATM   14  C   UNL     1     -46.067  62.232 -50.497  1.00  0.00     0.126 C 
BRANCH  10  15
HETATM   15  C   UNL     1     -49.090  64.497 -52.746  1.00  0.00     0.273 C 
BRANCH  15  16
HETATM   16  C   UNL     1     -50.468  63.899 -52.637  1.00  0.00    -0.032 A 
HETATM   17  C   UNL     1     -51.308  63.839 -53.764  1.00  0.00     0.025 A 
HETATM   18  C   UNL     1     -52.607  63.307 -53.677  1.00  0.00     0.048 A 
HETATM   19  C   UNL     1     -53.062  62.835 -52.440  1.00  0.00     0.016 A 
HETATM   20  C   UNL     1     -52.241  62.894 -51.315  1.00  0.00     0.001 A 
HETATM   21  C   UNL     1     -50.954  63.423 -51.412  1.00  0.00     0.009 A 
BRANCH  18  22
HETATM   22  C   UNL     1     -53.516  63.252 -54.886  1.00  0.00     0.417 C 
HETATM   23  F   UNL     1     -54.364  64.317 -54.952  1.00  0.00    -0.166 F 
HETATM   24  F   UNL     1     -52.823  63.253 -56.055  1.00  0.00    -0.166 F 
HETATM   25  F   UNL     1     -54.300  62.143 -54.900  1.00  0.00    -0.166 F 
ENDBRANCH  18  22
ENDBRANCH  15  16
ENDBRANCH  10  15
ENDBRANCH   4   7
BRANCH   1  26
HETATM   26  N   UNL     1     -42.022  57.673 -52.758  1.00  0.00    -0.307 N 
HETATM   27  C   UNL     1     -42.173  56.295 -52.696  1.00  0.00     0.325 C 
HETATM   28  N   UNL     1     -40.962  55.661 -52.926  1.00  0.00    -0.309 N 
HETATM   29  O   UNL     1     -43.233  55.734 -52.448  1.00  0.00    -0.247 OA
HETATM   30  H   UNL     1     -40.209  56.236 -53.275  1.00  0.00     0.170 HD
HETATM   31  H   UNL     1     -41.076  58.017 -52.828  1.00  0.00     0.170 HD
BRANCH  28  32
HETATM   32  C   UNL     1     -40.671  54.281 -52.834  1.00  0.00     0.041 A 
HETATM   33  C   UNL     1     -40.486  53.443 -53.941  1.00  0.00     0.066 A 
HETATM   34  C   UNL     1     -40.192  52.084 -53.768  1.00  0.00     0.073 A 
HETATM   35  C   UNL     1     -40.106  51.555 -52.481  1.00  0.00     0.073 A 
HETATM   36  C   UNL     1     -40.320  52.378 -51.380  1.00  0.00     0.073 A 
HETATM   37  C   UNL     1     -40.581  53.736 -51.547  1.00  0.00     0.066 A 
BRANCH  34  38
HETATM   38  O   UNL     1     -39.975  51.175 -54.770  1.00  0.00    -0.356 OA
HETATM   39  C   UNL     1     -39.691  49.838 -54.375  1.00  0.00     0.210 C 
ENDBRANCH  34  38
BRANCH  36  40
HETATM   40  O   UNL     1     -40.193  51.869 -50.116  1.00  0.00    -0.356 OA
HETATM   41  C   UNL     1     -40.189  50.441 -50.158  1.00  0.00     0.210 C 
ENDBRANCH  36  40
ENDBRANCH  28  32
ENDBRANCH   1  26
TORSDOF 8
ENDMDL
MODEL 10
REMARK VINA RESULT:      -8.2      6.773     12.050
REMARK  8 active torsions:
REMARK  status: ('A' for Active; 'I' for Inactive)
REMARK    1  A    between atoms: O_2  and  C_3 
REMARK    2  A    between atoms: C_5  and  O_6 
REMARK    3  A    between atoms: C_9  and  N_10 
REMARK       I    between atoms: N_10  and  C_11 
REMARK       I    between atoms: C_11  and  N_12 
REMARK    4  A    between atoms: N_12  and  C_13 
REMARK    5  A    between atoms: C_16  and  N_17 
REMARK    6  A    between atoms: N_20  and  C_22 
REMARK    7  A    between atoms: C_22  and  C_23 
REMARK    8  A    between atoms: C_25  and  C_26 
ROOT
HETATM    1  C   UNL     1     -42.902  57.039 -57.590  1.00  0.00     0.054 A 
HETATM    2  C   UNL     1     -44.242  56.889 -57.920  1.00  0.00     0.148 A 
HETATM    3  N   UNL     1     -45.034  57.891 -58.401  1.00  0.00    -0.241 NA
HETATM    4  C   UNL     1     -44.501  59.119 -58.564  1.00  0.00     0.125 A 
HETATM    5  C   UNL     1     -43.148  59.332 -58.306  1.00  0.00     0.052 A 
HETATM    6  C   UNL     1     -42.347  58.292 -57.822  1.00  0.00     0.035 A 
ENDROOT
BRANCH   4   7
HETATM    7  N   UNL     1     -45.354  60.165 -58.906  1.00  0.00    -0.364 N 
HETATM    8  C   UNL     1     -45.907  60.926 -57.780  1.00  0.00     0.152 C 
HETATM    9  C   UNL     1     -47.420  60.730 -57.577  1.00  0.00     0.255 C 
HETATM   10  N   UNL     1     -48.173  61.374 -58.743  1.00  0.00    -0.066 N 
HETATM   11  H   UNL     1     -47.520  62.065 -59.130  1.00  0.00     0.280 HD
HETATM   12  C   UNL     1     -48.473  60.427 -59.871  1.00  0.00     0.237 C 
HETATM   13  C   UNL     1     -47.288  59.563 -60.299  1.00  0.00     0.047 C 
HETATM   14  C   UNL     1     -45.927  60.250 -60.246  1.00  0.00     0.126 C 
BRANCH  10  15
HETATM   15  C   UNL     1     -49.350  62.232 -58.325  1.00  0.00     0.273 C 
BRANCH  15  16
HETATM   16  C   UNL     1     -50.329  61.621 -57.359  1.00  0.00    -0.032 A 
HETATM   17  C   UNL     1     -50.327  62.005 -56.005  1.00  0.00     0.025 A 
HETATM   18  C   UNL     1     -51.217  61.429 -55.081  1.00  0.00     0.048 A 
HETATM   19  C   UNL     1     -52.116  60.454 -55.529  1.00  0.00     0.016 A 
HETATM   20  C   UNL     1     -52.125  60.060 -56.867  1.00  0.00     0.001 A 
HETATM   21  C   UNL     1     -51.238  60.639 -57.775  1.00  0.00     0.009 A 
BRANCH  18  22
HETATM   22  C   UNL     1     -51.207  61.833 -53.623  1.00  0.00     0.417 C 
HETATM   23  F   UNL     1     -51.372  63.175 -53.451  1.00  0.00    -0.166 F 
HETATM   24  F   UNL     1     -52.204  61.240 -52.915  1.00  0.00    -0.166 F 
HETATM   25  F   UNL     1     -50.043  61.512 -53.001  1.00  0.00    -0.166 F 
ENDBRANCH  18  22
ENDBRANCH  15  16
ENDBRANCH  10  15
ENDBRANCH   4   7
BRANCH   1  26
HETATM   26  N   UNL     1     -42.075  56.048 -57.017  1.00  0.00    -0.307 N 
HETATM   27  C   UNL     1     -42.151  55.551 -55.724  1.00  0.00     0.325 C 
HETATM   28  N   UNL     1     -41.142  54.628 -55.497  1.00  0.00    -0.309 N 
HETATM   29  O   UNL     1     -42.987  55.907 -54.903  1.00  0.00    -0.247 OA
HETATM   30  H   UNL     1     -40.627  54.311 -56.305  1.00  0.00     0.170 HD
HETATM   31  H   UNL     1     -41.259  55.785 -57.550  1.00  0.00     0.170 HD
BRANCH  28  32
HETATM   32  C   UNL     1     -40.807  53.987 -54.282  1.00  0.00     0.041 A 
HETATM   33  C   UNL     1     -40.894  54.596 -53.023  1.00  0.00     0.066 A 
HETATM   34  C   UNL     1     -40.551  53.891 -51.862  1.00  0.00     0.073 A 
HETATM   35  C   UNL     1     -40.095  52.577 -51.962  1.00  0.00     0.073 A 
HETATM   36  C   UNL     1     -39.977  51.981 -53.213  1.00  0.00     0.073 A 
HETATM   37  C   UNL     1     -40.348  52.667 -54.367  1.00  0.00     0.066 A 
BRANCH  34  38
HETATM   38  O   UNL     1     -40.612  54.374 -50.582  1.00  0.00    -0.356 OA
HETATM   39  C   UNL     1     -40.305  53.461 -49.535  1.00  0.00     0.210 C 
ENDBRANCH  34  38
BRANCH  36  40
HETATM   40  O   UNL     1     -39.570  50.677 -53.309  1.00  0.00    -0.356 OA
HETATM   41  C   UNL     1     -39.995  50.120 -54.554  1.00  0.00     0.210 C 
ENDBRANCH  36  40
ENDBRANCH  28  32
ENDBRANCH   1  26
TORSDOF 8
ENDMDL
