MODEL 1
REMARK VINA RESULT:      -8.0      0.000      0.000
REMARK  10 active torsions:
REMARK  status: ('A' for Active; 'I' for Inactive)
REMARK    1  A    between atoms: C_6  and  C_7 
REMARK    2  A    between atoms: C_7  and  C_8 
REMARK       I    between atoms: C_8  and  N_9 
REMARK    3  A    between atoms: N_9  and  C_10 
REMARK    4  A    between atoms: C_10  and  C_11 
REMARK    5  A    between atoms: C_11  and  N_12 
REMARK    6  A    between atoms: C_19  and  C_20 
REMARK    7  A    between atoms: C_29  and  C_30 
REMARK    8  A    between atoms: C_30  and  O_31 
REMARK    9  A    between atoms: O_31  and  C_32 
REMARK   10  A    between atoms: C_32  and  C_33 
ROOT
HETATM    1  C   UNL     1     -42.412  59.911 -55.223  1.00  0.00     0.071 C 
HETATM    2  C   UNL     1     -41.584  58.914 -54.452  1.00  0.00     0.048 C 
HETATM    3  N   UNL     1     -40.710  59.496 -53.525  1.00  0.00    -0.229 NA
HETATM    4  C   UNL     1     -40.518  58.824 -52.434  1.00  0.00     0.170 C 
HETATM    5  N   UNL     1     -40.998  57.342 -52.273  1.00  0.00    -0.319 N 
HETATM    6  C   UNL     1     -41.584  57.230 -51.124  1.00  0.00     0.011 C 
HETATM    7  C   UNL     1     -40.914  56.728 -53.610  1.00  0.00     0.166 C 
HETATM    8  S   UNL     1     -40.031  59.470 -50.915  1.00  0.00    -0.086 SA
HETATM    9  C   UNL     1     -41.147  58.264 -50.089  1.00  0.00     0.135 C 
HETATM   10  C   UNL     1     -41.801  57.575 -54.467  1.00  0.00     0.069 C 
ENDROOT
BRANCH   6  11
HETATM   11  C   UNL     1     -42.655  56.205 -50.884  1.00  0.00     0.156 C 
BRANCH  11  12
HETATM   12  C   UNL     1     -44.027  56.822 -50.742  1.00  0.00     0.223 C 
HETATM   13  N   UNL     1     -44.144  58.181 -50.947  1.00  0.00    -0.359 N 
HETATM   14  H   UNL     1     -43.320  58.748 -51.143  1.00  0.00     0.162 HD
HETATM   15  O   UNL     1     -44.981  56.129 -50.397  1.00  0.00    -0.273 OA
BRANCH  13  16
HETATM   16  C   UNL     1     -45.475  58.780 -50.868  1.00  0.00     0.150 C 
BRANCH  16  17
HETATM   17  C   UNL     1     -45.618  60.187 -51.474  1.00  0.00     0.254 C 
BRANCH  17  18
HETATM   18  N   UNL     1     -45.922  61.219 -50.401  1.00  0.00    -0.070 N 
HETATM   19  H   UNL     1     -46.944  61.318 -50.318  1.00  0.00     0.279 HD
HETATM   20  C   UNL     1     -45.357  62.607 -50.689  1.00  0.00     0.235 C 
HETATM   21  C   UNL     1     -44.233  62.769 -49.690  1.00  0.00     0.029 C 
HETATM   22  C   UNL     1     -44.780  62.081 -48.458  1.00  0.00     0.029 C 
HETATM   23  C   UNL     1     -45.412  60.821 -49.016  1.00  0.00     0.235 C 
ENDBRANCH  17  18
ENDBRANCH  16  17
ENDBRANCH  13  16
ENDBRANCH  11  12
ENDBRANCH   6  11
BRANCH   7  24
HETATM   24  C   UNL     1     -40.879  55.217 -53.782  1.00  0.00    -0.030 A 
HETATM   25  C   UNL     1     -41.094  54.302 -52.739  1.00  0.00     0.011 A 
HETATM   26  C   UNL     1     -40.915  52.923 -52.934  1.00  0.00     0.024 A 
HETATM   27  C   UNL     1     -40.468  52.437 -54.157  1.00  0.00     0.034 A 
HETATM   28 CL   UNL     1     -40.220  50.753 -54.376  1.00  0.00    -0.084 Cl
HETATM   29  C   UNL     1     -40.186  53.321 -55.188  1.00  0.00     0.024 A 
HETATM   30  C   UNL     1     -40.379  54.692 -54.997  1.00  0.00     0.011 A 
ENDBRANCH   7  24
BRANCH  10  31
HETATM   31  C   UNL     1     -43.175  57.090 -54.670  1.00  0.00     0.294 C 
HETATM   32  O   UNL     1     -44.044  57.382 -53.855  1.00  0.00    -0.259 OA
BRANCH  31  33
HETATM   33  O   UNL     1     -43.250  56.191 -55.664  1.00  0.00    -0.314 OA
BRANCH  33  34
HETATM   34  C   UNL     1     -42.956  56.759 -56.949  1.00  0.00     0.206 C 
BRANCH  34  35
HETATM   35  C   UNL     1     -43.051  55.685 -57.980  1.00  0.00    -0.011 C 
HETATM   36  C   UNL     1     -43.051  55.912 -59.300  1.00  0.00     0.009 C 
ENDBRANCH  34  35
ENDBRANCH  33  34
ENDBRANCH  31  33
ENDBRANCH  10  31
TORSDOF 10
ENDMDL
MODEL 2
REMARK VINA RESULT:      -7.4      2.386      4.575
REMARK  10 active torsions:
REMARK  status: ('A' for Active; 'I' for Inactive)
REMARK    1  A    between atoms: C_6  and  C_7 
REMARK    2  A    between atoms: C_7  and  C_8 
REMARK       I    between atoms: C_8  and  N_9 
REMARK    3  A    between atoms: N_9  and  C_10 
REMARK    4  A    between atoms: C_10  and  C_11 
REMARK    5  A    between atoms: C_11  and  N_12 
REMARK    6  A    between atoms: C_19  and  C_20 
REMARK    7  A    between atoms: C_29  and  C_30 
REMARK    8  A    between atoms: C_30  and  O_31 
REMARK    9  A    between atoms: O_31  and  C_32 
REMARK   10  A    between atoms: C_32  and  C_33 
ROOT
HETATM    1  C   UNL     1     -43.060  60.048 -56.847  1.00  0.00     0.071 C 
HETATM    2  C   UNL     1     -42.346  59.183 -55.839  1.00  0.00     0.048 C 
HETATM    3  N   UNL     1     -41.726  59.903 -54.810  1.00  0.00    -0.229 NA
HETATM    4  C   UNL     1     -41.722  59.332 -53.647  1.00  0.00     0.170 C 
HETATM    5  N   UNL     1     -42.124  57.831 -53.454  1.00  0.00    -0.319 N 
HETATM    6  C   UNL     1     -42.928  57.755 -52.443  1.00  0.00     0.011 C 
HETATM    7  C   UNL     1     -41.721  57.130 -54.687  1.00  0.00     0.166 C 
HETATM    8  S   UNL     1     -41.607  60.126 -52.124  1.00  0.00    -0.086 SA
HETATM    9  C   UNL     1     -42.787  58.895 -51.437  1.00  0.00     0.135 C 
HETATM   10  C   UNL     1     -42.465  57.833 -55.777  1.00  0.00     0.069 C 
ENDROOT
BRANCH   6  11
HETATM   11  C   UNL     1     -43.954  56.663 -52.334  1.00  0.00     0.156 C 
BRANCH  11  12
HETATM   12  C   UNL     1     -43.797  55.843 -51.075  1.00  0.00     0.223 C 
HETATM   13  N   UNL     1     -42.531  55.408 -50.746  1.00  0.00    -0.359 N 
HETATM   14  H   UNL     1     -41.741  55.600 -51.362  1.00  0.00     0.162 HD
HETATM   15  O   UNL     1     -44.786  55.535 -50.413  1.00  0.00    -0.273 OA
BRANCH  13  16
HETATM   16  C   UNL     1     -42.356  54.662 -49.501  1.00  0.00     0.150 C 
BRANCH  16  17
HETATM   17  C   UNL     1     -41.011  54.857 -48.781  1.00  0.00     0.254 C 
BRANCH  17  18
HETATM   18  N   UNL     1     -40.054  53.717 -49.086  1.00  0.00    -0.070 N 
HETATM   19  H   UNL     1     -39.405  53.609 -48.293  1.00  0.00     0.279 HD
HETATM   20  C   UNL     1     -39.206  53.930 -50.336  1.00  0.00     0.235 C 
HETATM   21  C   UNL     1     -39.762  52.944 -51.339  1.00  0.00     0.029 C 
HETATM   22  C   UNL     1     -40.100  51.746 -50.478  1.00  0.00     0.029 C 
HETATM   23  C   UNL     1     -40.753  52.369 -49.259  1.00  0.00     0.235 C 
ENDBRANCH  17  18
ENDBRANCH  16  17
ENDBRANCH  13  16
ENDBRANCH  11  12
ENDBRANCH   6  11
BRANCH   7  24
HETATM   24  C   UNL     1     -41.550  55.618 -54.712  1.00  0.00    -0.030 A 
HETATM   25  C   UNL     1     -42.535  54.707 -54.300  1.00  0.00     0.011 A 
HETATM   26  C   UNL     1     -42.267  53.332 -54.221  1.00  0.00     0.024 A 
HETATM   27  C   UNL     1     -40.994  52.846 -54.500  1.00  0.00     0.034 A 
HETATM   28 CL   UNL     1     -40.666  51.167 -54.369  1.00  0.00    -0.084 Cl
HETATM   29  C   UNL     1     -39.981  53.727 -54.849  1.00  0.00     0.024 A 
HETATM   30  C   UNL     1     -40.255  55.095 -54.942  1.00  0.00     0.011 A 
ENDBRANCH   7  24
BRANCH  10  31
HETATM   31  C   UNL     1     -43.730  57.220 -56.210  1.00  0.00     0.294 C 
HETATM   32  O   UNL     1     -44.754  57.435 -55.571  1.00  0.00    -0.259 OA
BRANCH  31  33
HETATM   33  O   UNL     1     -43.544  56.312 -57.181  1.00  0.00    -0.314 OA
BRANCH  33  34
HETATM   34  C   UNL     1     -43.448  56.904 -58.484  1.00  0.00     0.206 C 
BRANCH  34  35
HETATM   35  C   UNL     1     -43.351  55.815 -59.500  1.00  0.00    -0.011 C 
HETATM   36  C   UNL     1     -44.212  54.792 -59.586  1.00  0.00     0.009 C 
ENDBRANCH  34  35
ENDBRANCH  33  34
ENDBRANCH  31  33
ENDBRANCH  10  31
TORSDOF 10
ENDMDL
MODEL 3
REMARK VINA RESULT:      -7.3      2.986      6.824
REMARK  10 active torsions:
REMARK  status: ('A' for Active; 'I' for Inactive)
REMARK    1  A    between atoms: C_6  and  C_7 
REMARK    2  A    between atoms: C_7  and  C_8 
REMARK       I    between atoms: C_8  and  N_9 
REMARK    3  A    between atoms: N_9  and  C_10 
REMARK    4  A    between atoms: C_10  and  C_11 
REMARK    5  A    between atoms: C_11  and  N_12 
REMARK    6  A    between atoms: C_19  and  C_20 
REMARK    7  A    between atoms: C_29  and  C_30 
REMARK    8  A    between atoms: C_30  and  O_31 
REMARK    9  A    between atoms: O_31  and  C_32 
REMARK   10  A    between atoms: C_32  and  C_33 
ROOT
HETATM    1  C   UNL     1     -42.498  60.938 -50.849  1.00  0.00     0.071 C 
HETATM    2  C   UNL     1     -43.060  59.838 -51.715  1.00  0.00     0.048 C 
HETATM    3  N   UNL     1     -44.308  60.138 -52.275  1.00  0.00    -0.229 NA
HETATM    4  C   UNL     1     -44.521  59.660 -53.461  1.00  0.00     0.170 C 
HETATM    5  N   UNL     1     -43.576  58.594 -54.112  1.00  0.00    -0.319 N 
HETATM    6  C   UNL     1     -43.333  58.961 -55.329  1.00  0.00     0.011 C 
HETATM    7  C   UNL     1     -43.049  57.774 -53.007  1.00  0.00     0.166 C 
HETATM    8  S   UNL     1     -45.615  60.292 -54.630  1.00  0.00    -0.086 SA
HETATM    9  C   UNL     1     -44.397  59.868 -55.941  1.00  0.00     0.135 C 
HETATM   10  C   UNL     1     -42.354  58.751 -52.114  1.00  0.00     0.069 C 
ENDROOT
BRANCH   6  11
HETATM   11  C   UNL     1     -42.063  58.570 -56.028  1.00  0.00     0.156 C 
BRANCH  11  12
HETATM   12  C   UNL     1     -42.303  57.624 -57.182  1.00  0.00     0.223 C 
HETATM   13  N   UNL     1     -41.910  58.034 -58.439  1.00  0.00    -0.359 N 
HETATM   14  H   UNL     1     -41.514  58.963 -58.581  1.00  0.00     0.162 HD
HETATM   15  O   UNL     1     -42.882  56.557 -56.994  1.00  0.00    -0.273 OA
BRANCH  13  16
HETATM   16  C   UNL     1     -42.084  57.106 -59.555  1.00  0.00     0.150 C 
BRANCH  16  17
HETATM   17  C   UNL     1     -43.392  57.248 -60.353  1.00  0.00     0.254 C 
BRANCH  17  18
HETATM   18  N   UNL     1     -44.547  56.564 -59.641  1.00  0.00    -0.070 N 
HETATM   19  H   UNL     1     -44.180  56.071 -58.814  1.00  0.00     0.279 HD
HETATM   20  C   UNL     1     -45.282  55.532 -60.491  1.00  0.00     0.235 C 
HETATM   21  C   UNL     1     -46.621  56.173 -60.785  1.00  0.00     0.029 C 
HETATM   22  C   UNL     1     -46.931  56.902 -59.495  1.00  0.00     0.029 C 
HETATM   23  C   UNL     1     -45.605  57.540 -59.129  1.00  0.00     0.235 C 
ENDBRANCH  17  18
ENDBRANCH  16  17
ENDBRANCH  13  16
ENDBRANCH  11  12
ENDBRANCH   6  11
BRANCH   7  24
HETATM   24  C   UNL     1     -42.456  56.396 -53.263  1.00  0.00    -0.030 A 
HETATM   25  C   UNL     1     -41.245  56.174 -53.937  1.00  0.00     0.011 A 
HETATM   26  C   UNL     1     -40.820  54.875 -54.259  1.00  0.00     0.024 A 
HETATM   27  C   UNL     1     -41.621  53.778 -53.962  1.00  0.00     0.034 A 
HETATM   28 CL   UNL     1     -41.109  52.197 -54.390  1.00  0.00    -0.084 Cl
HETATM   29  C   UNL     1     -42.853  53.969 -53.354  1.00  0.00     0.024 A 
HETATM   30  C   UNL     1     -43.268  55.262 -53.020  1.00  0.00     0.011 A 
ENDBRANCH   7  24
BRANCH  10  31
HETATM   31  C   UNL     1     -40.901  58.888 -52.296  1.00  0.00     0.294 C 
HETATM   32  O   UNL     1     -40.468  59.451 -53.296  1.00  0.00    -0.259 OA
BRANCH  31  33
HETATM   33  O   UNL     1     -40.210  58.173 -51.393  1.00  0.00    -0.314 OA
BRANCH  33  34
HETATM   34  C   UNL     1     -41.043  57.641 -50.353  1.00  0.00     0.206 C 
BRANCH  34  35
HETATM   35  C   UNL     1     -40.731  56.191 -50.185  1.00  0.00    -0.011 C 
HETATM   36  C   UNL     1     -41.601  55.287 -49.716  1.00  0.00     0.009 C 
ENDBRANCH  34  35
ENDBRANCH  33  34
ENDBRANCH  31  33
ENDBRANCH  10  31
TORSDOF 10
ENDMDL
MODEL 4
REMARK VINA RESULT:      -7.1      3.706      6.874
REMARK  10 active torsions:
REMARK  status: ('A' for Active; 'I' for Inactive)
REMARK    1  A    between atoms: C_6  and  C_7 
REMARK    2  A    between atoms: C_7  and  C_8 
REMARK       I    between atoms: C_8  and  N_9 
REMARK    3  A    between atoms: N_9  and  C_10 
REMARK    4  A    between atoms: C_10  and  C_11 
REMARK    5  A    between atoms: C_11  and  N_12 
REMARK    6  A    between atoms: C_19  and  C_20 
REMARK    7  A    between atoms: C_29  and  C_30 
REMARK    8  A    between atoms: C_30  and  O_31 
REMARK    9  A    between atoms: O_31  and  C_32 
REMARK   10  A    between atoms: C_32  and  C_33 
ROOT
HETATM    1  C   UNL     1     -43.852  60.616 -53.047  1.00  0.00     0.071 C 
HETATM    2  C   UNL     1     -44.015  59.230 -53.620  1.00  0.00     0.048 C 
HETATM    3  N   UNL     1     -45.236  59.025 -54.273  1.00  0.00    -0.229 NA
HETATM    4  C   UNL     1     -45.198  58.241 -55.305  1.00  0.00     0.170 C 
HETATM    5  N   UNL     1     -43.945  57.363 -55.637  1.00  0.00    -0.319 N 
HETATM    6  C   UNL     1     -43.690  57.485 -56.900  1.00  0.00     0.011 C 
HETATM    7  C   UNL     1     -43.330  57.008 -54.346  1.00  0.00     0.166 C 
HETATM    8  S   UNL     1     -46.301  58.246 -56.626  1.00  0.00    -0.086 SA
HETATM    9  C   UNL     1     -44.892  57.886 -57.752  1.00  0.00     0.135 C 
HETATM   10  C   UNL     1     -43.010  58.324 -53.711  1.00  0.00     0.069 C 
ENDROOT
BRANCH   6  11
HETATM   11  C   UNL     1     -42.300  57.314 -57.441  1.00  0.00     0.156 C 
BRANCH  11  12
HETATM   12  C   UNL     1     -41.868  58.473 -58.309  1.00  0.00     0.223 C 
HETATM   13  N   UNL     1     -41.712  59.703 -57.706  1.00  0.00    -0.359 N 
HETATM   14  H   UNL     1     -41.926  59.826 -56.716  1.00  0.00     0.162 HD
HETATM   15  O   UNL     1     -41.723  58.316 -59.519  1.00  0.00    -0.273 OA
BRANCH  13  16
HETATM   16  C   UNL     1     -41.239  60.820 -58.522  1.00  0.00     0.150 C 
BRANCH  16  17
HETATM   17  C   UNL     1     -42.263  61.934 -58.799  1.00  0.00     0.254 C 
BRANCH  17  18
HETATM   18  N   UNL     1     -41.579  63.199 -59.290  1.00  0.00    -0.070 N 
HETATM   19  H   UNL     1     -42.101  64.015 -58.938  1.00  0.00     0.279 HD
HETATM   20  C   UNL     1     -41.516  63.327 -60.809  1.00  0.00     0.235 C 
HETATM   21  C   UNL     1     -40.056  63.117 -61.143  1.00  0.00     0.029 C 
HETATM   22  C   UNL     1     -39.349  63.798 -59.991  1.00  0.00     0.029 C 
HETATM   23  C   UNL     1     -40.146  63.349 -58.781  1.00  0.00     0.235 C 
ENDBRANCH  17  18
ENDBRANCH  16  17
ENDBRANCH  13  16
ENDBRANCH  11  12
ENDBRANCH   6  11
BRANCH   7  24
HETATM   24  C   UNL     1     -42.370  55.833 -54.227  1.00  0.00    -0.030 A 
HETATM   25  C   UNL     1     -41.315  55.586 -55.120  1.00  0.00     0.011 A 
HETATM   26  C   UNL     1     -40.550  54.412 -55.033  1.00  0.00     0.024 A 
HETATM   27  C   UNL     1     -40.858  53.439 -54.089  1.00  0.00     0.034 A 
HETATM   28 CL   UNL     1     -39.939  51.992 -54.013  1.00  0.00    -0.084 Cl
HETATM   29  C   UNL     1     -41.934  53.625 -53.234  1.00  0.00     0.024 A 
HETATM   30  C   UNL     1     -42.686  54.801 -53.311  1.00  0.00     0.011 A 
ENDBRANCH   7  24
BRANCH  10  31
HETATM   31  C   UNL     1     -41.634  58.817 -53.880  1.00  0.00     0.294 C 
HETATM   32  O   UNL     1     -41.346  59.470 -54.877  1.00  0.00    -0.259 OA
BRANCH  31  33
HETATM   33  O   UNL     1     -40.796  58.295 -52.969  1.00  0.00    -0.314 OA
BRANCH  33  34
HETATM   34  C   UNL     1     -40.685  59.105 -51.790  1.00  0.00     0.206 C 
BRANCH  34  35
HETATM   35  C   UNL     1     -41.027  58.269 -50.602  1.00  0.00    -0.011 C 
HETATM   36  C   UNL     1     -41.084  56.931 -50.619  1.00  0.00     0.009 C 
ENDBRANCH  34  35
ENDBRANCH  33  34
ENDBRANCH  31  33
ENDBRANCH  10  31
TORSDOF 10
ENDMDL
MODEL 5
REMARK VINA RESULT:      -7.1      2.991      4.759
REMARK  10 active torsions:
REMARK  status: ('A' for Active; 'I' for Inactive)
REMARK    1  A    between atoms: C_6  and  C_7 
REMARK    2  A    between atoms: C_7  and  C_8 
REMARK       I    between atoms: C_8  and  N_9 
REMARK    3  A    between atoms: N_9  and  C_10 
REMARK    4  A    between atoms: C_10  and  C_11 
REMARK    5  A    between atoms: C_11  and  N_12 
REMARK    6  A    between atoms: C_19  and  C_20 
REMARK    7  A    between atoms: C_29  and  C_30 
REMARK    8  A    between atoms: C_30  and  O_31 
REMARK    9  A    between atoms: O_31  and  C_32 
REMARK   10  A    between atoms: C_32  and  C_33 
ROOT
HETATM    1  C   UNL     1     -42.900  54.633 -55.588  1.00  0.00     0.071 C 
HETATM    2  C   UNL     1     -42.629  56.049 -55.147  1.00  0.00     0.048 C 
HETATM    3  N   UNL     1     -43.274  57.019 -55.923  1.00  0.00    -0.229 NA
HETATM    4  C   UNL     1     -43.670  58.077 -55.287  1.00  0.00     0.170 C 
HETATM    5  N   UNL     1     -43.218  58.383 -53.819  1.00  0.00    -0.319 N 
HETATM    6  C   UNL     1     -44.263  58.734 -53.140  1.00  0.00     0.011 C 
HETATM    7  C   UNL     1     -41.859  57.832 -53.677  1.00  0.00     0.166 C 
HETATM    8  S   UNL     1     -44.951  59.125 -55.756  1.00  0.00    -0.086 SA
HETATM    9  C   UNL     1     -45.401  59.305 -53.982  1.00  0.00     0.135 C 
HETATM   10  C   UNL     1     -42.012  56.376 -53.984  1.00  0.00     0.069 C 
ENDROOT
BRANCH   6  11
HETATM   11  C   UNL     1     -44.346  58.515 -51.657  1.00  0.00     0.156 C 
BRANCH  11  12
HETATM   12  C   UNL     1     -45.288  59.483 -50.979  1.00  0.00     0.223 C 
HETATM   13  N   UNL     1     -45.080  60.830 -51.184  1.00  0.00    -0.359 N 
HETATM   14  H   UNL     1     -44.288  61.154 -51.740  1.00  0.00     0.162 HD
HETATM   15  O   UNL     1     -46.166  59.065 -50.228  1.00  0.00    -0.273 OA
BRANCH  13  16
HETATM   16  C   UNL     1     -46.017  61.776 -50.581  1.00  0.00     0.150 C 
BRANCH  16  17
HETATM   17  C   UNL     1     -45.564  62.428 -49.264  1.00  0.00     0.254 C 
BRANCH  17  18
HETATM   18  N   UNL     1     -45.963  61.582 -48.066  1.00  0.00    -0.070 N 
HETATM   19  H   UNL     1     -46.421  60.723 -48.406  1.00  0.00     0.279 HD
HETATM   20  C   UNL     1     -46.939  62.266 -47.114  1.00  0.00     0.235 C 
HETATM   21  C   UNL     1     -46.115  62.562 -45.880  1.00  0.00     0.029 C 
HETATM   22  C   UNL     1     -45.212  61.351 -45.785  1.00  0.00     0.029 C 
HETATM   23  C   UNL     1     -44.773  61.132 -47.220  1.00  0.00     0.235 C 
ENDBRANCH  17  18
ENDBRANCH  16  17
ENDBRANCH  13  16
ENDBRANCH  11  12
ENDBRANCH   6  11
BRANCH   7  24
HETATM   24  C   UNL     1     -40.932  58.299 -52.564  1.00  0.00    -0.030 A 
HETATM   25  C   UNL     1     -41.370  58.698 -51.291  1.00  0.00     0.011 A 
HETATM   26  C   UNL     1     -40.479  59.245 -50.355  1.00  0.00     0.024 A 
HETATM   27  C   UNL     1     -39.146  59.454 -50.690  1.00  0.00     0.034 A 
HETATM   28 CL   UNL     1     -38.071  60.156 -49.550  1.00  0.00    -0.084 Cl
HETATM   29  C   UNL     1     -38.696  59.130 -51.961  1.00  0.00     0.024 A 
HETATM   30  C   UNL     1     -39.581  58.571 -52.888  1.00  0.00     0.011 A 
ENDBRANCH   7  24
BRANCH  10  31
HETATM   31  C   UNL     1     -42.164  55.475 -52.832  1.00  0.00     0.294 C 
HETATM   32  O   UNL     1     -43.215  55.476 -52.200  1.00  0.00    -0.259 OA
BRANCH  31  33
HETATM   33  O   UNL     1     -41.006  54.885 -52.497  1.00  0.00    -0.314 OA
BRANCH  33  34
HETATM   34  C   UNL     1     -41.172  53.511 -52.118  1.00  0.00     0.206 C 
BRANCH  34  35
HETATM   35  C   UNL     1     -40.244  52.673 -52.932  1.00  0.00    -0.011 C 
HETATM   36  C   UNL     1     -40.521  52.234 -54.167  1.00  0.00     0.009 C 
ENDBRANCH  34  35
ENDBRANCH  33  34
ENDBRANCH  31  33
ENDBRANCH  10  31
TORSDOF 10
ENDMDL
MODEL 6
REMARK VINA RESULT:      -6.9      2.777      6.454
REMARK  10 active torsions:
REMARK  status: ('A' for Active; 'I' for Inactive)
REMARK    1  A    between atoms: C_6  and  C_7 
REMARK    2  A    between atoms: C_7  and  C_8 
REMARK       I    between atoms: C_8  and  N_9 
REMARK    3  A    between atoms: N_9  and  C_10 
REMARK    4  A    between atoms: C_10  and  C_11 
REMARK    5  A    between atoms: C_11  and  N_12 
REMARK    6  A    between atoms: C_19  and  C_20 
REMARK    7  A    between atoms: C_29  and  C_30 
REMARK    8  A    between atoms: C_30  and  O_31 
REMARK    9  A    between atoms: O_31  and  C_32 
REMARK   10  A    between atoms: C_32  and  C_33 
ROOT
HETATM    1  C   UNL     1     -43.865  61.910 -52.548  1.00  0.00     0.071 C 
HETATM    2  C   UNL     1     -42.984  60.824 -53.114  1.00  0.00     0.048 C 
HETATM    3  N   UNL     1     -41.797  60.625 -52.398  1.00  0.00    -0.229 NA
HETATM    4  C   UNL     1     -41.373  59.401 -52.343  1.00  0.00     0.170 C 
HETATM    5  N   UNL     1     -41.977  58.269 -53.240  1.00  0.00    -0.319 N 
HETATM    6  C   UNL     1     -42.191  57.233 -52.493  1.00  0.00     0.011 C 
HETATM    7  C   UNL     1     -42.392  58.912 -54.500  1.00  0.00     0.166 C 
HETATM    8  S   UNL     1     -40.359  58.731 -51.124  1.00  0.00    -0.086 SA
HETATM    9  C   UNL     1     -41.321  57.168 -51.241  1.00  0.00     0.135 C 
HETATM   10  C   UNL     1     -43.375  59.957 -54.081  1.00  0.00     0.069 C 
ENDROOT
BRANCH   6  11
HETATM   11  C   UNL     1     -43.265  56.237 -52.821  1.00  0.00     0.156 C 
BRANCH  11  12
HETATM   12  C   UNL     1     -42.820  54.809 -52.599  1.00  0.00     0.223 C 
HETATM   13  N   UNL     1     -41.710  54.369 -53.289  1.00  0.00    -0.359 N 
HETATM   14  H   UNL     1     -41.239  54.979 -53.957  1.00  0.00     0.162 HD
HETATM   15  O   UNL     1     -43.473  54.067 -51.871  1.00  0.00    -0.273 OA
BRANCH  13  16
HETATM   16  C   UNL     1     -41.235  53.010 -53.041  1.00  0.00     0.150 C 
BRANCH  16  17
HETATM   17  C   UNL     1     -40.113  52.867 -51.998  1.00  0.00     0.254 C 
BRANCH  17  18
HETATM   18  N   UNL     1     -39.227  51.670 -52.304  1.00  0.00    -0.070 N 
HETATM   19  H   UNL     1     -38.254  51.909 -52.062  1.00  0.00     0.279 HD
HETATM   20  C   UNL     1     -39.236  51.244 -53.768  1.00  0.00     0.235 C 
HETATM   21  C   UNL     1     -39.993  49.934 -53.773  1.00  0.00     0.029 C 
HETATM   22  C   UNL     1     -39.545  49.285 -52.482  1.00  0.00     0.029 C 
HETATM   23  C   UNL     1     -39.584  50.429 -51.487  1.00  0.00     0.235 C 
ENDBRANCH  17  18
ENDBRANCH  16  17
ENDBRANCH  13  16
ENDBRANCH  11  12
ENDBRANCH   6  11
BRANCH   7  24
HETATM   24  C   UNL     1     -42.617  58.094 -55.764  1.00  0.00    -0.030 A 
HETATM   25  C   UNL     1     -42.842  56.708 -55.774  1.00  0.00     0.011 A 
HETATM   26  C   UNL     1     -42.909  55.992 -56.980  1.00  0.00     0.024 A 
HETATM   27  C   UNL     1     -42.698  56.636 -58.194  1.00  0.00     0.034 A 
HETATM   28 CL   UNL     1     -42.748  55.746 -59.660  1.00  0.00    -0.084 Cl
HETATM   29  C   UNL     1     -42.410  57.992 -58.213  1.00  0.00     0.024 A 
HETATM   30  C   UNL     1     -42.359  58.707 -57.013  1.00  0.00     0.011 A 
ENDBRANCH   7  24
BRANCH  10  31
HETATM   31  C   UNL     1     -44.797  59.590 -54.160  1.00  0.00     0.294 C 
HETATM   32  O   UNL     1     -45.314  58.977 -53.232  1.00  0.00    -0.259 OA
BRANCH  31  33
HETATM   33  O   UNL     1     -45.310  59.819 -55.379  1.00  0.00    -0.314 OA
BRANCH  33  34
HETATM   34  C   UNL     1     -45.925  58.655 -55.950  1.00  0.00     0.206 C 
BRANCH  34  35
HETATM   35  C   UNL     1     -46.024  58.842 -57.427  1.00  0.00    -0.011 C 
HETATM   36  C   UNL     1     -47.036  58.381 -58.174  1.00  0.00     0.009 C 
ENDBRANCH  34  35
ENDBRANCH  33  34
ENDBRANCH  31  33
ENDBRANCH  10  31
TORSDOF 10
ENDMDL
MODEL 7
REMARK VINA RESULT:      -6.8      3.129      6.567
REMARK  10 active torsions:
REMARK  status: ('A' for Active; 'I' for Inactive)
REMARK    1  A    between atoms: C_6  and  C_7 
REMARK    2  A    between atoms: C_7  and  C_8 
REMARK       I    between atoms: C_8  and  N_9 
REMARK    3  A    between atoms: N_9  and  C_10 
REMARK    4  A    between atoms: C_10  and  C_11 
REMARK    5  A    between atoms: C_11  and  N_12 
REMARK    6  A    between atoms: C_19  and  C_20 
REMARK    7  A    between atoms: C_29  and  C_30 
REMARK    8  A    between atoms: C_30  and  O_31 
REMARK    9  A    between atoms: O_31  and  C_32 
REMARK   10  A    between atoms: C_32  and  C_33 
ROOT
HETATM    1  C   UNL     1     -42.938  54.939 -50.125  1.00  0.00     0.071 C 
HETATM    2  C   UNL     1     -43.592  55.739 -51.223  1.00  0.00     0.048 C 
HETATM    3  N   UNL     1     -44.627  56.573 -50.779  1.00  0.00    -0.229 NA
HETATM    4  C   UNL     1     -44.748  57.701 -51.406  1.00  0.00     0.170 C 
HETATM    5  N   UNL     1     -43.986  57.998 -52.740  1.00  0.00    -0.319 N 
HETATM    6  C   UNL     1     -43.467  59.181 -52.654  1.00  0.00     0.011 C 
HETATM    7  C   UNL     1     -43.853  56.709 -53.442  1.00  0.00     0.166 C 
HETATM    8  S   UNL     1     -45.458  59.139 -50.782  1.00  0.00    -0.086 SA
HETATM    9  C   UNL     1     -44.175  60.111 -51.671  1.00  0.00     0.135 C 
HETATM   10  C   UNL     1     -43.104  55.838 -52.484  1.00  0.00     0.069 C 
ENDROOT
BRANCH   6  11
HETATM   11  C   UNL     1     -42.227  59.553 -53.414  1.00  0.00     0.156 C 
BRANCH  11  12
HETATM   12  C   UNL     1     -42.482  60.618 -54.456  1.00  0.00     0.223 C 
HETATM   13  N   UNL     1     -42.067  60.364 -55.747  1.00  0.00    -0.359 N 
HETATM   14  H   UNL     1     -41.567  59.504 -55.971  1.00  0.00     0.162 HD
HETATM   15  O   UNL     1     -42.989  61.688 -54.132  1.00  0.00    -0.273 OA
BRANCH  13  16
HETATM   16  C   UNL     1     -42.358  61.360 -56.776  1.00  0.00     0.150 C 
BRANCH  16  17
HETATM   17  C   UNL     1     -41.432  61.352 -58.004  1.00  0.00     0.254 C 
BRANCH  17  18
HETATM   18  N   UNL     1     -42.231  61.376 -59.296  1.00  0.00    -0.070 N 
HETATM   19  H   UNL     1     -42.940  62.122 -59.233  1.00  0.00     0.279 HD
HETATM   20  C   UNL     1     -42.971  60.076 -59.597  1.00  0.00     0.235 C 
HETATM   21  C   UNL     1     -42.220  59.480 -60.768  1.00  0.00     0.029 C 
HETATM   22  C   UNL     1     -41.846  60.701 -61.580  1.00  0.00     0.029 C 
HETATM   23  C   UNL     1     -41.383  61.689 -60.527  1.00  0.00     0.235 C 
ENDBRANCH  17  18
ENDBRANCH  16  17
ENDBRANCH  13  16
ENDBRANCH  11  12
ENDBRANCH   6  11
BRANCH   7  24
HETATM   24  C   UNL     1     -43.565  56.651 -54.935  1.00  0.00    -0.030 A 
HETATM   25  C   UNL     1     -44.038  57.590 -55.865  1.00  0.00     0.011 A 
HETATM   26  C   UNL     1     -43.850  57.407 -57.243  1.00  0.00     0.024 A 
HETATM   27  C   UNL     1     -43.234  56.257 -57.723  1.00  0.00     0.034 A 
HETATM   28 CL   UNL     1     -43.038  56.025 -59.412  1.00  0.00    -0.084 Cl
HETATM   29  C   UNL     1     -42.811  55.280 -56.834  1.00  0.00     0.024 A 
HETATM   30  C   UNL     1     -42.986  55.471 -55.460  1.00  0.00     0.011 A 
ENDBRANCH   7  24
BRANCH  10  31
HETATM   31  C   UNL     1     -41.650  55.743 -52.683  1.00  0.00     0.294 C 
HETATM   32  O   UNL     1     -40.953  56.740 -52.523  1.00  0.00    -0.259 OA
BRANCH  31  33
HETATM   33  O   UNL     1     -41.290  54.568 -53.224  1.00  0.00    -0.314 OA
BRANCH  33  34
HETATM   34  C   UNL     1     -40.487  53.773 -52.339  1.00  0.00     0.206 C 
BRANCH  34  35
HETATM   35  C   UNL     1     -40.228  52.453 -52.985  1.00  0.00    -0.011 C 
HETATM   36  C   UNL     1     -40.561  52.159 -54.248  1.00  0.00     0.009 C 
ENDBRANCH  34  35
ENDBRANCH  33  34
ENDBRANCH  31  33
ENDBRANCH  10  31
TORSDOF 10
ENDMDL
MODEL 8
REMARK VINA RESULT:      -6.6      2.365      3.735
REMARK  10 active torsions:
REMARK  status: ('A' for Active; 'I' for Inactive)
REMARK    1  A    between atoms: C_6  and  C_7 
REMARK    2  A    between atoms: C_7  and  C_8 
REMARK       I    between atoms: C_8  and  N_9 
REMARK    3  A    between atoms: N_9  and  C_10 
REMARK    4  A    between atoms: C_10  and  C_11 
REMARK    5  A    between atoms: C_11  and  N_12 
REMARK    6  A    between atoms: C_19  and  C_20 
REMARK    7  A    between atoms: C_29  and  C_30 
REMARK    8  A    between atoms: C_30  and  O_31 
REMARK    9  A    between atoms: O_31  and  C_32 
REMARK   10  A    between atoms: C_32  and  C_33 
ROOT
HETATM    1  C   UNL     1     -42.437  58.513 -57.408  1.00  0.00     0.071 C 
HETATM    2  C   UNL     1     -42.215  58.845 -55.953  1.00  0.00     0.048 C 
HETATM    3  N   UNL     1     -42.146  60.218 -55.688  1.00  0.00    -0.229 NA
HETATM    4  C   UNL     1     -42.639  60.596 -54.550  1.00  0.00     0.170 C 
HETATM    5  N   UNL     1     -43.028  59.574 -53.430  1.00  0.00    -0.319 N 
HETATM    6  C   UNL     1     -44.195  59.899 -52.974  1.00  0.00     0.011 C 
HETATM    7  C   UNL     1     -42.092  58.442 -53.554  1.00  0.00     0.166 C 
HETATM    8  S   UNL     1     -43.245  62.163 -54.175  1.00  0.00    -0.086 SA
HETATM    9  C   UNL     1     -44.561  61.369 -53.165  1.00  0.00     0.135 C 
HETATM   10  C   UNL     1     -42.298  57.939 -54.948  1.00  0.00     0.069 C 
ENDROOT
BRANCH   6  11
HETATM   11  C   UNL     1     -45.120  58.876 -52.379  1.00  0.00     0.156 C 
BRANCH  11  12
HETATM   12  C   UNL     1     -45.598  59.259 -50.997  1.00  0.00     0.223 C 
HETATM   13  N   UNL     1     -44.739  59.987 -50.201  1.00  0.00    -0.359 N 
HETATM   14  H   UNL     1     -43.800  60.216 -50.526  1.00  0.00     0.162 HD
HETATM   15  O   UNL     1     -46.693  58.873 -50.596  1.00  0.00    -0.273 OA
BRANCH  13  16
HETATM   16  C   UNL     1     -45.210  60.413 -48.885  1.00  0.00     0.150 C 
BRANCH  16  17
HETATM   17  C   UNL     1     -45.922  61.776 -48.831  1.00  0.00     0.254 C 
BRANCH  17  18
HETATM   18  N   UNL     1     -46.336  62.123 -47.411  1.00  0.00    -0.070 N 
HETATM   19  H   UNL     1     -47.293  61.775 -47.251  1.00  0.00     0.279 HD
HETATM   20  C   UNL     1     -46.346  63.619 -47.110  1.00  0.00     0.235 C 
HETATM   21  C   UNL     1     -45.168  63.822 -46.183  1.00  0.00     0.029 C 
HETATM   22  C   UNL     1     -45.190  62.569 -45.335  1.00  0.00     0.029 C 
HETATM   23  C   UNL     1     -45.456  61.471 -46.346  1.00  0.00     0.235 C 
ENDBRANCH  17  18
ENDBRANCH  16  17
ENDBRANCH  13  16
ENDBRANCH  11  12
ENDBRANCH   6  11
BRANCH   7  24
HETATM   24  C   UNL     1     -41.870  57.473 -52.402  1.00  0.00    -0.030 A 
HETATM   25  C   UNL     1     -42.855  56.607 -51.901  1.00  0.00     0.011 A 
HETATM   26  C   UNL     1     -42.628  55.836 -50.751  1.00  0.00     0.024 A 
HETATM   27  C   UNL     1     -41.434  55.954 -50.049  1.00  0.00     0.034 A 
HETATM   28 CL   UNL     1     -41.178  55.032 -48.624  1.00  0.00    -0.084 Cl
HETATM   29  C   UNL     1     -40.466  56.847 -50.481  1.00  0.00     0.024 A 
HETATM   30  C   UNL     1     -40.687  57.604 -51.636  1.00  0.00     0.011 A 
ENDBRANCH   7  24
BRANCH  10  31
HETATM   31  C   UNL     1     -43.213  56.798 -55.105  1.00  0.00     0.294 C 
HETATM   32  O   UNL     1     -44.409  56.948 -54.876  1.00  0.00    -0.259 OA
BRANCH  31  33
HETATM   33  O   UNL     1     -42.553  55.645 -55.302  1.00  0.00    -0.314 OA
BRANCH  33  34
HETATM   34  C   UNL     1     -43.144  54.541 -54.601  1.00  0.00     0.206 C 
BRANCH  34  35
HETATM   35  C   UNL     1     -42.055  53.719 -53.997  1.00  0.00    -0.011 C 
HETATM   36  C   UNL     1     -40.803  54.155 -53.813  1.00  0.00     0.009 C 
ENDBRANCH  34  35
ENDBRANCH  33  34
ENDBRANCH  31  33
ENDBRANCH  10  31
TORSDOF 10
ENDMDL
MODEL 9
REMARK VINA RESULT:      -6.5      4.328      7.628
REMARK  10 active torsions:
REMARK  status: ('A' for Active; 'I' for Inactive)
REMARK    1  A    between atoms: C_6  and  C_7 
REMARK    2  A    between atoms: C_7  and  C_8 
REMARK       I    between atoms: C_8  and  N_9 
REMARK    3  A    between atoms: N_9  and  C_10 
REMARK    4  A    between atoms: C_10  and  C_11 
REMARK    5  A    between atoms: C_11  and  N_12 
REMARK    6  A    between atoms: C_19  and  C_20 
REMARK    7  A    between atoms: C_29  and  C_30 
REMARK    8  A    between atoms: C_30  and  O_31 
REMARK    9  A    between atoms: O_31  and  C_32 
REMARK   10  A    between atoms: C_32  and  C_33 
ROOT
HETATM    1  C   UNL     1     -46.858  57.843 -57.935  1.00  0.00     0.071 C 
HETATM    2  C   UNL     1     -46.079  59.134 -57.897  1.00  0.00     0.048 C 
HETATM    3  N   UNL     1     -46.606  60.089 -57.019  1.00  0.00    -0.229 NA
HETATM    4  C   UNL     1     -45.737  60.842 -56.420  1.00  0.00     0.170 C 
HETATM    5  N   UNL     1     -44.232  60.880 -56.850  1.00  0.00    -0.319 N 
HETATM    6  C   UNL     1     -43.505  60.808 -55.781  1.00  0.00     0.011 C 
HETATM    7  C   UNL     1     -44.206  60.637 -58.304  1.00  0.00     0.166 C 
HETATM    8  S   UNL     1     -45.957  61.651 -54.918  1.00  0.00    -0.086 SA
HETATM    9  C   UNL     1     -44.201  61.290 -54.511  1.00  0.00     0.135 C 
HETATM   10  C   UNL     1     -44.862  59.303 -58.471  1.00  0.00     0.069 C 
ENDROOT
BRANCH   6  11
HETATM   11  C   UNL     1     -42.122  60.224 -55.809  1.00  0.00     0.156 C 
BRANCH  11  12
HETATM   12  C   UNL     1     -41.853  59.312 -54.634  1.00  0.00     0.223 C 
HETATM   13  N   UNL     1     -42.654  58.199 -54.490  1.00  0.00    -0.359 N 
HETATM   14  H   UNL     1     -43.427  58.030 -55.134  1.00  0.00     0.162 HD
HETATM   15  O   UNL     1     -40.985  59.602 -53.815  1.00  0.00    -0.273 OA
BRANCH  13  16
HETATM   16  C   UNL     1     -42.368  57.278 -53.392  1.00  0.00     0.150 C 
BRANCH  16  17
HETATM   17  C   UNL     1     -42.459  55.779 -53.726  1.00  0.00     0.254 C 
BRANCH  17  18
HETATM   18  N   UNL     1     -41.132  55.081 -53.482  1.00  0.00    -0.070 N 
HETATM   19  H   UNL     1     -40.611  55.603 -52.762  1.00  0.00     0.279 HD
HETATM   20  C   UNL     1     -40.235  54.994 -54.712  1.00  0.00     0.235 C 
HETATM   21  C   UNL     1     -40.259  53.529 -55.091  1.00  0.00     0.029 C 
HETATM   22  C   UNL     1     -40.284  52.837 -53.746  1.00  0.00     0.029 C 
HETATM   23  C   UNL     1     -41.286  53.655 -52.954  1.00  0.00     0.235 C 
ENDBRANCH  17  18
ENDBRANCH  16  17
ENDBRANCH  13  16
ENDBRANCH  11  12
ENDBRANCH   6  11
BRANCH   7  24
HETATM   24  C   UNL     1     -42.997  61.021 -59.145  1.00  0.00    -0.030 A 
HETATM   25  C   UNL     1     -41.884  61.718 -58.650  1.00  0.00     0.011 A 
HETATM   26  C   UNL     1     -40.863  62.159 -59.507  1.00  0.00     0.024 A 
HETATM   27  C   UNL     1     -40.961  61.959 -60.879  1.00  0.00     0.034 A 
HETATM   28 CL   UNL     1     -39.724  62.532 -61.922  1.00  0.00    -0.084 Cl
HETATM   29  C   UNL     1     -42.078  61.329 -61.406  1.00  0.00     0.024 A 
HETATM   30  C   UNL     1     -43.087  60.877 -60.550  1.00  0.00     0.011 A 
ENDBRANCH   7  24
BRANCH  10  31
HETATM   31  C   UNL     1     -43.967  58.140 -58.572  1.00  0.00     0.294 C 
HETATM   32  O   UNL     1     -43.206  57.882 -57.646  1.00  0.00    -0.259 OA
BRANCH  31  33
HETATM   33  O   UNL     1     -43.970  57.607 -59.805  1.00  0.00    -0.314 OA
BRANCH  33  34
HETATM   34  C   UNL     1     -43.247  56.370 -59.876  1.00  0.00     0.206 C 
BRANCH  34  35
HETATM   35  C   UNL     1     -44.224  55.252 -60.024  1.00  0.00    -0.011 C 
HETATM   36  C   UNL     1     -45.111  55.159 -61.023  1.00  0.00     0.009 C 
ENDBRANCH  34  35
ENDBRANCH  33  34
ENDBRANCH  31  33
ENDBRANCH  10  31
TORSDOF 10
ENDMDL
MODEL 10
REMARK VINA RESULT:      -6.5      3.003      4.771
REMARK  10 active torsions:
REMARK  status: ('A' for Active; 'I' for Inactive)
REMARK    1  A    between atoms: C_6  and  C_7 
REMARK    2  A    between atoms: C_7  and  C_8 
REMARK       I    between atoms: C_8  and  N_9 
REMARK    3  A    between atoms: N_9  and  C_10 
REMARK    4  A    between atoms: C_10  and  C_11 
REMARK    5  A    between atoms: C_11  and  N_12 
REMARK    6  A    between atoms: C_19  and  C_20 
REMARK    7  A    between atoms: C_29  and  C_30 
REMARK    8  A    between atoms: C_30  and  O_31 
REMARK    9  A    between atoms: O_31  and  C_32 
REMARK   10  A    between atoms: C_32  and  C_33 
ROOT
HETATM    1  C   UNL     1     -42.953  54.341 -55.472  1.00  0.00     0.071 C 
HETATM    2  C   UNL     1     -42.708  55.763 -55.036  1.00  0.00     0.048 C 
HETATM    3  N   UNL     1     -43.438  56.714 -55.761  1.00  0.00    -0.229 NA
HETATM    4  C   UNL     1     -43.832  57.751 -55.091  1.00  0.00     0.170 C 
HETATM    5  N   UNL     1     -43.298  58.065 -53.653  1.00  0.00    -0.319 N 
HETATM    6  C   UNL     1     -44.310  58.371 -52.906  1.00  0.00     0.011 C 
HETATM    7  C   UNL     1     -41.913  57.565 -53.603  1.00  0.00     0.166 C 
HETATM    8  S   UNL     1     -45.179  58.753 -55.469  1.00  0.00    -0.086 SA
HETATM    9  C   UNL     1     -45.520  58.904 -53.668  1.00  0.00     0.135 C 
HETATM   10  C   UNL     1     -42.030  56.107 -53.913  1.00  0.00     0.069 C 
ENDROOT
BRANCH   6  11
HETATM   11  C   UNL     1     -44.289  58.140 -51.422  1.00  0.00     0.156 C 
BRANCH  11  12
HETATM   12  C   UNL     1     -45.191  59.094 -50.673  1.00  0.00     0.223 C 
HETATM   13  N   UNL     1     -44.630  60.255 -50.184  1.00  0.00    -0.359 N 
HETATM   14  H   UNL     1     -43.631  60.433 -50.291  1.00  0.00     0.162 HD
HETATM   15  O   UNL     1     -46.365  58.799 -50.467  1.00  0.00    -0.273 OA
BRANCH  13  16
HETATM   16  C   UNL     1     -45.501  61.214 -49.508  1.00  0.00     0.150 C 
BRANCH  16  17
HETATM   17  C   UNL     1     -46.116  62.310 -50.395  1.00  0.00     0.254 C 
BRANCH  17  18
HETATM   18  N   UNL     1     -46.142  61.886 -51.853  1.00  0.00    -0.070 N 
HETATM   19  H   UNL     1     -45.720  60.949 -51.933  1.00  0.00     0.279 HD
HETATM   20  C   UNL     1     -45.365  62.809 -52.787  1.00  0.00     0.235 C 
HETATM   21  C   UNL     1     -46.435  63.517 -53.590  1.00  0.00     0.029 C 
HETATM   22  C   UNL     1     -47.473  62.434 -53.790  1.00  0.00     0.029 C 
HETATM   23  C   UNL     1     -47.554  61.775 -52.427  1.00  0.00     0.235 C 
ENDBRANCH  17  18
ENDBRANCH  16  17
ENDBRANCH  13  16
ENDBRANCH  11  12
ENDBRANCH   6  11
BRANCH   7  24
HETATM   24  C   UNL     1     -40.935  58.061 -52.548  1.00  0.00    -0.030 A 
HETATM   25  C   UNL     1     -41.249  58.198 -51.187  1.00  0.00     0.011 A 
HETATM   26  C   UNL     1     -40.346  58.787 -50.288  1.00  0.00     0.024 A 
HETATM   27  C   UNL     1     -39.135  59.297 -50.740  1.00  0.00     0.034 A 
HETATM   28 CL   UNL     1     -38.051  60.046 -49.640  1.00  0.00    -0.084 Cl
HETATM   29  C   UNL     1     -38.821  59.234 -52.090  1.00  0.00     0.024 A 
HETATM   30  C   UNL     1     -39.715  58.634 -52.981  1.00  0.00     0.011 A 
ENDBRANCH   7  24
BRANCH  10  31
HETATM   31  C   UNL     1     -42.074  55.193 -52.761  1.00  0.00     0.294 C 
HETATM   32  O   UNL     1     -43.080  55.154 -52.060  1.00  0.00    -0.259 OA
BRANCH  31  33
HETATM   33  O   UNL     1     -40.876  54.641 -52.510  1.00  0.00    -0.314 OA
BRANCH  33  34
HETATM   34  C   UNL     1     -40.971  53.260 -52.132  1.00  0.00     0.206 C 
BRANCH  34  35
HETATM   35  C   UNL     1     -40.578  52.416 -53.299  1.00  0.00    -0.011 C 
HETATM   36  C   UNL     1     -39.944  52.885 -54.382  1.00  0.00     0.009 C 
ENDBRANCH  34  35
ENDBRANCH  33  34
ENDBRANCH  31  33
ENDBRANCH  10  31
TORSDOF 10
ENDMDL
