MODEL 1
REMARK VINA RESULT:      -8.1      0.000      0.000
REMARK  5 active torsions:
REMARK  status: ('A' for Active; 'I' for Inactive)
REMARK    1  A    between atoms: C_3  and  N_4 
REMARK    2  A    between atoms: N_5  and  C_6 
REMARK    3  A    between atoms: C_6  and  C_7 
REMARK    4  A    between atoms: C_7  and  C_8 
REMARK    5  A    between atoms: C_16  and  C_17 
ROOT
HETATM    1  C   UNL     1     -44.844  58.103 -54.740  1.00  0.00     0.175 C 
HETATM    2  N   UNL     1     -44.007  56.934 -54.514  1.00  0.00    -0.186 N 
HETATM    3  C   UNL     1     -43.909  56.305 -53.345  1.00  0.00     0.680 A 
HETATM    4  N   UNL     1     -43.248  55.166 -53.518  1.00  0.00    -0.184 N 
HETATM    5  C   UNL     1     -42.882  55.075 -54.849  1.00  0.00     0.140 A 
HETATM    6  C   UNL     1     -43.304  56.214 -55.503  1.00  0.00     0.077 A 
ENDROOT
BRANCH   4   7
HETATM    7  C   UNL     1     -42.861  54.188 -52.482  1.00  0.00     0.231 C 
BRANCH   7   8
HETATM    8  C   UNL     1     -41.351  54.045 -52.345  1.00  0.00     0.178 C 
HETATM    9  O   UNL     1     -40.658  54.967 -51.906  1.00  0.00    -0.290 OA
BRANCH   8  10
HETATM   10  C   UNL     1     -40.709  52.763 -52.730  1.00  0.00     0.011 A 
HETATM   11  C   UNL     1     -40.776  52.264 -54.037  1.00  0.00     0.015 A 
HETATM   12  C   UNL     1     -40.168  51.045 -54.345  1.00  0.00     0.001 A 
HETATM   13  C   UNL     1     -39.492  50.330 -53.356  1.00  0.00     0.000 A 
HETATM   14  C   UNL     1     -39.410  50.833 -52.059  1.00  0.00     0.001 A 
HETATM   15  C   UNL     1     -40.012  52.052 -51.745  1.00  0.00     0.015 A 
ENDBRANCH   8  10
ENDBRANCH   7   8
ENDBRANCH   4   7
BRANCH   3  16
HETATM   16  N   UNL     1     -44.410  56.748 -52.197  1.00  0.00    -0.234 N 
HETATM   17  H   UNL     1     -45.262  57.278 -52.141  1.00  0.00     0.174 HD
HETATM   18  H   UNL     1     -44.036  56.379 -51.321  1.00  0.00     0.174 HD
ENDBRANCH   3  16
BRANCH   6  19
HETATM   19  C   UNL     1     -43.038  56.528 -56.954  1.00  0.00    -0.004 A 
HETATM   20  C   UNL     1     -42.592  57.811 -57.309  1.00  0.00     0.053 A 
HETATM   21  C   UNL     1     -42.358  58.072 -58.644  1.00  0.00     0.106 A 
HETATM   22  C   UNL     1     -42.555  57.124 -59.616  1.00  0.00     0.105 A 
HETATM   23  O   UNL     1     -41.921  59.255 -59.153  1.00  0.00    -0.323 OA
HETATM   24  O   UNL     1     -42.266  57.586 -60.859  1.00  0.00    -0.323 OA
HETATM   25  C   UNL     1     -43.006  55.861 -59.306  1.00  0.00     0.040 A 
HETATM   26  C   UNL     1     -41.863  58.941 -60.563  1.00  0.00     0.352 A 
HETATM   27  C   UNL     1     -43.256  55.565 -57.959  1.00  0.00     0.017 A 
ENDBRANCH   6  19
TORSDOF 5
ENDMDL
MODEL 2
REMARK VINA RESULT:      -8.0      3.234      7.189
REMARK  5 active torsions:
REMARK  status: ('A' for Active; 'I' for Inactive)
REMARK    1  A    between atoms: C_3  and  N_4 
REMARK    2  A    between atoms: N_5  and  C_6 
REMARK    3  A    between atoms: C_6  and  C_7 
REMARK    4  A    between atoms: C_7  and  C_8 
REMARK    5  A    between atoms: C_16  and  C_17 
ROOT
HETATM    1  C   UNL     1     -43.663  54.741 -50.849  1.00  0.00     0.175 C 
HETATM    2  N   UNL     1     -43.164  55.372 -52.062  1.00  0.00    -0.186 N 
HETATM    3  C   UNL     1     -43.617  56.530 -52.537  1.00  0.00     0.680 A 
HETATM    4  N   UNL     1     -42.822  56.938 -53.519  1.00  0.00    -0.184 N 
HETATM    5  C   UNL     1     -41.834  55.987 -53.701  1.00  0.00     0.140 A 
HETATM    6  C   UNL     1     -42.055  54.947 -52.822  1.00  0.00     0.077 A 
ENDROOT
BRANCH   4   7
HETATM    7  C   UNL     1     -42.984  58.138 -54.364  1.00  0.00     0.231 C 
BRANCH   7   8
HETATM    8  C   UNL     1     -41.886  59.169 -54.134  1.00  0.00     0.178 C 
HETATM    9  O   UNL     1     -41.436  59.844 -55.063  1.00  0.00    -0.290 OA
BRANCH   8  10
HETATM   10  C   UNL     1     -41.366  59.374 -52.758  1.00  0.00     0.011 A 
HETATM   11  C   UNL     1     -40.088  58.946 -52.378  1.00  0.00     0.015 A 
HETATM   12  C   UNL     1     -39.652  59.150 -51.067  1.00  0.00     0.001 A 
HETATM   13  C   UNL     1     -40.483  59.781 -50.141  1.00  0.00     0.000 A 
HETATM   14  C   UNL     1     -41.748  60.223 -50.523  1.00  0.00     0.001 A 
HETATM   15  C   UNL     1     -42.189  60.027 -51.832  1.00  0.00     0.015 A 
ENDBRANCH   8  10
ENDBRANCH   7   8
ENDBRANCH   4   7
BRANCH   3  16
HETATM   16  N   UNL     1     -44.687  57.174 -52.083  1.00  0.00    -0.234 N 
HETATM   17  H   UNL     1     -45.290  57.718 -52.676  1.00  0.00     0.174 HD
HETATM   18  H   UNL     1     -45.031  56.959 -51.145  1.00  0.00     0.174 HD
ENDBRANCH   3  16
BRANCH   6  19
HETATM   19  C   UNL     1     -41.235  53.683 -52.753  1.00  0.00    -0.004 A 
HETATM   20  C   UNL     1     -41.197  52.826 -53.865  1.00  0.00     0.053 A 
HETATM   21  C   UNL     1     -40.440  51.675 -53.773  1.00  0.00     0.106 A 
HETATM   22  C   UNL     1     -39.740  51.353 -52.638  1.00  0.00     0.105 A 
HETATM   23  O   UNL     1     -40.293  50.747 -54.756  1.00  0.00    -0.323 OA
HETATM   24  O   UNL     1     -39.063  50.182 -52.760  1.00  0.00    -0.323 OA
HETATM   25  C   UNL     1     -39.766  52.162 -51.525  1.00  0.00     0.040 A 
HETATM   26  C   UNL     1     -39.416  49.799 -54.107  1.00  0.00     0.352 A 
HETATM   27  C   UNL     1     -40.528  53.336 -51.584  1.00  0.00     0.017 A 
ENDBRANCH   6  19
TORSDOF 5
ENDMDL
MODEL 3
REMARK VINA RESULT:      -7.9      1.797      2.682
REMARK  5 active torsions:
REMARK  status: ('A' for Active; 'I' for Inactive)
REMARK    1  A    between atoms: C_3  and  N_4 
REMARK    2  A    between atoms: N_5  and  C_6 
REMARK    3  A    between atoms: C_6  and  C_7 
REMARK    4  A    between atoms: C_7  and  C_8 
REMARK    5  A    between atoms: C_16  and  C_17 
ROOT
HETATM    1  C   UNL     1     -42.467  58.558 -51.624  1.00  0.00     0.175 C 
HETATM    2  N   UNL     1     -42.393  57.126 -51.873  1.00  0.00    -0.186 N 
HETATM    3  C   UNL     1     -41.954  56.239 -50.983  1.00  0.00     0.680 A 
HETATM    4  N   UNL     1     -42.212  55.014 -51.426  1.00  0.00    -0.184 N 
HETATM    5  C   UNL     1     -42.818  55.119 -52.666  1.00  0.00     0.140 A 
HETATM    6  C   UNL     1     -42.899  56.454 -53.005  1.00  0.00     0.077 A 
ENDROOT
BRANCH   4   7
HETATM    7  C   UNL     1     -41.846  53.734 -50.787  1.00  0.00     0.231 C 
BRANCH   7   8
HETATM    8  C   UNL     1     -40.408  53.324 -51.081  1.00  0.00     0.178 C 
HETATM    9  O   UNL     1     -39.459  53.863 -50.506  1.00  0.00    -0.290 OA
BRANCH   8  10
HETATM   10  C   UNL     1     -40.153  52.240 -52.063  1.00  0.00     0.011 A 
HETATM   11  C   UNL     1     -40.371  52.417 -53.434  1.00  0.00     0.015 A 
HETATM   12  C   UNL     1     -40.129  51.361 -54.316  1.00  0.00     0.001 A 
HETATM   13  C   UNL     1     -39.668  50.136 -53.833  1.00  0.00     0.000 A 
HETATM   14  C   UNL     1     -39.433  49.964 -52.470  1.00  0.00     0.001 A 
HETATM   15  C   UNL     1     -39.669  51.016 -51.584  1.00  0.00     0.015 A 
ENDBRANCH   8  10
ENDBRANCH   7   8
ENDBRANCH   4   7
BRANCH   3  16
HETATM   16  N   UNL     1     -41.365  56.542 -49.831  1.00  0.00    -0.234 N 
HETATM   17  H   UNL     1     -40.911  55.857 -49.252  1.00  0.00     0.174 HD
HETATM   18  H   UNL     1     -41.189  57.524 -49.612  1.00  0.00     0.174 HD
ENDBRANCH   3  16
BRANCH   6  19
HETATM   19  C   UNL     1     -43.435  56.983 -54.312  1.00  0.00    -0.004 A 
HETATM   20  C   UNL     1     -42.612  56.966 -55.450  1.00  0.00     0.053 A 
HETATM   21  C   UNL     1     -43.128  57.458 -56.632  1.00  0.00     0.106 A 
HETATM   22  C   UNL     1     -44.402  57.961 -56.717  1.00  0.00     0.105 A 
HETATM   23  O   UNL     1     -42.469  57.508 -57.821  1.00  0.00    -0.323 OA
HETATM   24  O   UNL     1     -44.708  58.390 -57.968  1.00  0.00    -0.323 OA
HETATM   25  C   UNL     1     -45.230  58.007 -55.620  1.00  0.00     0.040 A 
HETATM   26  C   UNL     1     -43.478  58.102 -58.668  1.00  0.00     0.352 A 
HETATM   27  C   UNL     1     -44.735  57.518 -54.402  1.00  0.00     0.017 A 
ENDBRANCH   6  19
TORSDOF 5
ENDMDL
MODEL 4
REMARK VINA RESULT:      -7.9      3.103      5.569
REMARK  5 active torsions:
REMARK  status: ('A' for Active; 'I' for Inactive)
REMARK    1  A    between atoms: C_3  and  N_4 
REMARK    2  A    between atoms: N_5  and  C_6 
REMARK    3  A    between atoms: C_6  and  C_7 
REMARK    4  A    between atoms: C_7  and  C_8 
REMARK    5  A    between atoms: C_16  and  C_17 
ROOT
HETATM    1  C   UNL     1     -43.734  58.164 -55.933  1.00  0.00     0.175 C 
HETATM    2  N   UNL     1     -43.410  57.004 -55.115  1.00  0.00    -0.186 N 
HETATM    3  C   UNL     1     -43.114  55.804 -55.611  1.00  0.00     0.680 A 
HETATM    4  N   UNL     1     -42.659  55.030 -54.634  1.00  0.00    -0.184 N 
HETATM    5  C   UNL     1     -42.691  55.753 -53.455  1.00  0.00     0.140 A 
HETATM    6  C   UNL     1     -43.217  57.001 -53.718  1.00  0.00     0.077 A 
ENDROOT
BRANCH   4   7
HETATM    7  C   UNL     1     -42.271  53.607 -54.724  1.00  0.00     0.231 C 
BRANCH   7   8
HETATM    8  C   UNL     1     -40.778  53.393 -54.506  1.00  0.00     0.178 C 
HETATM    9  O   UNL     1     -39.947  54.207 -54.919  1.00  0.00    -0.290 OA
BRANCH   8  10
HETATM   10  C   UNL     1     -40.323  52.191 -53.764  1.00  0.00     0.011 A 
HETATM   11  C   UNL     1     -40.201  50.940 -54.383  1.00  0.00     0.015 A 
HETATM   12  C   UNL     1     -39.783  49.836 -53.637  1.00  0.00     0.001 A 
HETATM   13  C   UNL     1     -39.481  49.979 -52.282  1.00  0.00     0.000 A 
HETATM   14  C   UNL     1     -39.585  51.226 -51.669  1.00  0.00     0.001 A 
HETATM   15  C   UNL     1     -39.999  52.334 -52.409  1.00  0.00     0.015 A 
ENDBRANCH   8  10
ENDBRANCH   7   8
ENDBRANCH   4   7
BRANCH   3  16
HETATM   16  N   UNL     1     -43.243  55.454 -56.887  1.00  0.00    -0.234 N 
HETATM   17  H   UNL     1     -44.018  54.913 -57.229  1.00  0.00     0.174 HD
HETATM   18  H   UNL     1     -42.651  55.908 -57.585  1.00  0.00     0.174 HD
ENDBRANCH   3  16
BRANCH   6  19
HETATM   19  C   UNL     1     -43.480  58.065 -52.682  1.00  0.00    -0.004 A 
HETATM   20  C   UNL     1     -44.680  58.033 -51.952  1.00  0.00     0.053 A 
HETATM   21  C   UNL     1     -44.895  59.020 -51.012  1.00  0.00     0.106 A 
HETATM   22  C   UNL     1     -43.982  60.018 -50.782  1.00  0.00     0.105 A 
HETATM   23  O   UNL     1     -45.996  59.130 -50.221  1.00  0.00    -0.323 OA
HETATM   24  O   UNL     1     -44.389  60.882 -49.817  1.00  0.00    -0.323 OA
HETATM   25  C   UNL     1     -42.803  60.089 -51.488  1.00  0.00     0.040 A 
HETATM   26  C   UNL     1     -45.669  60.316 -49.462  1.00  0.00     0.352 A 
HETATM   27  C   UNL     1     -42.555  59.104 -52.453  1.00  0.00     0.017 A 
ENDBRANCH   6  19
TORSDOF 5
ENDMDL
MODEL 5
REMARK VINA RESULT:      -7.8      2.084      2.726
REMARK  5 active torsions:
REMARK  status: ('A' for Active; 'I' for Inactive)
REMARK    1  A    between atoms: C_3  and  N_4 
REMARK    2  A    between atoms: N_5  and  C_6 
REMARK    3  A    between atoms: C_6  and  C_7 
REMARK    4  A    between atoms: C_7  and  C_8 
REMARK    5  A    between atoms: C_16  and  C_17 
ROOT
HETATM    1  C   UNL     1     -42.080  59.746 -55.656  1.00  0.00     0.175 C 
HETATM    2  N   UNL     1     -42.073  58.398 -55.106  1.00  0.00    -0.186 N 
HETATM    3  C   UNL     1     -41.472  58.063 -53.967  1.00  0.00     0.680 A 
HETATM    4  N   UNL     1     -41.828  56.828 -53.634  1.00  0.00    -0.184 N 
HETATM    5  C   UNL     1     -42.670  56.339 -54.617  1.00  0.00     0.140 A 
HETATM    6  C   UNL     1     -42.804  57.298 -55.601  1.00  0.00     0.077 A 
ENDROOT
BRANCH   4   7
HETATM    7  C   UNL     1     -41.354  56.038 -52.480  1.00  0.00     0.231 C 
BRANCH   7   8
HETATM    8  C   UNL     1     -41.973  54.647 -52.428  1.00  0.00     0.178 C 
HETATM    9  O   UNL     1     -43.166  54.487 -52.157  1.00  0.00    -0.290 OA
BRANCH   8  10
HETATM   10  C   UNL     1     -41.124  53.468 -52.730  1.00  0.00     0.011 A 
HETATM   11  C   UNL     1     -40.316  52.868 -51.757  1.00  0.00     0.015 A 
HETATM   12  C   UNL     1     -39.523  51.768 -52.096  1.00  0.00     0.001 A 
HETATM   13  C   UNL     1     -39.541  51.267 -53.398  1.00  0.00     0.000 A 
HETATM   14  C   UNL     1     -40.357  51.853 -54.364  1.00  0.00     0.001 A 
HETATM   15  C   UNL     1     -41.154  52.949 -54.031  1.00  0.00     0.015 A 
ENDBRANCH   8  10
ENDBRANCH   7   8
ENDBRANCH   4   7
BRANCH   3  16
HETATM   16  N   UNL     1     -40.660  58.853 -53.273  1.00  0.00    -0.234 N 
HETATM   17  H   UNL     1     -39.661  58.740 -53.267  1.00  0.00     0.174 HD
HETATM   18  H   UNL     1     -41.030  59.725 -52.889  1.00  0.00     0.174 HD
ENDBRANCH   3  16
BRANCH   6  19
HETATM   19  C   UNL     1     -43.587  57.124 -56.877  1.00  0.00    -0.004 A 
HETATM   20  C   UNL     1     -43.199  56.131 -57.793  1.00  0.00     0.053 A 
HETATM   21  C   UNL     1     -43.933  55.995 -58.954  1.00  0.00     0.106 A 
HETATM   22  C   UNL     1     -45.010  56.798 -59.233  1.00  0.00     0.105 A 
HETATM   23  O   UNL     1     -43.695  55.085 -59.936  1.00  0.00    -0.323 OA
HETATM   24  O   UNL     1     -45.588  56.496 -60.423  1.00  0.00    -0.323 OA
HETATM   25  C   UNL     1     -45.409  57.790 -58.366  1.00  0.00     0.040 A 
HETATM   26  C   UNL     1     -44.751  55.408 -60.869  1.00  0.00     0.352 A 
HETATM   27  C   UNL     1     -44.683  57.957 -57.179  1.00  0.00     0.017 A 
ENDBRANCH   6  19
TORSDOF 5
ENDMDL
MODEL 6
REMARK VINA RESULT:      -7.8      2.045      7.248
REMARK  5 active torsions:
REMARK  status: ('A' for Active; 'I' for Inactive)
REMARK    1  A    between atoms: C_3  and  N_4 
REMARK    2  A    between atoms: N_5  and  C_6 
REMARK    3  A    between atoms: C_6  and  C_7 
REMARK    4  A    between atoms: C_7  and  C_8 
REMARK    5  A    between atoms: C_16  and  C_17 
ROOT
HETATM    1  C   UNL     1     -43.333  55.487 -51.292  1.00  0.00     0.175 C 
HETATM    2  N   UNL     1     -42.736  55.901 -52.554  1.00  0.00    -0.186 N 
HETATM    3  C   UNL     1     -43.042  57.032 -53.185  1.00  0.00     0.680 A 
HETATM    4  N   UNL     1     -42.182  57.222 -54.179  1.00  0.00    -0.184 N 
HETATM    5  C   UNL     1     -41.305  56.153 -54.205  1.00  0.00     0.140 A 
HETATM    6  C   UNL     1     -41.665  55.263 -53.214  1.00  0.00     0.077 A 
ENDROOT
BRANCH   4   7
HETATM    7  C   UNL     1     -42.185  58.317 -55.170  1.00  0.00     0.231 C 
BRANCH   7   8
HETATM    8  C   UNL     1     -43.264  58.142 -56.232  1.00  0.00     0.178 C 
HETATM    9  O   UNL     1     -44.443  58.423 -55.999  1.00  0.00    -0.290 OA
BRANCH   8  10
HETATM   10  C   UNL     1     -42.879  57.643 -57.576  1.00  0.00     0.011 A 
HETATM   11  C   UNL     1     -42.134  58.422 -58.470  1.00  0.00     0.015 A 
HETATM   12  C   UNL     1     -41.810  57.911 -59.729  1.00  0.00     0.001 A 
HETATM   13  C   UNL     1     -42.223  56.629 -60.093  1.00  0.00     0.000 A 
HETATM   14  C   UNL     1     -42.950  55.847 -59.199  1.00  0.00     0.001 A 
HETATM   15  C   UNL     1     -43.274  56.349 -57.937  1.00  0.00     0.015 A 
ENDBRANCH   8  10
ENDBRANCH   7   8
ENDBRANCH   4   7
BRANCH   3  16
HETATM   16  N   UNL     1     -44.042  57.843 -52.855  1.00  0.00    -0.234 N 
HETATM   17  H   UNL     1     -44.315  58.014 -51.902  1.00  0.00     0.174 HD
HETATM   18  H   UNL     1     -44.424  58.469 -53.566  1.00  0.00     0.174 HD
ENDBRANCH   3  16
BRANCH   6  19
HETATM   19  C   UNL     1     -40.997  53.935 -52.958  1.00  0.00    -0.004 A 
HETATM   20  C   UNL     1     -40.965  52.973 -53.982  1.00  0.00     0.053 A 
HETATM   21  C   UNL     1     -40.348  51.766 -53.721  1.00  0.00     0.106 A 
HETATM   22  C   UNL     1     -39.782  51.487 -52.503  1.00  0.00     0.105 A 
HETATM   23  O   UNL     1     -40.226  50.736 -54.600  1.00  0.00    -0.323 OA
HETATM   24  O   UNL     1     -39.230  50.247 -52.459  1.00  0.00    -0.323 OA
HETATM   25  C   UNL     1     -39.808  52.399 -51.473  1.00  0.00     0.040 A 
HETATM   26  C   UNL     1     -39.513  49.772 -53.792  1.00  0.00     0.352 A 
HETATM   27  C   UNL     1     -40.430  53.634 -51.704  1.00  0.00     0.017 A 
ENDBRANCH   6  19
TORSDOF 5
ENDMDL
MODEL 7
REMARK VINA RESULT:      -7.4      2.687      3.586
REMARK  5 active torsions:
REMARK  status: ('A' for Active; 'I' for Inactive)
REMARK    1  A    between atoms: C_3  and  N_4 
REMARK    2  A    between atoms: N_5  and  C_6 
REMARK    3  A    between atoms: C_6  and  C_7 
REMARK    4  A    between atoms: C_7  and  C_8 
REMARK    5  A    between atoms: C_16  and  C_17 
ROOT
HETATM    1  C   UNL     1     -43.178  60.060 -57.650  1.00  0.00     0.175 C 
HETATM    2  N   UNL     1     -43.180  58.927 -56.735  1.00  0.00    -0.186 N 
HETATM    3  C   UNL     1     -42.711  58.975 -55.491  1.00  0.00     0.680 A 
HETATM    4  N   UNL     1     -43.050  57.861 -54.855  1.00  0.00    -0.184 N 
HETATM    5  C   UNL     1     -43.742  57.050 -55.737  1.00  0.00     0.140 A 
HETATM    6  C   UNL     1     -43.795  57.679 -56.964  1.00  0.00     0.077 A 
ENDROOT
BRANCH   4   7
HETATM    7  C   UNL     1     -42.688  57.469 -53.477  1.00  0.00     0.231 C 
BRANCH   7   8
HETATM    8  C   UNL     1     -41.241  57.004 -53.362  1.00  0.00     0.178 C 
HETATM    9  O   UNL     1     -40.334  57.798 -53.097  1.00  0.00    -0.290 OA
BRANCH   8  10
HETATM   10  C   UNL     1     -40.928  55.566 -53.553  1.00  0.00     0.011 A 
HETATM   11  C   UNL     1     -41.067  54.634 -52.518  1.00  0.00     0.015 A 
HETATM   12  C   UNL     1     -40.744  53.294 -52.745  1.00  0.00     0.001 A 
HETATM   13  C   UNL     1     -40.290  52.885 -53.999  1.00  0.00     0.000 A 
HETATM   14  C   UNL     1     -40.168  53.808 -55.035  1.00  0.00     0.001 A 
HETATM   15  C   UNL     1     -40.492  55.148 -54.817  1.00  0.00     0.015 A 
ENDBRANCH   8  10
ENDBRANCH   7   8
ENDBRANCH   4   7
BRANCH   3  16
HETATM   16  N   UNL     1     -42.026  59.990 -54.973  1.00  0.00    -0.234 N 
HETATM   17  H   UNL     1     -41.477  60.620 -55.532  1.00  0.00     0.174 HD
HETATM   18  H   UNL     1     -42.213  60.269 -54.008  1.00  0.00     0.174 HD
ENDBRANCH   3  16
BRANCH   6  19
HETATM   19  C   UNL     1     -44.406  57.091 -58.211  1.00  0.00    -0.004 A 
HETATM   20  C   UNL     1     -45.653  57.562 -58.654  1.00  0.00     0.053 A 
HETATM   21  C   UNL     1     -46.190  57.006 -59.798  1.00  0.00     0.106 A 
HETATM   22  C   UNL     1     -45.547  56.015 -60.496  1.00  0.00     0.105 A 
HETATM   23  O   UNL     1     -47.378  57.352 -60.361  1.00  0.00    -0.323 OA
HETATM   24  O   UNL     1     -46.247  55.611 -61.587  1.00  0.00    -0.323 OA
HETATM   25  C   UNL     1     -44.332  55.518 -60.082  1.00  0.00     0.040 A 
HETATM   26  C   UNL     1     -47.410  56.461 -61.499  1.00  0.00     0.352 A 
HETATM   27  C   UNL     1     -43.761  56.060 -58.923  1.00  0.00     0.017 A 
ENDBRANCH   6  19
TORSDOF 5
ENDMDL
MODEL 8
REMARK VINA RESULT:      -7.4      3.791      5.720
REMARK  5 active torsions:
REMARK  status: ('A' for Active; 'I' for Inactive)
REMARK    1  A    between atoms: C_3  and  N_4 
REMARK    2  A    between atoms: N_5  and  C_6 
REMARK    3  A    between atoms: C_6  and  C_7 
REMARK    4  A    between atoms: C_7  and  C_8 
REMARK    5  A    between atoms: C_16  and  C_17 
ROOT
HETATM    1  C   UNL     1     -45.035  57.029 -54.674  1.00  0.00     0.175 C 
HETATM    2  N   UNL     1     -43.808  56.661 -53.981  1.00  0.00    -0.186 N 
HETATM    3  C   UNL     1     -42.967  55.723 -54.408  1.00  0.00     0.680 A 
HETATM    4  N   UNL     1     -41.853  55.777 -53.687  1.00  0.00    -0.184 N 
HETATM    5  C   UNL     1     -41.998  56.773 -52.738  1.00  0.00     0.140 A 
HETATM    6  C   UNL     1     -43.258  57.322 -52.863  1.00  0.00     0.077 A 
ENDROOT
BRANCH   4   7
HETATM    7  C   UNL     1     -40.680  54.884 -53.780  1.00  0.00     0.231 C 
BRANCH   7   8
HETATM    8  C   UNL     1     -40.573  53.933 -52.594  1.00  0.00     0.178 C 
HETATM    9  O   UNL     1     -40.749  54.329 -51.438  1.00  0.00    -0.290 OA
BRANCH   8  10
HETATM   10  C   UNL     1     -40.271  52.501 -52.842  1.00  0.00     0.011 A 
HETATM   11  C   UNL     1     -39.760  51.667 -51.841  1.00  0.00     0.015 A 
HETATM   12  C   UNL     1     -39.479  50.330 -52.130  1.00  0.00     0.001 A 
HETATM   13  C   UNL     1     -39.711  49.825 -53.410  1.00  0.00     0.000 A 
HETATM   14  C   UNL     1     -40.236  50.650 -54.403  1.00  0.00     0.001 A 
HETATM   15  C   UNL     1     -40.523  51.986 -54.120  1.00  0.00     0.015 A 
ENDBRANCH   8  10
ENDBRANCH   7   8
ENDBRANCH   4   7
BRANCH   3  16
HETATM   16  N   UNL     1     -43.206  54.881 -55.408  1.00  0.00    -0.234 N 
HETATM   17  H   UNL     1     -43.152  55.152 -56.375  1.00  0.00     0.174 HD
HETATM   18  H   UNL     1     -43.254  53.880 -55.210  1.00  0.00     0.174 HD
ENDBRANCH   3  16
BRANCH   6  19
HETATM   19  C   UNL     1     -43.828  58.393 -51.968  1.00  0.00    -0.004 A 
HETATM   20  C   UNL     1     -43.098  59.575 -51.759  1.00  0.00     0.053 A 
HETATM   21  C   UNL     1     -43.643  60.538 -50.934  1.00  0.00     0.106 A 
HETATM   22  C   UNL     1     -44.857  60.367 -50.318  1.00  0.00     0.105 A 
HETATM   23  O   UNL     1     -43.072  61.735 -50.634  1.00  0.00    -0.323 OA
HETATM   24  O   UNL     1     -45.206  61.433 -49.553  1.00  0.00    -0.323 OA
HETATM   25  C   UNL     1     -45.592  59.216 -50.488  1.00  0.00     0.040 A 
HETATM   26  C   UNL     1     -44.070  62.301 -49.755  1.00  0.00     0.352 A 
HETATM   27  C   UNL     1     -45.065  58.217 -51.318  1.00  0.00     0.017 A 
ENDBRANCH   6  19
TORSDOF 5
ENDMDL
MODEL 9
REMARK VINA RESULT:      -7.4     15.193     18.861
REMARK  5 active torsions:
REMARK  status: ('A' for Active; 'I' for Inactive)
REMARK    1  A    between atoms: C_3  and  N_4 
REMARK    2  A    between atoms: N_5  and  C_6 
REMARK    3  A    between atoms: C_6  and  C_7 
REMARK    4  A    between atoms: C_7  and  C_8 
REMARK    5  A    between atoms: C_16  and  C_17 
ROOT
HETATM    1  C   UNL     1     -32.026  39.229 -53.460  1.00  0.00     0.175 C 
HETATM    2  N   UNL     1     -33.147  40.102 -53.143  1.00  0.00    -0.186 N 
HETATM    3  C   UNL     1     -33.826  40.800 -54.051  1.00  0.00     0.680 A 
HETATM    4  N   UNL     1     -34.907  41.318 -53.481  1.00  0.00    -0.184 N 
HETATM    5  C   UNL     1     -34.907  40.962 -52.144  1.00  0.00     0.140 A 
HETATM    6  C   UNL     1     -33.767  40.231 -51.882  1.00  0.00     0.077 A 
ENDROOT
BRANCH   4   7
HETATM    7  C   UNL     1     -35.909  42.208 -54.103  1.00  0.00     0.231 C 
BRANCH   7   8
HETATM    8  C   UNL     1     -37.103  41.444 -54.661  1.00  0.00     0.178 C 
HETATM    9  O   UNL     1     -37.934  40.920 -53.915  1.00  0.00    -0.290 OA
BRANCH   8  10
HETATM   10  C   UNL     1     -37.276  41.351 -56.133  1.00  0.00     0.011 A 
HETATM   11  C   UNL     1     -38.207  40.484 -56.716  1.00  0.00     0.015 A 
HETATM   12  C   UNL     1     -38.320  40.423 -58.107  1.00  0.00     0.001 A 
HETATM   13  C   UNL     1     -37.512  41.227 -58.912  1.00  0.00     0.000 A 
HETATM   14  C   UNL     1     -36.598  42.104 -58.332  1.00  0.00     0.001 A 
HETATM   15  C   UNL     1     -36.482  42.173 -56.944  1.00  0.00     0.015 A 
ENDBRANCH   8  10
ENDBRANCH   7   8
ENDBRANCH   4   7
BRANCH   3  16
HETATM   16  N   UNL     1     -33.476  40.935 -55.325  1.00  0.00    -0.234 N 
HETATM   17  H   UNL     1     -32.539  40.780 -55.655  1.00  0.00     0.174 HD
HETATM   18  H   UNL     1     -34.210  41.005 -56.033  1.00  0.00     0.174 HD
ENDBRANCH   3  16
BRANCH   6  19
HETATM   19  C   UNL     1     -33.363  39.714 -50.524  1.00  0.00    -0.004 A 
HETATM   20  C   UNL     1     -32.095  40.040 -50.013  1.00  0.00     0.053 A 
HETATM   21  C   UNL     1     -31.751  39.553 -48.769  1.00  0.00     0.106 A 
HETATM   22  C   UNL     1     -32.601  38.765 -48.035  1.00  0.00     0.105 A 
HETATM   23  O   UNL     1     -30.571  39.779 -48.132  1.00  0.00    -0.323 OA
HETATM   24  O   UNL     1     -32.068  38.396 -46.842  1.00  0.00    -0.323 OA
HETATM   25  C   UNL     1     -33.844  38.414 -48.510  1.00  0.00     0.040 A 
HETATM   26  C   UNL     1     -30.777  39.041 -46.906  1.00  0.00     0.352 A 
HETATM   27  C   UNL     1     -34.223  38.890 -49.773  1.00  0.00     0.017 A 
ENDBRANCH   6  19
TORSDOF 5
ENDMDL
MODEL 10
REMARK VINA RESULT:      -7.3      1.765      2.180
REMARK  5 active torsions:
REMARK  status: ('A' for Active; 'I' for Inactive)
REMARK    1  A    between atoms: C_3  and  N_4 
REMARK    2  A    between atoms: N_5  and  C_6 
REMARK    3  A    between atoms: C_6  and  C_7 
REMARK    4  A    between atoms: C_7  and  C_8 
REMARK    5  A    between atoms: C_16  and  C_17 
ROOT
HETATM    1  C   UNL     1     -42.969  59.431 -53.443  1.00  0.00     0.175 C 
HETATM    2  N   UNL     1     -42.935  57.975 -53.442  1.00  0.00    -0.186 N 
HETATM    3  C   UNL     1     -42.762  57.237 -52.348  1.00  0.00     0.680 A 
HETATM    4  N   UNL     1     -42.995  55.963 -52.641  1.00  0.00    -0.184 N 
HETATM    5  C   UNL     1     -43.303  55.877 -53.987  1.00  0.00     0.140 A 
HETATM    6  C   UNL     1     -43.220  57.138 -54.541  1.00  0.00     0.077 A 
ENDROOT
BRANCH   4   7
HETATM    7  C   UNL     1     -42.863  54.798 -51.744  1.00  0.00     0.231 C 
BRANCH   7   8
HETATM    8  C   UNL     1     -41.410  54.461 -51.432  1.00  0.00     0.178 C 
HETATM    9  O   UNL     1     -40.770  55.103 -50.595  1.00  0.00    -0.290 OA
BRANCH   8  10
HETATM   10  C   UNL     1     -40.765  53.325 -52.137  1.00  0.00     0.011 A 
HETATM   11  C   UNL     1     -40.025  52.353 -51.454  1.00  0.00     0.015 A 
HETATM   12  C   UNL     1     -39.425  51.311 -52.166  1.00  0.00     0.001 A 
HETATM   13  C   UNL     1     -39.568  51.237 -53.552  1.00  0.00     0.000 A 
HETATM   14  C   UNL     1     -40.319  52.194 -54.232  1.00  0.00     0.001 A 
HETATM   15  C   UNL     1     -40.923  53.235 -53.526  1.00  0.00     0.015 A 
ENDBRANCH   8  10
ENDBRANCH   7   8
ENDBRANCH   4   7
BRANCH   3  16
HETATM   16  N   UNL     1     -42.425  57.712 -51.153  1.00  0.00    -0.234 N 
HETATM   17  H   UNL     1     -41.657  57.346 -50.617  1.00  0.00     0.174 HD
HETATM   18  H   UNL     1     -42.822  58.602 -50.847  1.00  0.00     0.174 HD
ENDBRANCH   3  16
BRANCH   6  19
HETATM   19  C   UNL     1     -43.418  57.457 -56.001  1.00  0.00    -0.004 A 
HETATM   20  C   UNL     1     -44.690  57.848 -56.454  1.00  0.00     0.053 A 
HETATM   21  C   UNL     1     -44.843  58.132 -57.795  1.00  0.00     0.106 A 
HETATM   22  C   UNL     1     -43.802  58.037 -58.683  1.00  0.00     0.105 A 
HETATM   23  O   UNL     1     -46.000  58.528 -58.391  1.00  0.00    -0.323 OA
HETATM   24  O   UNL     1     -44.168  58.361 -59.950  1.00  0.00    -0.323 OA
HETATM   25  C   UNL     1     -42.547  57.643 -58.278  1.00  0.00     0.040 A 
HETATM   26  C   UNL     1     -45.565  58.672 -59.762  1.00  0.00     0.352 A 
HETATM   27  C   UNL     1     -42.358  57.344 -56.922  1.00  0.00     0.017 A 
ENDBRANCH   6  19
TORSDOF 5
ENDMDL
