MODEL 1
REMARK VINA RESULT:      -9.8      0.000      0.000
REMARK  8 active torsions:
REMARK  status: ('A' for Active; 'I' for Inactive)
REMARK    1  A    between atoms: C_3  and  S_4 
REMARK    2  A    between atoms: S_4  and  N_5 
REMARK    3  A    between atoms: N_5  and  C_6 
REMARK    4  A    between atoms: C_6  and  C_7 
REMARK    5  A    between atoms: C_20  and  C_21 
REMARK    6  A    between atoms: C_25  and  N_26 
REMARK    7  A    between atoms: N_26  and  C_27 
REMARK    8  A    between atoms: C_27  and  C_28 
ROOT
HETATM    1  C   UNL     1     -43.501  58.460 -60.708  1.00  0.00     0.050 C 
HETATM    2  C   UNL     1     -43.259  57.833 -59.363  1.00  0.00    -0.039 A 
HETATM    3  C   UNL     1     -42.775  58.527 -58.243  1.00  0.00     0.081 A 
HETATM    4  C   UNL     1     -42.532  57.845 -57.033  1.00  0.00     0.039 A 
HETATM    5  C   UNL     1     -42.835  56.483 -56.877  1.00  0.00    -0.003 A 
HETATM    6  C   UNL     1     -43.351  55.808 -57.993  1.00  0.00     0.014 A 
HETATM    7  C   UNL     1     -43.535  56.463 -59.217  1.00  0.00     0.009 A 
ENDROOT
BRANCH   5   8
HETATM    8  C   UNL     1     -42.718  55.833 -55.555  1.00  0.00     0.098 C 
HETATM    9  N   UNL     1     -41.975  54.708 -55.595  1.00  0.00    -0.172 NA
HETATM   10  N   UNL     1     -41.678  54.089 -54.470  1.00  0.00    -0.266 N 
HETATM   11  H   UNL     1     -41.170  53.211 -54.542  1.00  0.00     0.190 HD
HETATM   12  C   UNL     1     -42.001  54.546 -53.247  1.00  0.00     0.108 C 
HETATM   13  C   UNL     1     -42.884  55.659 -53.169  1.00  0.00     0.016 A 
HETATM   14  C   UNL     1     -43.260  56.321 -54.357  1.00  0.00     0.009 A 
HETATM   15  C   UNL     1     -43.414  56.134 -51.942  1.00  0.00     0.016 A 
HETATM   16  C   UNL     1     -44.160  57.415 -54.276  1.00  0.00     0.015 A 
HETATM   17  C   UNL     1     -44.659  57.863 -53.054  1.00  0.00     0.001 A 
HETATM   18  C   UNL     1     -44.284  57.223 -51.886  1.00  0.00     0.001 A 
BRANCH  12  19
HETATM   19  N   UNL     1     -41.564  53.894 -52.087  1.00  0.00    -0.273 NA
HETATM   20  H   UNL     1     -41.950  54.344 -51.255  1.00  0.00     0.129 HD
BRANCH  19  21
HETATM   21  C   UNL     1     -40.163  53.537 -51.851  1.00  0.00     0.132 C 
BRANCH  21  22
HETATM   22  C   UNL     1     -39.925  52.062 -52.056  1.00  0.00    -0.045 A 
HETATM   23  C   UNL     1     -39.829  51.196 -50.957  1.00  0.00     0.008 A 
HETATM   24  C   UNL     1     -39.619  49.830 -51.150  1.00  0.00     0.001 A 
HETATM   25  C   UNL     1     -39.522  49.312 -52.440  1.00  0.00     0.000 A 
HETATM   26  C   UNL     1     -39.640  50.157 -53.540  1.00  0.00     0.001 A 
HETATM   27  C   UNL     1     -39.845  51.523 -53.351  1.00  0.00     0.008 A 
ENDBRANCH  21  22
ENDBRANCH  19  21
ENDBRANCH  12  19
ENDBRANCH   5   8
BRANCH   3  28
HETATM   28  S   UNL     1     -42.464  60.296 -58.236  1.00  0.00     0.242 S 
HETATM   29  O   UNL     1     -41.499  60.571 -59.278  1.00  0.00    -0.206 OA
HETATM   30  O   UNL     1     -43.721  60.999 -58.160  1.00  0.00    -0.206 OA
BRANCH  28  31
HETATM   31  N   UNL     1     -41.692  60.487 -56.735  1.00  0.00    -0.208 NA
HETATM   32  H   UNL     1     -40.822  61.014 -56.843  1.00  0.00     0.140 HD
BRANCH  31  33
HETATM   33  C   UNL     1     -42.550  61.040 -55.674  1.00  0.00     0.182 C 
BRANCH  33  34
HETATM   34  C   UNL     1     -42.155  60.447 -54.367  1.00  0.00     0.119 A 
HETATM   35  N   UNL     1     -41.303  59.456 -54.174  1.00  0.00    -0.232 NA
HETATM   36  C   UNL     1     -41.217  59.312 -52.808  1.00  0.00     0.085 A 
HETATM   37  C   UNL     1     -42.053  60.214 -52.159  1.00  0.00     0.062 A 
HETATM   38  C   UNL     1     -40.436  58.434 -52.042  1.00  0.00     0.034 A 
HETATM   39  N   UNL     1     -42.651  60.914 -53.174  1.00  0.00    -0.342 N 
HETATM   40  C   UNL     1     -42.166  60.294 -50.770  1.00  0.00     0.032 A 
HETATM   41  H   UNL     1     -43.334  61.653 -53.067  1.00  0.00     0.167 HD
HETATM   42  C   UNL     1     -41.377  59.412 -50.023  1.00  0.00     0.002 A 
HETATM   43  C   UNL     1     -40.524  58.497 -50.646  1.00  0.00     0.002 A 
ENDBRANCH  33  34
ENDBRANCH  31  33
ENDBRANCH  28  31
ENDBRANCH   3  28
TORSDOF 8
ENDMDL
MODEL 2
REMARK VINA RESULT:      -9.5      3.851      7.576
REMARK  8 active torsions:
REMARK  status: ('A' for Active; 'I' for Inactive)
REMARK    1  A    between atoms: C_3  and  S_4 
REMARK    2  A    between atoms: S_4  and  N_5 
REMARK    3  A    between atoms: N_5  and  C_6 
REMARK    4  A    between atoms: C_6  and  C_7 
REMARK    5  A    between atoms: C_20  and  C_21 
REMARK    6  A    between atoms: C_25  and  N_26 
REMARK    7  A    between atoms: N_26  and  C_27 
REMARK    8  A    between atoms: C_27  and  C_28 
ROOT
HETATM    1  C   UNL     1     -39.127  50.918 -51.571  1.00  0.00     0.050 C 
HETATM    2  C   UNL     1     -39.876  51.984 -52.321  1.00  0.00    -0.039 A 
HETATM    3  C   UNL     1     -40.489  53.093 -51.716  1.00  0.00     0.081 A 
HETATM    4  C   UNL     1     -41.213  54.018 -52.495  1.00  0.00     0.039 A 
HETATM    5  C   UNL     1     -41.283  53.914 -53.894  1.00  0.00    -0.003 A 
HETATM    6  C   UNL     1     -40.638  52.820 -54.489  1.00  0.00     0.014 A 
HETATM    7  C   UNL     1     -39.970  51.862 -53.717  1.00  0.00     0.009 A 
ENDROOT
BRANCH   5   8
HETATM    8  C   UNL     1     -41.914  54.982 -54.697  1.00  0.00     0.098 C 
HETATM    9  N   UNL     1     -42.786  54.499 -55.606  1.00  0.00    -0.172 NA
HETATM   10  N   UNL     1     -43.519  55.340 -56.309  1.00  0.00    -0.266 N 
HETATM   11  H   UNL     1     -44.119  54.945 -57.028  1.00  0.00     0.190 HD
HETATM   12  C   UNL     1     -43.523  56.673 -56.131  1.00  0.00     0.108 C 
HETATM   13  C   UNL     1     -42.533  57.227 -55.270  1.00  0.00     0.016 A 
HETATM   14  C   UNL     1     -41.700  56.358 -54.534  1.00  0.00     0.009 A 
HETATM   15  C   UNL     1     -42.341  58.624 -55.122  1.00  0.00     0.016 A 
HETATM   16  C   UNL     1     -40.699  56.916 -53.697  1.00  0.00     0.015 A 
HETATM   17  C   UNL     1     -40.538  58.294 -53.567  1.00  0.00     0.001 A 
HETATM   18  C   UNL     1     -41.362  59.150 -54.278  1.00  0.00     0.001 A 
BRANCH  12  19
HETATM   19  N   UNL     1     -44.403  57.501 -56.838  1.00  0.00    -0.273 NA
HETATM   20  H   UNL     1     -45.358  57.143 -56.780  1.00  0.00     0.129 HD
BRANCH  19  21
HETATM   21  C   UNL     1     -44.134  57.975 -58.197  1.00  0.00     0.132 C 
BRANCH  21  22
HETATM   22  C   UNL     1     -44.960  57.233 -59.217  1.00  0.00    -0.045 A 
HETATM   23  C   UNL     1     -44.435  56.114 -59.882  1.00  0.00     0.008 A 
HETATM   24  C   UNL     1     -45.206  55.423 -60.818  1.00  0.00     0.001 A 
HETATM   25  C   UNL     1     -46.512  55.829 -61.086  1.00  0.00     0.000 A 
HETATM   26  C   UNL     1     -47.053  56.922 -60.415  1.00  0.00     0.001 A 
HETATM   27  C   UNL     1     -46.285  57.618 -59.482  1.00  0.00     0.008 A 
ENDBRANCH  21  22
ENDBRANCH  19  21
ENDBRANCH  12  19
ENDBRANCH   5   8
BRANCH   3  28
HETATM   28  S   UNL     1     -40.381  53.445 -49.959  1.00  0.00     0.242 S 
HETATM   29  O   UNL     1     -40.702  52.224 -49.251  1.00  0.00    -0.206 OA
HETATM   30  O   UNL     1     -39.168  54.179 -49.695  1.00  0.00    -0.206 OA
BRANCH  28  31
HETATM   31  N   UNL     1     -41.675  54.528 -49.761  1.00  0.00    -0.208 NA
HETATM   32  H   UNL     1     -42.317  54.192 -49.040  1.00  0.00     0.140 HD
BRANCH  31  33
HETATM   33  C   UNL     1     -41.270  55.926 -49.540  1.00  0.00     0.182 C 
BRANCH  33  34
HETATM   34  C   UNL     1     -42.148  56.821 -50.343  1.00  0.00     0.119 A 
HETATM   35  N   UNL     1     -43.159  56.456 -51.111  1.00  0.00    -0.232 NA
HETATM   36  C   UNL     1     -43.698  57.630 -51.585  1.00  0.00     0.085 A 
HETATM   37  C   UNL     1     -42.985  58.729 -51.118  1.00  0.00     0.062 A 
HETATM   38  C   UNL     1     -44.808  57.840 -52.417  1.00  0.00     0.034 A 
HETATM   39  N   UNL     1     -41.994  58.186 -50.342  1.00  0.00    -0.342 N 
HETATM   40  C   UNL     1     -43.311  60.048 -51.437  1.00  0.00     0.032 A 
HETATM   41  H   UNL     1     -41.277  58.699 -49.846  1.00  0.00     0.167 HD
HETATM   42  C   UNL     1     -44.423  60.237 -52.266  1.00  0.00     0.002 A 
HETATM   43  C   UNL     1     -45.162  59.153 -52.748  1.00  0.00     0.002 A 
ENDBRANCH  33  34
ENDBRANCH  31  33
ENDBRANCH  28  31
ENDBRANCH   3  28
TORSDOF 8
ENDMDL
MODEL 3
REMARK VINA RESULT:      -9.1      3.521      7.405
REMARK  8 active torsions:
REMARK  status: ('A' for Active; 'I' for Inactive)
REMARK    1  A    between atoms: C_3  and  S_4 
REMARK    2  A    between atoms: S_4  and  N_5 
REMARK    3  A    between atoms: N_5  and  C_6 
REMARK    4  A    between atoms: C_6  and  C_7 
REMARK    5  A    between atoms: C_20  and  C_21 
REMARK    6  A    between atoms: C_25  and  N_26 
REMARK    7  A    between atoms: N_26  and  C_27 
REMARK    8  A    between atoms: C_27  and  C_28 
ROOT
HETATM    1  C   UNL     1     -39.817  51.598 -50.978  1.00  0.00     0.050 C 
HETATM    2  C   UNL     1     -40.462  52.576 -51.920  1.00  0.00    -0.039 A 
HETATM    3  C   UNL     1     -40.956  53.834 -51.538  1.00  0.00     0.081 A 
HETATM    4  C   UNL     1     -41.590  54.666 -52.482  1.00  0.00     0.039 A 
HETATM    5  C   UNL     1     -41.681  54.313 -53.839  1.00  0.00    -0.003 A 
HETATM    6  C   UNL     1     -41.153  53.069 -54.214  1.00  0.00     0.014 A 
HETATM    7  C   UNL     1     -40.579  52.208 -53.271  1.00  0.00     0.009 A 
ENDROOT
BRANCH   5   8
HETATM    8  C   UNL     1     -42.208  55.271 -54.832  1.00  0.00     0.098 C 
HETATM    9  N   UNL     1     -41.664  55.102 -56.054  1.00  0.00    -0.172 NA
HETATM   10  N   UNL     1     -42.128  55.800 -57.072  1.00  0.00    -0.266 N 
HETATM   11  H   UNL     1     -41.654  55.693 -57.964  1.00  0.00     0.190 HD
HETATM   12  C   UNL     1     -43.182  56.632 -57.000  1.00  0.00     0.108 C 
HETATM   13  C   UNL     1     -43.703  56.929 -55.709  1.00  0.00     0.016 A 
HETATM   14  C   UNL     1     -43.200  56.232 -54.589  1.00  0.00     0.009 A 
HETATM   15  C   UNL     1     -44.710  57.904 -55.493  1.00  0.00     0.016 A 
HETATM   16  C   UNL     1     -43.706  56.549 -53.302  1.00  0.00     0.015 A 
HETATM   17  C   UNL     1     -44.701  57.509 -53.122  1.00  0.00     0.001 A 
HETATM   18  C   UNL     1     -45.205  58.185 -54.219  1.00  0.00     0.001 A 
BRANCH  12  19
HETATM   19  N   UNL     1     -43.691  57.265 -58.141  1.00  0.00    -0.273 NA
HETATM   20  H   UNL     1     -44.576  56.838 -58.424  1.00  0.00     0.129 HD
BRANCH  19  21
HETATM   21  C   UNL     1     -42.878  57.549 -59.325  1.00  0.00     0.132 C 
BRANCH  21  22
HETATM   22  C   UNL     1     -42.341  58.957 -59.303  1.00  0.00    -0.045 A 
HETATM   23  C   UNL     1     -41.873  59.524 -58.108  1.00  0.00     0.008 A 
HETATM   24  C   UNL     1     -41.366  60.824 -58.093  1.00  0.00     0.001 A 
HETATM   25  C   UNL     1     -41.304  61.565 -59.272  1.00  0.00     0.000 A 
HETATM   26  C   UNL     1     -41.742  61.006 -60.469  1.00  0.00     0.001 A 
HETATM   27  C   UNL     1     -42.253  59.709 -60.488  1.00  0.00     0.008 A 
ENDBRANCH  21  22
ENDBRANCH  19  21
ENDBRANCH  12  19
ENDBRANCH   5   8
BRANCH   3  28
HETATM   28  S   UNL     1     -40.799  54.492 -49.875  1.00  0.00     0.242 S 
HETATM   29  O   UNL     1     -41.628  53.683 -49.008  1.00  0.00    -0.206 OA
HETATM   30  O   UNL     1     -39.406  54.731 -49.587  1.00  0.00    -0.206 OA
BRANCH  28  31
HETATM   31  N   UNL     1     -41.542  56.010 -50.052  1.00  0.00    -0.208 NA
HETATM   32  H   UNL     1     -42.262  56.142 -49.339  1.00  0.00     0.140 HD
BRANCH  31  33
HETATM   33  C   UNL     1     -40.603  57.143 -50.114  1.00  0.00     0.182 C 
BRANCH  33  34
HETATM   34  C   UNL     1     -41.098  58.133 -51.109  1.00  0.00     0.119 A 
HETATM   35  N   UNL     1     -40.781  58.193 -52.389  1.00  0.00    -0.232 NA
HETATM   36  C   UNL     1     -41.534  59.224 -52.903  1.00  0.00     0.085 A 
HETATM   37  C   UNL     1     -42.304  59.820 -51.910  1.00  0.00     0.062 A 
HETATM   38  C   UNL     1     -41.621  59.708 -54.217  1.00  0.00     0.034 A 
HETATM   39  N   UNL     1     -41.997  59.118 -50.774  1.00  0.00    -0.342 N 
HETATM   40  C   UNL     1     -43.167  60.892 -52.147  1.00  0.00     0.032 A 
HETATM   41  H   UNL     1     -42.371  59.286 -49.849  1.00  0.00     0.167 HD
HETATM   42  C   UNL     1     -43.243  61.358 -53.464  1.00  0.00     0.002 A 
HETATM   43  C   UNL     1     -42.485  60.778 -54.484  1.00  0.00     0.002 A 
ENDBRANCH  33  34
ENDBRANCH  31  33
ENDBRANCH  28  31
ENDBRANCH   3  28
TORSDOF 8
ENDMDL
MODEL 4
REMARK VINA RESULT:      -9.0      2.016      3.093
REMARK  8 active torsions:
REMARK  status: ('A' for Active; 'I' for Inactive)
REMARK    1  A    between atoms: C_3  and  S_4 
REMARK    2  A    between atoms: S_4  and  N_5 
REMARK    3  A    between atoms: N_5  and  C_6 
REMARK    4  A    between atoms: C_6  and  C_7 
REMARK    5  A    between atoms: C_20  and  C_21 
REMARK    6  A    between atoms: C_25  and  N_26 
REMARK    7  A    between atoms: N_26  and  C_27 
REMARK    8  A    between atoms: C_27  and  C_28 
ROOT
HETATM    1  C   UNL     1     -42.102  58.658 -60.236  1.00  0.00     0.050 C 
HETATM    2  C   UNL     1     -42.301  58.439 -58.763  1.00  0.00    -0.039 A 
HETATM    3  C   UNL     1     -42.318  59.466 -57.806  1.00  0.00     0.081 A 
HETATM    4  C   UNL     1     -42.463  59.161 -56.437  1.00  0.00     0.039 A 
HETATM    5  C   UNL     1     -42.673  57.847 -55.989  1.00  0.00    -0.003 A 
HETATM    6  C   UNL     1     -42.689  56.834 -56.958  1.00  0.00     0.014 A 
HETATM    7  C   UNL     1     -42.482  57.120 -58.313  1.00  0.00     0.009 A 
ENDROOT
BRANCH   5   8
HETATM    8  C   UNL     1     -42.979  57.576 -54.569  1.00  0.00     0.098 C 
HETATM    9  N   UNL     1     -44.154  56.936 -54.405  1.00  0.00    -0.172 NA
HETATM   10  N   UNL     1     -44.500  56.516 -53.204  1.00  0.00    -0.266 N 
HETATM   11  H   UNL     1     -45.419  56.093 -53.106  1.00  0.00     0.190 HD
HETATM   12  C   UNL     1     -43.716  56.609 -52.115  1.00  0.00     0.108 C 
HETATM   13  C   UNL     1     -42.526  57.382 -52.221  1.00  0.00     0.016 A 
HETATM   14  C   UNL     1     -42.146  57.887 -53.483  1.00  0.00     0.009 A 
HETATM   15  C   UNL     1     -41.701  57.678 -51.107  1.00  0.00     0.016 A 
HETATM   16  C   UNL     1     -40.972  58.678 -53.579  1.00  0.00     0.015 A 
HETATM   17  C   UNL     1     -40.177  58.946 -52.466  1.00  0.00     0.001 A 
HETATM   18  C   UNL     1     -40.541  58.443 -51.229  1.00  0.00     0.001 A 
BRANCH  12  19
HETATM   19  N   UNL     1     -44.100  56.048 -50.890  1.00  0.00    -0.273 NA
HETATM   20  H   UNL     1     -43.788  56.633 -50.113  1.00  0.00     0.129 HD
BRANCH  19  21
HETATM   21  C   UNL     1     -43.895  54.636 -50.560  1.00  0.00     0.132 C 
BRANCH  21  22
HETATM   22  C   UNL     1     -42.436  54.260 -50.615  1.00  0.00    -0.045 A 
HETATM   23  C   UNL     1     -41.870  53.770 -51.801  1.00  0.00     0.008 A 
HETATM   24  C   UNL     1     -40.516  53.433 -51.851  1.00  0.00     0.001 A 
HETATM   25  C   UNL     1     -39.711  53.599 -50.726  1.00  0.00     0.000 A 
HETATM   26  C   UNL     1     -40.255  54.108 -49.550  1.00  0.00     0.001 A 
HETATM   27  C   UNL     1     -41.608  54.442 -49.494  1.00  0.00     0.008 A 
ENDBRANCH  21  22
ENDBRANCH  19  21
ENDBRANCH  12  19
ENDBRANCH   5   8
BRANCH   3  28
HETATM   28  S   UNL     1     -42.197  61.208 -58.225  1.00  0.00     0.242 S 
HETATM   29  O   UNL     1     -40.918  61.411 -58.870  1.00  0.00    -0.206 OA
HETATM   30  O   UNL     1     -43.431  61.637 -58.834  1.00  0.00    -0.206 OA
BRANCH  28  31
HETATM   31  N   UNL     1     -42.129  61.913 -56.680  1.00  0.00    -0.208 NA
HETATM   32  H   UNL     1     -41.418  62.647 -56.652  1.00  0.00     0.140 HD
BRANCH  31  33
HETATM   33  C   UNL     1     -43.428  62.374 -56.164  1.00  0.00     0.182 C 
BRANCH  33  34
HETATM   34  C   UNL     1     -43.654  61.787 -54.815  1.00  0.00     0.119 A 
HETATM   35  N   UNL     1     -42.902  61.958 -53.743  1.00  0.00    -0.232 NA
HETATM   36  C   UNL     1     -43.547  61.279 -52.734  1.00  0.00     0.085 A 
HETATM   37  C   UNL     1     -44.698  60.660 -53.208  1.00  0.00     0.062 A 
HETATM   38  C   UNL     1     -43.212  61.151 -51.378  1.00  0.00     0.034 A 
HETATM   39  N   UNL     1     -44.736  60.986 -54.539  1.00  0.00    -0.342 N 
HETATM   40  C   UNL     1     -45.551  59.904 -52.403  1.00  0.00     0.032 A 
HETATM   41  H   UNL     1     -45.440  60.696 -55.205  1.00  0.00     0.167 HD
HETATM   42  C   UNL     1     -45.202  59.790 -51.052  1.00  0.00     0.002 A 
HETATM   43  C   UNL     1     -44.054  60.403 -50.545  1.00  0.00     0.002 A 
ENDBRANCH  33  34
ENDBRANCH  31  33
ENDBRANCH  28  31
ENDBRANCH   3  28
TORSDOF 8
ENDMDL
MODEL 5
REMARK VINA RESULT:      -9.0      3.275      5.886
REMARK  8 active torsions:
REMARK  status: ('A' for Active; 'I' for Inactive)
REMARK    1  A    between atoms: C_3  and  S_4 
REMARK    2  A    between atoms: S_4  and  N_5 
REMARK    3  A    between atoms: N_5  and  C_6 
REMARK    4  A    between atoms: C_6  and  C_7 
REMARK    5  A    between atoms: C_20  and  C_21 
REMARK    6  A    between atoms: C_25  and  N_26 
REMARK    7  A    between atoms: N_26  and  C_27 
REMARK    8  A    between atoms: C_27  and  C_28 
ROOT
HETATM    1  C   UNL     1     -47.315  63.701 -50.068  1.00  0.00     0.050 C 
HETATM    2  C   UNL     1     -46.631  62.399 -50.379  1.00  0.00    -0.039 A 
HETATM    3  C   UNL     1     -46.645  61.780 -51.640  1.00  0.00     0.081 A 
HETATM    4  C   UNL     1     -46.015  60.533 -51.828  1.00  0.00     0.039 A 
HETATM    5  C   UNL     1     -45.291  59.907 -50.800  1.00  0.00    -0.003 A 
HETATM    6  C   UNL     1     -45.256  60.551 -49.555  1.00  0.00     0.014 A 
HETATM    7  C   UNL     1     -45.932  61.759 -49.342  1.00  0.00     0.009 A 
ENDROOT
BRANCH   5   8
HETATM    8  C   UNL     1     -44.511  58.681 -51.069  1.00  0.00     0.098 C 
HETATM    9  N   UNL     1     -45.106  57.572 -50.584  1.00  0.00    -0.172 NA
HETATM   10  N   UNL     1     -44.591  56.389 -50.857  1.00  0.00    -0.266 N 
HETATM   11  H   UNL     1     -45.029  55.580 -50.424  1.00  0.00     0.190 HD
HETATM   12  C   UNL     1     -43.537  56.192 -51.667  1.00  0.00     0.108 C 
HETATM   13  C   UNL     1     -42.811  57.338 -52.099  1.00  0.00     0.016 A 
HETATM   14  C   UNL     1     -43.308  58.622 -51.788  1.00  0.00     0.009 A 
HETATM   15  C   UNL     1     -41.598  57.249 -52.828  1.00  0.00     0.016 A 
HETATM   16  C   UNL     1     -42.568  59.761 -52.199  1.00  0.00     0.015 A 
HETATM   17  C   UNL     1     -41.382  59.641 -52.920  1.00  0.00     0.001 A 
HETATM   18  C   UNL     1     -40.898  58.384 -53.237  1.00  0.00     0.001 A 
BRANCH  12  19
HETATM   19  N   UNL     1     -43.104  54.902 -52.000  1.00  0.00    -0.273 NA
HETATM   20  H   UNL     1     -43.903  54.290 -52.177  1.00  0.00     0.129 HD
BRANCH  19  21
HETATM   21  C   UNL     1     -42.085  54.180 -51.235  1.00  0.00     0.132 C 
BRANCH  21  22
HETATM   22  C   UNL     1     -41.233  53.314 -52.127  1.00  0.00    -0.045 A 
HETATM   23  C   UNL     1     -41.342  53.403 -53.524  1.00  0.00     0.008 A 
HETATM   24  C   UNL     1     -40.544  52.607 -54.347  1.00  0.00     0.001 A 
HETATM   25  C   UNL     1     -39.616  51.730 -53.787  1.00  0.00     0.000 A 
HETATM   26  C   UNL     1     -39.480  51.651 -52.404  1.00  0.00     0.001 A 
HETATM   27  C   UNL     1     -40.279  52.441 -51.578  1.00  0.00     0.008 A 
ENDBRANCH  21  22
ENDBRANCH  19  21
ENDBRANCH  12  19
ENDBRANCH   5   8
BRANCH   3  28
HETATM   28  S   UNL     1     -47.410  62.512 -53.090  1.00  0.00     0.242 S 
HETATM   29  O   UNL     1     -48.843  62.441 -52.907  1.00  0.00    -0.206 OA
HETATM   30  O   UNL     1     -46.745  63.753 -53.403  1.00  0.00    -0.206 OA
BRANCH  28  31
HETATM   31  N   UNL     1     -46.973  61.393 -54.291  1.00  0.00    -0.208 NA
HETATM   32  H   UNL     1     -47.759  61.217 -54.921  1.00  0.00     0.140 HD
BRANCH  31  33
HETATM   33  C   UNL     1     -45.739  61.732 -55.019  1.00  0.00     0.182 C 
BRANCH  33  34
HETATM   34  C   UNL     1     -45.007  60.479 -55.350  1.00  0.00     0.119 A 
HETATM   35  N   UNL     1     -43.886  60.378 -56.041  1.00  0.00    -0.232 NA
HETATM   36  C   UNL     1     -43.568  59.039 -56.023  1.00  0.00     0.085 A 
HETATM   37  C   UNL     1     -44.528  58.308 -55.332  1.00  0.00     0.062 A 
HETATM   38  C   UNL     1     -42.465  58.368 -56.572  1.00  0.00     0.034 A 
HETATM   39  N   UNL     1     -45.442  59.246 -54.927  1.00  0.00    -0.342 N 
HETATM   40  C   UNL     1     -44.460  56.925 -55.153  1.00  0.00     0.032 A 
HETATM   41  H   UNL     1     -46.286  59.067 -54.400  1.00  0.00     0.167 HD
HETATM   42  C   UNL     1     -43.351  56.275 -55.706  1.00  0.00     0.002 A 
HETATM   43  C   UNL     1     -42.367  56.981 -56.402  1.00  0.00     0.002 A 
ENDBRANCH  33  34
ENDBRANCH  31  33
ENDBRANCH  28  31
ENDBRANCH   3  28
TORSDOF 8
ENDMDL
MODEL 6
REMARK VINA RESULT:      -8.9      2.937      7.655
REMARK  8 active torsions:
REMARK  status: ('A' for Active; 'I' for Inactive)
REMARK    1  A    between atoms: C_3  and  S_4 
REMARK    2  A    between atoms: S_4  and  N_5 
REMARK    3  A    between atoms: N_5  and  C_6 
REMARK    4  A    between atoms: C_6  and  C_7 
REMARK    5  A    between atoms: C_20  and  C_21 
REMARK    6  A    between atoms: C_25  and  N_26 
REMARK    7  A    between atoms: N_26  and  C_27 
REMARK    8  A    between atoms: C_27  and  C_28 
ROOT
HETATM    1  C   UNL     1     -42.766  61.586 -50.220  1.00  0.00     0.050 C 
HETATM    2  C   UNL     1     -42.648  60.876 -51.540  1.00  0.00    -0.039 A 
HETATM    3  C   UNL     1     -41.709  59.869 -51.815  1.00  0.00     0.081 A 
HETATM    4  C   UNL     1     -41.639  59.292 -53.099  1.00  0.00     0.039 A 
HETATM    5  C   UNL     1     -42.543  59.639 -54.117  1.00  0.00    -0.003 A 
HETATM    6  C   UNL     1     -43.498  60.622 -53.820  1.00  0.00     0.014 A 
HETATM    7  C   UNL     1     -43.533  61.245 -52.567  1.00  0.00     0.009 A 
ENDROOT
BRANCH   5   8
HETATM    8  C   UNL     1     -42.547  58.907 -55.401  1.00  0.00     0.098 C 
HETATM    9  N   UNL     1     -42.222  59.694 -56.446  1.00  0.00    -0.172 NA
HETATM   10  N   UNL     1     -42.061  59.153 -57.638  1.00  0.00    -0.266 N 
HETATM   11  H   UNL     1     -41.878  59.783 -58.414  1.00  0.00     0.190 HD
HETATM   12  C   UNL     1     -42.120  57.832 -57.884  1.00  0.00     0.108 C 
HETATM   13  C   UNL     1     -42.579  56.985 -56.836  1.00  0.00     0.016 A 
HETATM   14  C   UNL     1     -42.804  57.537 -55.556  1.00  0.00     0.009 A 
HETATM   15  C   UNL     1     -42.828  55.601 -57.020  1.00  0.00     0.016 A 
HETATM   16  C   UNL     1     -43.285  56.693 -54.522  1.00  0.00     0.015 A 
HETATM   17  C   UNL     1     -43.514  55.335 -54.733  1.00  0.00     0.001 A 
HETATM   18  C   UNL     1     -43.283  54.787 -55.983  1.00  0.00     0.001 A 
BRANCH  12  19
HETATM   19  N   UNL     1     -41.836  57.313 -59.153  1.00  0.00    -0.273 NA
HETATM   20  H   UNL     1     -40.833  57.362 -59.344  1.00  0.00     0.129 HD
BRANCH  19  21
HETATM   21  C   UNL     1     -42.589  57.683 -60.353  1.00  0.00     0.132 C 
BRANCH  21  22
HETATM   22  C   UNL     1     -43.992  57.134 -60.318  1.00  0.00    -0.045 A 
HETATM   23  C   UNL     1     -44.219  55.750 -60.386  1.00  0.00     0.008 A 
HETATM   24  C   UNL     1     -45.519  55.245 -60.343  1.00  0.00     0.001 A 
HETATM   25  C   UNL     1     -46.603  56.110 -60.214  1.00  0.00     0.000 A 
HETATM   26  C   UNL     1     -46.391  57.483 -60.121  1.00  0.00     0.001 A 
HETATM   27  C   UNL     1     -45.094  57.993 -60.168  1.00  0.00     0.008 A 
ENDBRANCH  21  22
ENDBRANCH  19  21
ENDBRANCH  12  19
ENDBRANCH   5   8
BRANCH   3  28
HETATM   28  S   UNL     1     -40.573  59.218 -50.587  1.00  0.00     0.242 S 
HETATM   29  O   UNL     1     -39.350  59.986 -50.677  1.00  0.00    -0.206 OA
HETATM   30  O   UNL     1     -41.271  59.045 -49.337  1.00  0.00    -0.206 OA
BRANCH  28  31
HETATM   31  N   UNL     1     -40.270  57.666 -51.211  1.00  0.00    -0.208 NA
HETATM   32  H   UNL     1     -39.269  57.461 -51.191  1.00  0.00     0.140 HD
BRANCH  31  33
HETATM   33  C   UNL     1     -41.072  56.596 -50.595  1.00  0.00     0.182 C 
BRANCH  33  34
HETATM   34  C   UNL     1     -40.730  55.298 -51.239  1.00  0.00     0.119 A 
HETATM   35  N   UNL     1     -40.263  54.217 -50.640  1.00  0.00    -0.232 NA
HETATM   36  C   UNL     1     -40.169  53.265 -51.629  1.00  0.00     0.085 A 
HETATM   37  C   UNL     1     -40.559  53.785 -52.859  1.00  0.00     0.062 A 
HETATM   38  C   UNL     1     -39.762  51.925 -51.553  1.00  0.00     0.034 A 
HETATM   39  N   UNL     1     -40.897  55.085 -52.586  1.00  0.00    -0.342 N 
HETATM   40  C   UNL     1     -40.567  53.041 -54.040  1.00  0.00     0.032 A 
HETATM   41  H   UNL     1     -41.222  55.770 -53.256  1.00  0.00     0.167 HD
HETATM   42  C   UNL     1     -40.161  51.705 -53.943  1.00  0.00     0.002 A 
HETATM   43  C   UNL     1     -39.767  51.153 -52.721  1.00  0.00     0.002 A 
ENDBRANCH  33  34
ENDBRANCH  31  33
ENDBRANCH  28  31
ENDBRANCH   3  28
TORSDOF 8
ENDMDL
MODEL 7
REMARK VINA RESULT:      -8.8      2.238      4.730
REMARK  8 active torsions:
REMARK  status: ('A' for Active; 'I' for Inactive)
REMARK    1  A    between atoms: C_3  and  S_4 
REMARK    2  A    between atoms: S_4  and  N_5 
REMARK    3  A    between atoms: N_5  and  C_6 
REMARK    4  A    between atoms: C_6  and  C_7 
REMARK    5  A    between atoms: C_20  and  C_21 
REMARK    6  A    between atoms: C_25  and  N_26 
REMARK    7  A    between atoms: N_26  and  C_27 
REMARK    8  A    between atoms: C_27  and  C_28 
ROOT
HETATM    1  C   UNL     1     -45.571  61.853 -58.362  1.00  0.00     0.050 C 
HETATM    2  C   UNL     1     -45.008  60.665 -57.632  1.00  0.00    -0.039 A 
HETATM    3  C   UNL     1     -43.636  60.420 -57.461  1.00  0.00     0.081 A 
HETATM    4  C   UNL     1     -43.198  59.253 -56.804  1.00  0.00     0.039 A 
HETATM    5  C   UNL     1     -44.101  58.342 -56.232  1.00  0.00    -0.003 A 
HETATM    6  C   UNL     1     -45.468  58.615 -56.380  1.00  0.00     0.014 A 
HETATM    7  C   UNL     1     -45.912  59.739 -57.086  1.00  0.00     0.009 A 
ENDROOT
BRANCH   5   8
HETATM    8  C   UNL     1     -43.613  57.211 -55.415  1.00  0.00     0.098 C 
HETATM    9  N   UNL     1     -42.928  56.305 -56.141  1.00  0.00    -0.172 NA
HETATM   10  N   UNL     1     -42.324  55.307 -55.526  1.00  0.00    -0.266 N 
HETATM   11  H   UNL     1     -41.870  54.609 -56.109  1.00  0.00     0.190 HD
HETATM   12  C   UNL     1     -42.271  55.161 -54.191  1.00  0.00     0.108 C 
HETATM   13  C   UNL     1     -43.080  56.025 -53.399  1.00  0.00     0.016 A 
HETATM   14  C   UNL     1     -43.776  57.079 -54.028  1.00  0.00     0.009 A 
HETATM   15  C   UNL     1     -43.224  55.870 -51.997  1.00  0.00     0.016 A 
HETATM   16  C   UNL     1     -44.600  57.922 -53.238  1.00  0.00     0.015 A 
HETATM   17  C   UNL     1     -44.717  57.748 -51.860  1.00  0.00     0.001 A 
HETATM   18  C   UNL     1     -44.026  56.722 -51.238  1.00  0.00     0.001 A 
BRANCH  12  19
HETATM   19  N   UNL     1     -41.524  54.135 -53.598  1.00  0.00    -0.273 NA
HETATM   20  H   UNL     1     -41.170  54.430 -52.686  1.00  0.00     0.129 HD
BRANCH  19  21
HETATM   21  C   UNL     1     -40.488  53.387 -54.313  1.00  0.00     0.132 C 
BRANCH  21  22
HETATM   22  C   UNL     1     -40.163  52.089 -53.620  1.00  0.00    -0.045 A 
HETATM   23  C   UNL     1     -40.110  50.888 -54.344  1.00  0.00     0.008 A 
HETATM   24  C   UNL     1     -39.799  49.689 -53.701  1.00  0.00     0.001 A 
HETATM   25  C   UNL     1     -39.520  49.678 -52.335  1.00  0.00     0.000 A 
HETATM   26  C   UNL     1     -39.545  50.866 -51.610  1.00  0.00     0.001 A 
HETATM   27  C   UNL     1     -39.860  52.066 -52.248  1.00  0.00     0.008 A 
ENDBRANCH  21  22
ENDBRANCH  19  21
ENDBRANCH  12  19
ENDBRANCH   5   8
BRANCH   3  28
HETATM   28  S   UNL     1     -42.355  61.551 -58.013  1.00  0.00     0.242 S 
HETATM   29  O   UNL     1     -42.696  62.868 -57.520  1.00  0.00    -0.206 OA
HETATM   30  O   UNL     1     -41.062  60.960 -57.769  1.00  0.00    -0.206 OA
BRANCH  28  31
HETATM   31  N   UNL     1     -42.604  61.534 -59.694  1.00  0.00    -0.208 NA
HETATM   32  H   UNL     1     -42.499  62.474 -60.082  1.00  0.00     0.140 HD
BRANCH  31  33
HETATM   33  C   UNL     1     -41.798  60.537 -60.418  1.00  0.00     0.182 C 
BRANCH  33  34
HETATM   34  C   UNL     1     -42.457  59.206 -60.313  1.00  0.00     0.119 A 
HETATM   35  N   UNL     1     -41.874  58.057 -60.023  1.00  0.00    -0.232 NA
HETATM   36  C   UNL     1     -42.894  57.134 -59.977  1.00  0.00     0.085 A 
HETATM   37  C   UNL     1     -44.117  57.728 -60.272  1.00  0.00     0.062 A 
HETATM   38  C   UNL     1     -42.856  55.763 -59.681  1.00  0.00     0.034 A 
HETATM   39  N   UNL     1     -43.809  59.044 -60.497  1.00  0.00    -0.342 N 
HETATM   40  C   UNL     1     -45.325  57.029 -60.295  1.00  0.00     0.032 A 
HETATM   41  H   UNL     1     -44.462  59.775 -60.748  1.00  0.00     0.167 HD
HETATM   42  C   UNL     1     -45.266  55.663 -59.995  1.00  0.00     0.002 A 
HETATM   43  C   UNL     1     -44.054  55.039 -59.690  1.00  0.00     0.002 A 
ENDBRANCH  33  34
ENDBRANCH  31  33
ENDBRANCH  28  31
ENDBRANCH   3  28
TORSDOF 8
ENDMDL
MODEL 8
REMARK VINA RESULT:      -8.7      2.127      5.160
REMARK  8 active torsions:
REMARK  status: ('A' for Active; 'I' for Inactive)
REMARK    1  A    between atoms: C_3  and  S_4 
REMARK    2  A    between atoms: S_4  and  N_5 
REMARK    3  A    between atoms: N_5  and  C_6 
REMARK    4  A    between atoms: C_6  and  C_7 
REMARK    5  A    between atoms: C_20  and  C_21 
REMARK    6  A    between atoms: C_25  and  N_26 
REMARK    7  A    between atoms: N_26  and  C_27 
REMARK    8  A    between atoms: C_27  and  C_28 
ROOT
HETATM    1  C   UNL     1     -46.220  62.068 -53.254  1.00  0.00     0.050 C 
HETATM    2  C   UNL     1     -45.451  60.785 -53.103  1.00  0.00    -0.039 A 
HETATM    3  C   UNL     1     -44.403  60.387 -53.948  1.00  0.00     0.081 A 
HETATM    4  C   UNL     1     -43.771  59.142 -53.759  1.00  0.00     0.039 A 
HETATM    5  C   UNL     1     -44.102  58.298 -52.687  1.00  0.00    -0.003 A 
HETATM    6  C   UNL     1     -45.127  58.722 -51.830  1.00  0.00     0.014 A 
HETATM    7  C   UNL     1     -45.805  59.928 -52.047  1.00  0.00     0.009 A 
ENDROOT
BRANCH   5   8
HETATM    8  C   UNL     1     -43.317  57.074 -52.423  1.00  0.00     0.098 C 
HETATM    9  N   UNL     1     -42.837  57.029 -51.163  1.00  0.00    -0.172 NA
HETATM   10  N   UNL     1     -42.224  55.940 -50.743  1.00  0.00    -0.266 N 
HETATM   11  H   UNL     1     -41.821  55.964 -49.810  1.00  0.00     0.190 HD
HETATM   12  C   UNL     1     -42.106  54.812 -51.465  1.00  0.00     0.108 C 
HETATM   13  C   UNL     1     -42.490  54.861 -52.834  1.00  0.00     0.016 A 
HETATM   14  C   UNL     1     -43.109  56.027 -53.332  1.00  0.00     0.009 A 
HETATM   15  C   UNL     1     -42.271  53.785 -53.732  1.00  0.00     0.016 A 
HETATM   16  C   UNL     1     -43.468  56.079 -54.704  1.00  0.00     0.015 A 
HETATM   17  C   UNL     1     -43.245  55.002 -55.560  1.00  0.00     0.001 A 
HETATM   18  C   UNL     1     -42.648  53.852 -55.073  1.00  0.00     0.001 A 
BRANCH  12  19
HETATM   19  N   UNL     1     -41.535  53.654 -50.920  1.00  0.00    -0.273 NA
HETATM   20  H   UNL     1     -41.828  53.532 -49.949  1.00  0.00     0.129 HD
BRANCH  19  21
HETATM   21  C   UNL     1     -40.115  53.326 -51.054  1.00  0.00     0.132 C 
BRANCH  21  22
HETATM   22  C   UNL     1     -39.917  51.951 -51.641  1.00  0.00    -0.045 A 
HETATM   23  C   UNL     1     -39.722  51.786 -53.021  1.00  0.00     0.008 A 
HETATM   24  C   UNL     1     -39.529  50.513 -53.559  1.00  0.00     0.001 A 
HETATM   25  C   UNL     1     -39.508  49.396 -52.726  1.00  0.00     0.000 A 
HETATM   26  C   UNL     1     -39.675  49.548 -51.352  1.00  0.00     0.001 A 
HETATM   27  C   UNL     1     -39.873  50.818 -50.811  1.00  0.00     0.008 A 
ENDBRANCH  21  22
ENDBRANCH  19  21
ENDBRANCH  12  19
ENDBRANCH   5   8
BRANCH   3  28
HETATM   28  S   UNL     1     -43.768  61.409 -55.281  1.00  0.00     0.242 S 
HETATM   29  O   UNL     1     -44.772  61.437 -56.323  1.00  0.00    -0.206 OA
HETATM   30  O   UNL     1     -43.214  62.621 -54.729  1.00  0.00    -0.206 OA
BRANCH  28  31
HETATM   31  N   UNL     1     -42.465  60.464 -55.826  1.00  0.00    -0.208 NA
HETATM   32  H   UNL     1     -42.558  59.501 -55.496  1.00  0.00     0.140 HD
BRANCH  31  33
HETATM   33  C   UNL     1     -42.226  60.536 -57.277  1.00  0.00     0.182 C 
BRANCH  33  34
HETATM   34  C   UNL     1     -42.742  59.296 -57.919  1.00  0.00     0.119 A 
HETATM   35  N   UNL     1     -42.119  58.135 -58.009  1.00  0.00    -0.232 NA
HETATM   36  C   UNL     1     -43.016  57.288 -58.620  1.00  0.00     0.085 A 
HETATM   37  C   UNL     1     -44.196  57.955 -58.932  1.00  0.00     0.062 A 
HETATM   38  C   UNL     1     -42.896  55.927 -58.938  1.00  0.00     0.034 A 
HETATM   39  N   UNL     1     -43.991  59.235 -58.490  1.00  0.00    -0.342 N 
HETATM   40  C   UNL     1     -45.284  57.340 -59.556  1.00  0.00     0.032 A 
HETATM   41  H   UNL     1     -44.646  60.003 -58.560  1.00  0.00     0.167 HD
HETATM   42  C   UNL     1     -45.146  55.981 -59.861  1.00  0.00     0.002 A 
HETATM   43  C   UNL     1     -43.975  55.283 -59.557  1.00  0.00     0.002 A 
ENDBRANCH  33  34
ENDBRANCH  31  33
ENDBRANCH  28  31
ENDBRANCH   3  28
TORSDOF 8
ENDMDL
MODEL 9
REMARK VINA RESULT:      -8.7      1.968      2.533
REMARK  8 active torsions:
REMARK  status: ('A' for Active; 'I' for Inactive)
REMARK    1  A    between atoms: C_3  and  S_4 
REMARK    2  A    between atoms: S_4  and  N_5 
REMARK    3  A    between atoms: N_5  and  C_6 
REMARK    4  A    between atoms: C_6  and  C_7 
REMARK    5  A    between atoms: C_20  and  C_21 
REMARK    6  A    between atoms: C_25  and  N_26 
REMARK    7  A    between atoms: N_26  and  C_27 
REMARK    8  A    between atoms: C_27  and  C_28 
ROOT
HETATM    1  C   UNL     1     -44.441  57.325 -60.276  1.00  0.00     0.050 C 
HETATM    2  C   UNL     1     -44.044  57.038 -58.854  1.00  0.00    -0.039 A 
HETATM    3  C   UNL     1     -44.643  57.630 -57.731  1.00  0.00     0.081 A 
HETATM    4  C   UNL     1     -44.172  57.337 -56.435  1.00  0.00     0.039 A 
HETATM    5  C   UNL     1     -43.153  56.396 -56.213  1.00  0.00    -0.003 A 
HETATM    6  C   UNL     1     -42.586  55.786 -57.341  1.00  0.00     0.014 A 
HETATM    7  C   UNL     1     -43.004  56.119 -58.635  1.00  0.00     0.009 A 
ENDROOT
BRANCH   5   8
HETATM    8  C   UNL     1     -42.789  55.993 -54.839  1.00  0.00     0.098 C 
HETATM    9  N   UNL     1     -43.153  54.725 -54.557  1.00  0.00    -0.172 NA
HETATM   10  N   UNL     1     -42.781  54.184 -53.413  1.00  0.00    -0.266 N 
HETATM   11  H   UNL     1     -43.125  53.251 -53.207  1.00  0.00     0.190 HD
HETATM   12  C   UNL     1     -41.981  54.786 -52.516  1.00  0.00     0.108 C 
HETATM   13  C   UNL     1     -41.677  56.162 -52.720  1.00  0.00     0.016 A 
HETATM   14  C   UNL     1     -42.096  56.788 -53.914  1.00  0.00     0.009 A 
HETATM   15  C   UNL     1     -40.971  56.942 -51.769  1.00  0.00     0.016 A 
HETATM   16  C   UNL     1     -41.812  58.165 -54.101  1.00  0.00     0.015 A 
HETATM   17  C   UNL     1     -41.111  58.904 -53.149  1.00  0.00     0.001 A 
HETATM   18  C   UNL     1     -40.688  58.290 -51.983  1.00  0.00     0.001 A 
BRANCH  12  19
HETATM   19  N   UNL     1     -41.538  54.116 -51.369  1.00  0.00    -0.273 NA
HETATM   20  H   UNL     1     -41.852  54.601 -50.526  1.00  0.00     0.129 HD
BRANCH  19  21
HETATM   21  C   UNL     1     -40.157  53.661 -51.194  1.00  0.00     0.132 C 
BRANCH  21  22
HETATM   22  C   UNL     1     -39.960  52.267 -51.732  1.00  0.00    -0.045 A 
HETATM   23  C   UNL     1     -39.851  51.174 -50.859  1.00  0.00     0.008 A 
HETATM   24  C   UNL     1     -39.680  49.884 -51.361  1.00  0.00     0.001 A 
HETATM   25  C   UNL     1     -39.633  49.667 -52.737  1.00  0.00     0.000 A 
HETATM   26  C   UNL     1     -39.765  50.740 -53.615  1.00  0.00     0.001 A 
HETATM   27  C   UNL     1     -39.933  52.032 -53.117  1.00  0.00     0.008 A 
ENDBRANCH  21  22
ENDBRANCH  19  21
ENDBRANCH  12  19
ENDBRANCH   5   8
BRANCH   3  28
HETATM   28  S   UNL     1     -46.043  58.750 -57.834  1.00  0.00     0.242 S 
HETATM   29  O   UNL     1     -45.620  59.904 -58.598  1.00  0.00    -0.206 OA
HETATM   30  O   UNL     1     -47.226  58.001 -58.182  1.00  0.00    -0.206 OA
BRANCH  28  31
HETATM   31  N   UNL     1     -46.207  59.220 -56.210  1.00  0.00    -0.208 NA
HETATM   32  H   UNL     1     -45.715  58.568 -55.596  1.00  0.00     0.140 HD
BRANCH  31  33
HETATM   33  C   UNL     1     -45.843  60.621 -55.942  1.00  0.00     0.182 C 
BRANCH  33  34
HETATM   34  C   UNL     1     -45.131  60.700 -54.637  1.00  0.00     0.119 A 
HETATM   35  N   UNL     1     -44.359  61.685 -54.217  1.00  0.00    -0.232 NA
HETATM   36  C   UNL     1     -43.988  61.336 -52.938  1.00  0.00     0.085 A 
HETATM   37  C   UNL     1     -44.523  60.102 -52.584  1.00  0.00     0.062 A 
HETATM   38  C   UNL     1     -43.199  62.029 -52.008  1.00  0.00     0.034 A 
HETATM   39  N   UNL     1     -45.233  59.711 -53.689  1.00  0.00    -0.342 N 
HETATM   40  C   UNL     1     -44.313  59.501 -51.342  1.00  0.00     0.032 A 
HETATM   41  H   UNL     1     -45.752  58.848 -53.790  1.00  0.00     0.167 HD
HETATM   42  C   UNL     1     -43.525  60.209 -50.427  1.00  0.00     0.002 A 
HETATM   43  C   UNL     1     -42.977  61.453 -50.751  1.00  0.00     0.002 A 
ENDBRANCH  33  34
ENDBRANCH  31  33
ENDBRANCH  28  31
ENDBRANCH   3  28
TORSDOF 8
ENDMDL
MODEL 10
REMARK VINA RESULT:      -8.7      3.510      7.031
REMARK  8 active torsions:
REMARK  status: ('A' for Active; 'I' for Inactive)
REMARK    1  A    between atoms: C_3  and  S_4 
REMARK    2  A    between atoms: S_4  and  N_5 
REMARK    3  A    between atoms: N_5  and  C_6 
REMARK    4  A    between atoms: C_6  and  C_7 
REMARK    5  A    between atoms: C_20  and  C_21 
REMARK    6  A    between atoms: C_25  and  N_26 
REMARK    7  A    between atoms: N_26  and  C_27 
REMARK    8  A    between atoms: C_27  and  C_28 
ROOT
HETATM    1  C   UNL     1     -39.971  51.981 -51.313  1.00  0.00     0.050 C 
HETATM    2  C   UNL     1     -40.598  53.083 -52.120  1.00  0.00    -0.039 A 
HETATM    3  C   UNL     1     -41.065  54.292 -51.580  1.00  0.00     0.081 A 
HETATM    4  C   UNL     1     -41.685  55.250 -52.408  1.00  0.00     0.039 A 
HETATM    5  C   UNL     1     -41.787  55.072 -53.798  1.00  0.00    -0.003 A 
HETATM    6  C   UNL     1     -41.286  53.875 -54.330  1.00  0.00     0.014 A 
HETATM    7  C   UNL     1     -40.727  52.891 -53.506  1.00  0.00     0.009 A 
ENDROOT
BRANCH   5   8
HETATM    8  C   UNL     1     -42.298  56.159 -54.659  1.00  0.00     0.098 C 
HETATM    9  N   UNL     1     -41.690  56.194 -55.863  1.00  0.00    -0.172 NA
HETATM   10  N   UNL     1     -42.129  57.029 -56.784  1.00  0.00    -0.266 N 
HETATM   11  H   UNL     1     -41.609  57.073 -57.657  1.00  0.00     0.190 HD
HETATM   12  C   UNL     1     -43.211  57.813 -56.641  1.00  0.00     0.108 C 
HETATM   13  C   UNL     1     -43.803  57.894 -55.349  1.00  0.00     0.016 A 
HETATM   14  C   UNL     1     -43.331  57.046 -54.325  1.00  0.00     0.009 A 
HETATM   15  C   UNL     1     -44.850  58.798 -55.040  1.00  0.00     0.016 A 
HETATM   16  C   UNL     1     -43.908  57.147 -53.032  1.00  0.00     0.015 A 
HETATM   17  C   UNL     1     -44.941  58.042 -52.760  1.00  0.00     0.001 A 
HETATM   18  C   UNL     1     -45.415  58.867 -53.766  1.00  0.00     0.001 A 
BRANCH  12  19
HETATM   19  N   UNL     1     -43.686  58.601 -57.698  1.00  0.00    -0.273 NA
HETATM   20  H   UNL     1     -44.676  58.816 -57.569  1.00  0.00     0.129 HD
BRANCH  19  21
HETATM   21  C   UNL     1     -43.426  58.289 -59.105  1.00  0.00     0.132 C 
BRANCH  21  22
HETATM   22  C   UNL     1     -44.229  57.100 -59.567  1.00  0.00    -0.045 A 
HETATM   23  C   UNL     1     -45.607  57.220 -59.806  1.00  0.00     0.008 A 
HETATM   24  C   UNL     1     -46.346  56.120 -60.244  1.00  0.00     0.001 A 
HETATM   25  C   UNL     1     -45.717  54.896 -60.465  1.00  0.00     0.000 A 
HETATM   26  C   UNL     1     -44.346  54.770 -60.255  1.00  0.00     0.001 A 
HETATM   27  C   UNL     1     -43.605  55.866 -59.814  1.00  0.00     0.008 A 
ENDBRANCH  21  22
ENDBRANCH  19  21
ENDBRANCH  12  19
ENDBRANCH   5   8
BRANCH   3  28
HETATM   28  S   UNL     1     -40.890  54.732 -49.848  1.00  0.00     0.242 S 
HETATM   29  O   UNL     1     -41.831  53.928 -49.098  1.00  0.00    -0.206 OA
HETATM   30  O   UNL     1     -39.489  54.776 -49.508  1.00  0.00    -0.206 OA
BRANCH  28  31
HETATM   31  N   UNL     1     -41.453  56.335 -49.858  1.00  0.00    -0.208 NA
HETATM   32  H   UNL     1     -41.890  56.567 -48.964  1.00  0.00     0.140 HD
BRANCH  31  33
HETATM   33  C   UNL     1     -40.448  57.331 -50.263  1.00  0.00     0.182 C 
BRANCH  33  34
HETATM   34  C   UNL     1     -41.134  58.483 -50.910  1.00  0.00     0.119 A 
HETATM   35  N   UNL     1     -40.995  58.886 -52.160  1.00  0.00    -0.232 NA
HETATM   36  C   UNL     1     -41.876  59.934 -52.304  1.00  0.00     0.085 A 
HETATM   37  C   UNL     1     -42.543  60.191 -51.111  1.00  0.00     0.062 A 
HETATM   38  C   UNL     1     -42.169  60.715 -53.432  1.00  0.00     0.034 A 
HETATM   39  N   UNL     1     -42.041  59.264 -50.235  1.00  0.00    -0.342 N 
HETATM   40  C   UNL     1     -43.497  61.199 -50.967  1.00  0.00     0.032 A 
HETATM   41  H   UNL     1     -42.299  59.163 -49.262  1.00  0.00     0.167 HD
HETATM   42  C   UNL     1     -43.778  61.966 -52.103  1.00  0.00     0.002 A 
HETATM   43  C   UNL     1     -43.128  61.729 -53.317  1.00  0.00     0.002 A 
ENDBRANCH  33  34
ENDBRANCH  31  33
ENDBRANCH  28  31
ENDBRANCH   3  28
TORSDOF 8
ENDMDL
