MODEL 1
REMARK VINA RESULT:      -8.4      0.000      0.000
REMARK  5 active torsions:
REMARK  status: ('A' for Active; 'I' for Inactive)
REMARK    1  A    between atoms: C_9  and  C_10 
REMARK       I    between atoms: C_10  and  N_11 
REMARK    2  A    between atoms: N_11  and  C_12 
REMARK    3  A    between atoms: C_15  and  N_16 
REMARK       I    between atoms: N_16  and  C_17 
REMARK       I    between atoms: C_17  and  N_18 
REMARK    4  A    between atoms: N_18  and  C_19 
REMARK    5  A    between atoms: C_19  and  C_20 
ROOT
HETATM    1  C   UNL     1     -43.271  56.176 -54.592  1.00  0.00     0.035 A 
HETATM    2  C   UNL     1     -44.355  56.946 -54.178  1.00  0.00     0.032 A 
HETATM    3  C   UNL     1     -45.069  57.733 -55.096  1.00  0.00     0.032 A 
HETATM    4  C   UNL     1     -44.692  57.784 -56.437  1.00  0.00     0.036 A 
HETATM    5  C   UNL     1     -43.607  57.001 -56.850  1.00  0.00     0.032 A 
HETATM    6  C   UNL     1     -42.906  56.204 -55.939  1.00  0.00     0.032 A 
ENDROOT
BRANCH   1   7
HETATM    7  N   UNL     1     -42.534  55.337 -53.742  1.00  0.00    -0.322 N 
HETATM    8  C   UNL     1     -41.173  55.330 -53.501  1.00  0.00     0.277 C 
HETATM    9  O   UNL     1     -40.334  56.035 -54.051  1.00  0.00    -0.266 OA
HETATM   10  H   UNL     1     -43.037  54.633 -53.205  1.00  0.00     0.169 HD
BRANCH   8  11
HETATM   11  C   UNL     1     -40.811  54.336 -52.469  1.00  0.00     0.157 A 
HETATM   12  C   UNL     1     -40.427  52.978 -52.666  1.00  0.00     0.029 A 
HETATM   13  C   UNL     1     -40.272  52.114 -53.769  1.00  0.00     0.023 A 
HETATM   14  C   UNL     1     -40.163  52.489 -51.393  1.00  0.00     0.063 A 
HETATM   15  C   UNL     1     -39.856  50.789 -53.558  1.00  0.00    -0.061 A 
HETATM   16  C   UNL     1     -39.699  49.847 -54.717  1.00  0.00     0.048 C 
HETATM   17  C   UNL     1     -39.595  50.339 -52.258  1.00  0.00     0.009 A 
HETATM   18  C   UNL     1     -39.742  51.180 -51.148  1.00  0.00     0.032 A 
HETATM   19  N   UNL     1     -40.404  53.536 -50.547  1.00  0.00    -0.277 N 
HETATM   20  H   UNL     1     -40.310  53.539 -49.537  1.00  0.00     0.189 HD
HETATM   21  N   UNL     1     -40.811  54.664 -51.155  1.00  0.00    -0.168 NA
ENDBRANCH   8  11
ENDBRANCH   1   7
BRANCH   4  22
HETATM   22  N   UNL     1     -45.349  58.524 -57.438  1.00  0.00    -0.309 N 
HETATM   23  C   UNL     1     -45.956  58.197 -58.610  1.00  0.00     0.320 C 
HETATM   24  N   UNL     1     -46.225  56.889 -58.853  1.00  0.00    -0.339 N 
HETATM   25  O   UNL     1     -46.266  59.100 -59.386  1.00  0.00    -0.247 OA
HETATM   26  H   UNL     1     -46.479  56.367 -58.028  1.00  0.00     0.164 HD
HETATM   27  H   UNL     1     -45.337  59.530 -57.326  1.00  0.00     0.170 HD
BRANCH  24  28
HETATM   28  C   UNL     1     -46.931  56.518 -60.056  1.00  0.00     0.150 C 
BRANCH  28  29
HETATM   29  C   UNL     1     -46.047  55.716 -60.963  1.00  0.00    -0.018 C 
HETATM   30  C   UNL     1     -44.873  55.148 -60.651  1.00  0.00     0.008 C 
ENDBRANCH  28  29
ENDBRANCH  24  28
ENDBRANCH   4  22
TORSDOF 5
ENDMDL
MODEL 2
REMARK VINA RESULT:      -8.3      4.879      7.187
REMARK  5 active torsions:
REMARK  status: ('A' for Active; 'I' for Inactive)
REMARK    1  A    between atoms: C_9  and  C_10 
REMARK       I    between atoms: C_10  and  N_11 
REMARK    2  A    between atoms: N_11  and  C_12 
REMARK    3  A    between atoms: C_15  and  N_16 
REMARK       I    between atoms: N_16  and  C_17 
REMARK       I    between atoms: C_17  and  N_18 
REMARK    4  A    between atoms: N_18  and  C_19 
REMARK    5  A    between atoms: C_19  and  C_20 
ROOT
HETATM    1  C   UNL     1     -43.346  57.694 -51.991  1.00  0.00     0.035 A 
HETATM    2  C   UNL     1     -44.655  57.475 -51.568  1.00  0.00     0.032 A 
HETATM    3  C   UNL     1     -45.385  58.496 -50.938  1.00  0.00     0.032 A 
HETATM    4  C   UNL     1     -44.808  59.741 -50.696  1.00  0.00     0.036 A 
HETATM    5  C   UNL     1     -43.496  59.959 -51.130  1.00  0.00     0.032 A 
HETATM    6  C   UNL     1     -42.773  58.947 -51.772  1.00  0.00     0.032 A 
ENDROOT
BRANCH   1   7
HETATM    7  N   UNL     1     -42.568  56.737 -52.660  1.00  0.00    -0.322 N 
HETATM    8  C   UNL     1     -41.536  55.961 -52.164  1.00  0.00     0.277 C 
HETATM    9  O   UNL     1     -41.062  56.019 -51.035  1.00  0.00    -0.266 OA
HETATM   10  H   UNL     1     -42.768  56.554 -53.641  1.00  0.00     0.169 HD
BRANCH   8  11
HETATM   11  C   UNL     1     -41.034  55.015 -53.182  1.00  0.00     0.157 A 
HETATM   12  C   UNL     1     -40.573  53.681 -52.979  1.00  0.00     0.029 A 
HETATM   13  C   UNL     1     -40.399  52.823 -51.874  1.00  0.00     0.023 A 
HETATM   14  C   UNL     1     -40.245  53.216 -54.245  1.00  0.00     0.063 A 
HETATM   15  C   UNL     1     -39.904  51.524 -52.078  1.00  0.00    -0.061 A 
HETATM   16  C   UNL     1     -39.697  50.597 -50.914  1.00  0.00     0.048 C 
HETATM   17  C   UNL     1     -39.591  51.093 -53.373  1.00  0.00     0.009 A 
HETATM   18  C   UNL     1     -39.756  51.929 -54.484  1.00  0.00     0.032 A 
HETATM   19  N   UNL     1     -40.509  54.255 -55.092  1.00  0.00    -0.277 N 
HETATM   20  H   UNL     1     -40.388  54.269 -56.099  1.00  0.00     0.189 HD
HETATM   21  N   UNL     1     -40.973  55.364 -54.489  1.00  0.00    -0.168 NA
ENDBRANCH   8  11
ENDBRANCH   1   7
BRANCH   4  22
HETATM   22  N   UNL     1     -45.458  60.833 -50.089  1.00  0.00    -0.309 N 
HETATM   23  C   UNL     1     -45.829  61.122 -48.814  1.00  0.00     0.320 C 
HETATM   24  N   UNL     1     -45.325  60.363 -47.808  1.00  0.00    -0.339 N 
HETATM   25  O   UNL     1     -46.578  62.079 -48.619  1.00  0.00    -0.247 OA
HETATM   26  H   UNL     1     -44.376  60.057 -47.966  1.00  0.00     0.164 HD
HETATM   27  H   UNL     1     -45.790  61.556 -50.716  1.00  0.00     0.170 HD
BRANCH  24  28
HETATM   28  C   UNL     1     -45.644  60.687 -46.439  1.00  0.00     0.150 C 
BRANCH  28  29
HETATM   29  C   UNL     1     -46.868  59.947 -45.990  1.00  0.00    -0.018 C 
HETATM   30  C   UNL     1     -46.951  58.649 -45.665  1.00  0.00     0.008 C 
ENDBRANCH  28  29
ENDBRANCH  24  28
ENDBRANCH   4  22
TORSDOF 5
ENDMDL
MODEL 3
REMARK VINA RESULT:      -8.2      5.295      7.689
REMARK  5 active torsions:
REMARK  status: ('A' for Active; 'I' for Inactive)
REMARK    1  A    between atoms: C_9  and  C_10 
REMARK       I    between atoms: C_10  and  N_11 
REMARK    2  A    between atoms: N_11  and  C_12 
REMARK    3  A    between atoms: C_15  and  N_16 
REMARK       I    between atoms: N_16  and  C_17 
REMARK       I    between atoms: C_17  and  N_18 
REMARK    4  A    between atoms: N_18  and  C_19 
REMARK    5  A    between atoms: C_19  and  C_20 
ROOT
HETATM    1  C   UNL     1     -43.431  58.670 -51.720  1.00  0.00     0.035 A 
HETATM    2  C   UNL     1     -42.901  59.888 -51.300  1.00  0.00     0.032 A 
HETATM    3  C   UNL     1     -43.659  60.765 -50.506  1.00  0.00     0.032 A 
HETATM    4  C   UNL     1     -44.967  60.450 -50.145  1.00  0.00     0.036 A 
HETATM    5  C   UNL     1     -45.493  59.222 -50.562  1.00  0.00     0.032 A 
HETATM    6  C   UNL     1     -44.733  58.340 -51.339  1.00  0.00     0.032 A 
ENDROOT
BRANCH   1   7
HETATM    7  N   UNL     1     -42.724  57.727 -52.481  1.00  0.00    -0.322 N 
HETATM    8  C   UNL     1     -41.736  56.850 -52.071  1.00  0.00     0.277 C 
HETATM    9  O   UNL     1     -41.245  56.783 -50.950  1.00  0.00    -0.266 OA
HETATM   10  H   UNL     1     -42.948  57.640 -53.470  1.00  0.00     0.169 HD
BRANCH   8  11
HETATM   11  C   UNL     1     -41.309  55.965 -53.174  1.00  0.00     0.157 A 
HETATM   12  C   UNL     1     -40.835  54.623 -53.079  1.00  0.00     0.029 A 
HETATM   13  C   UNL     1     -40.584  53.705 -52.039  1.00  0.00     0.023 A 
HETATM   14  C   UNL     1     -40.599  54.230 -54.389  1.00  0.00     0.063 A 
HETATM   15  C   UNL     1     -40.106  52.421 -52.350  1.00  0.00    -0.061 A 
HETATM   16  C   UNL     1     -39.816  51.431 -51.258  1.00  0.00     0.048 C 
HETATM   17  C   UNL     1     -39.885  52.064 -53.687  1.00  0.00     0.009 A 
HETATM   18  C   UNL     1     -40.129  52.960 -54.734  1.00  0.00     0.032 A 
HETATM   19  N   UNL     1     -40.921  55.315 -55.156  1.00  0.00    -0.277 N 
HETATM   20  H   UNL     1     -40.873  55.385 -56.166  1.00  0.00     0.189 HD
HETATM   21  N   UNL     1     -41.340  56.387 -54.459  1.00  0.00    -0.168 NA
ENDBRANCH   8  11
ENDBRANCH   1   7
BRANCH   4  22
HETATM   22  N   UNL     1     -45.802  61.249 -49.340  1.00  0.00    -0.309 N 
HETATM   23  C   UNL     1     -46.075  61.287 -48.009  1.00  0.00     0.320 C 
HETATM   24  N   UNL     1     -45.268  60.595 -47.165  1.00  0.00    -0.339 N 
HETATM   25  O   UNL     1     -47.020  61.973 -47.619  1.00  0.00    -0.247 OA
HETATM   26  H   UNL     1     -44.299  60.583 -47.448  1.00  0.00     0.164 HD
HETATM   27  H   UNL     1     -46.387  61.913 -49.830  1.00  0.00     0.170 HD
BRANCH  24  28
HETATM   28  C   UNL     1     -45.490  60.672 -45.741  1.00  0.00     0.150 C 
BRANCH  28  29
HETATM   29  C   UNL     1     -46.077  59.393 -45.226  1.00  0.00    -0.018 C 
HETATM   30  C   UNL     1     -47.166  58.762 -45.687  1.00  0.00     0.008 C 
ENDBRANCH  28  29
ENDBRANCH  24  28
ENDBRANCH   4  22
TORSDOF 5
ENDMDL
MODEL 4
REMARK VINA RESULT:      -8.1      2.259      3.096
REMARK  5 active torsions:
REMARK  status: ('A' for Active; 'I' for Inactive)
REMARK    1  A    between atoms: C_9  and  C_10 
REMARK       I    between atoms: C_10  and  N_11 
REMARK    2  A    between atoms: N_11  and  C_12 
REMARK    3  A    between atoms: C_15  and  N_16 
REMARK       I    between atoms: N_16  and  C_17 
REMARK       I    between atoms: C_17  and  N_18 
REMARK    4  A    between atoms: N_18  and  C_19 
REMARK    5  A    between atoms: C_19  and  C_20 
ROOT
HETATM    1  C   UNL     1     -42.466  56.105 -55.606  1.00  0.00     0.035 A 
HETATM    2  C   UNL     1     -42.421  57.211 -56.451  1.00  0.00     0.032 A 
HETATM    3  C   UNL     1     -42.775  57.095 -57.805  1.00  0.00     0.032 A 
HETATM    4  C   UNL     1     -43.152  55.864 -58.341  1.00  0.00     0.036 A 
HETATM    5  C   UNL     1     -43.204  54.758 -57.485  1.00  0.00     0.032 A 
HETATM    6  C   UNL     1     -42.867  54.877 -56.132  1.00  0.00     0.032 A 
ENDROOT
BRANCH   1   7
HETATM    7  N   UNL     1     -42.164  56.152 -54.236  1.00  0.00    -0.322 N 
HETATM    8  C   UNL     1     -42.993  56.475 -53.178  1.00  0.00     0.277 C 
HETATM    9  O   UNL     1     -44.158  56.851 -53.257  1.00  0.00    -0.266 OA
HETATM   10  H   UNL     1     -41.220  55.910 -53.942  1.00  0.00     0.169 HD
BRANCH   8  11
HETATM   11  C   UNL     1     -42.302  56.320 -51.882  1.00  0.00     0.157 A 
HETATM   12  C   UNL     1     -41.460  55.247 -51.467  1.00  0.00     0.029 A 
HETATM   13  C   UNL     1     -41.010  54.033 -52.026  1.00  0.00     0.023 A 
HETATM   14  C   UNL     1     -41.039  55.591 -50.190  1.00  0.00     0.063 A 
HETATM   15  C   UNL     1     -40.150  53.206 -51.284  1.00  0.00    -0.061 A 
HETATM   16  C   UNL     1     -39.671  51.901 -51.852  1.00  0.00     0.048 C 
HETATM   17  C   UNL     1     -39.745  53.594 -50.000  1.00  0.00     0.009 A 
HETATM   18  C   UNL     1     -40.180  54.795 -49.427  1.00  0.00     0.032 A 
HETATM   19  N   UNL     1     -41.634  56.793 -49.924  1.00  0.00    -0.277 N 
HETATM   20  H   UNL     1     -41.547  57.344 -49.078  1.00  0.00     0.189 HD
HETATM   21  N   UNL     1     -42.416  57.260 -50.914  1.00  0.00    -0.168 NA
ENDBRANCH   8  11
ENDBRANCH   1   7
BRANCH   4  22
HETATM   22  N   UNL     1     -43.542  55.645 -59.675  1.00  0.00    -0.309 N 
HETATM   23  C   UNL     1     -44.740  55.617 -60.317  1.00  0.00     0.320 C 
HETATM   24  N   UNL     1     -45.831  56.098 -59.668  1.00  0.00    -0.339 N 
HETATM   25  O   UNL     1     -44.783  55.189 -61.470  1.00  0.00    -0.247 OA
HETATM   26  H   UNL     1     -45.633  56.888 -59.072  1.00  0.00     0.164 HD
HETATM   27  H   UNL     1     -42.802  55.393 -60.318  1.00  0.00     0.170 HD
BRANCH  24  28
HETATM   28  C   UNL     1     -47.103  56.146 -60.347  1.00  0.00     0.150 C 
BRANCH  28  29
HETATM   29  C   UNL     1     -47.375  57.524 -60.868  1.00  0.00    -0.018 C 
HETATM   30  C   UNL     1     -48.222  57.863 -61.851  1.00  0.00     0.008 C 
ENDBRANCH  28  29
ENDBRANCH  24  28
ENDBRANCH   4  22
TORSDOF 5
ENDMDL
MODEL 5
REMARK VINA RESULT:      -8.0      2.800      3.491
REMARK  5 active torsions:
REMARK  status: ('A' for Active; 'I' for Inactive)
REMARK    1  A    between atoms: C_9  and  C_10 
REMARK       I    between atoms: C_10  and  N_11 
REMARK    2  A    between atoms: N_11  and  C_12 
REMARK    3  A    between atoms: C_15  and  N_16 
REMARK       I    between atoms: N_16  and  C_17 
REMARK       I    between atoms: C_17  and  N_18 
REMARK    4  A    between atoms: N_18  and  C_19 
REMARK    5  A    between atoms: C_19  and  C_20 
ROOT
HETATM    1  C   UNL     1     -42.947  56.463 -56.629  1.00  0.00     0.035 A 
HETATM    2  C   UNL     1     -42.842  55.887 -57.893  1.00  0.00     0.032 A 
HETATM    3  C   UNL     1     -43.303  56.566 -59.032  1.00  0.00     0.032 A 
HETATM    4  C   UNL     1     -43.901  57.820 -58.922  1.00  0.00     0.036 A 
HETATM    5  C   UNL     1     -43.996  58.399 -57.651  1.00  0.00     0.032 A 
HETATM    6  C   UNL     1     -43.523  57.729 -56.517  1.00  0.00     0.032 A 
ENDROOT
BRANCH   1   7
HETATM    7  N   UNL     1     -42.476  55.863 -55.451  1.00  0.00    -0.322 N 
HETATM    8  C   UNL     1     -42.789  54.622 -54.929  1.00  0.00     0.277 C 
HETATM    9  O   UNL     1     -43.605  53.828 -55.382  1.00  0.00    -0.266 OA
HETATM   10  H   UNL     1     -41.803  56.375 -54.886  1.00  0.00     0.169 HD
BRANCH   8  11
HETATM   11  C   UNL     1     -42.007  54.337 -53.708  1.00  0.00     0.157 A 
HETATM   12  C   UNL     1     -41.153  53.222 -53.461  1.00  0.00     0.029 A 
HETATM   13  C   UNL     1     -40.763  52.065 -54.165  1.00  0.00     0.023 A 
HETATM   14  C   UNL     1     -40.636  53.438 -52.190  1.00  0.00     0.063 A 
HETATM   15  C   UNL     1     -39.863  51.164 -53.571  1.00  0.00    -0.061 A 
HETATM   16  C   UNL     1     -39.445  49.917 -54.296  1.00  0.00     0.048 C 
HETATM   17  C   UNL     1     -39.361  51.423 -52.289  1.00  0.00     0.009 A 
HETATM   18  C   UNL     1     -39.735  52.566 -51.573  1.00  0.00     0.032 A 
HETATM   19  N   UNL     1     -41.192  54.613 -51.768  1.00  0.00    -0.277 N 
HETATM   20  H   UNL     1     -41.036  55.079 -50.881  1.00  0.00     0.189 HD
HETATM   21  N   UNL     1     -42.037  55.179 -52.648  1.00  0.00    -0.168 NA
ENDBRANCH   8  11
ENDBRANCH   1   7
BRANCH   4  22
HETATM   22  N   UNL     1     -44.378  58.590 -60.000  1.00  0.00    -0.309 N 
HETATM   23  C   UNL     1     -43.832  59.556 -60.785  1.00  0.00     0.320 C 
HETATM   24  N   UNL     1     -42.487  59.738 -60.742  1.00  0.00    -0.339 N 
HETATM   25  O   UNL     1     -44.571  60.202 -61.527  1.00  0.00    -0.247 OA
HETATM   26  H   UNL     1     -41.966  58.884 -60.612  1.00  0.00     0.164 HD
HETATM   27  H   UNL     1     -45.355  58.468 -60.234  1.00  0.00     0.170 HD
BRANCH  24  28
HETATM   28  C   UNL     1     -41.869  60.708 -61.615  1.00  0.00     0.150 C 
BRANCH  28  29
HETATM   29  C   UNL     1     -41.318  61.856 -60.825  1.00  0.00    -0.018 C 
HETATM   30  C   UNL     1     -41.091  61.892 -59.504  1.00  0.00     0.008 C 
ENDBRANCH  28  29
ENDBRANCH  24  28
ENDBRANCH   4  22
TORSDOF 5
ENDMDL
MODEL 6
REMARK VINA RESULT:      -7.9      5.016      7.233
REMARK  5 active torsions:
REMARK  status: ('A' for Active; 'I' for Inactive)
REMARK    1  A    between atoms: C_9  and  C_10 
REMARK       I    between atoms: C_10  and  N_11 
REMARK    2  A    between atoms: N_11  and  C_12 
REMARK    3  A    between atoms: C_15  and  N_16 
REMARK       I    between atoms: N_16  and  C_17 
REMARK       I    between atoms: C_17  and  N_18 
REMARK    4  A    between atoms: N_18  and  C_19 
REMARK    5  A    between atoms: C_19  and  C_20 
ROOT
HETATM    1  C   UNL     1     -41.544  57.431 -50.850  1.00  0.00     0.035 A 
HETATM    2  C   UNL     1     -40.742  58.456 -50.353  1.00  0.00     0.032 A 
HETATM    3  C   UNL     1     -41.228  59.770 -50.266  1.00  0.00     0.032 A 
HETATM    4  C   UNL     1     -42.515  60.085 -50.700  1.00  0.00     0.036 A 
HETATM    5  C   UNL     1     -43.320  59.051 -51.190  1.00  0.00     0.032 A 
HETATM    6  C   UNL     1     -42.842  57.738 -51.263  1.00  0.00     0.032 A 
ENDROOT
BRANCH   1   7
HETATM    7  N   UNL     1     -41.142  56.089 -50.933  1.00  0.00    -0.322 N 
HETATM    8  C   UNL     1     -41.016  55.160 -49.916  1.00  0.00     0.277 C 
HETATM    9  O   UNL     1     -41.177  55.368 -48.719  1.00  0.00    -0.266 OA
HETATM   10  H   UNL     1     -40.916  55.710 -51.849  1.00  0.00     0.169 HD
BRANCH   8  11
HETATM   11  C   UNL     1     -40.644  53.831 -50.442  1.00  0.00     0.157 A 
HETATM   12  C   UNL     1     -40.459  53.454 -51.805  1.00  0.00     0.029 A 
HETATM   13  C   UNL     1     -40.561  54.091 -53.059  1.00  0.00     0.023 A 
HETATM   14  C   UNL     1     -40.090  52.116 -51.763  1.00  0.00     0.063 A 
HETATM   15  C   UNL     1     -40.286  53.364 -54.229  1.00  0.00    -0.061 A 
HETATM   16  C   UNL     1     -40.403  54.017 -55.576  1.00  0.00     0.048 C 
HETATM   17  C   UNL     1     -39.911  52.017 -54.141  1.00  0.00     0.009 A 
HETATM   18  C   UNL     1     -39.803  51.366 -52.906  1.00  0.00     0.032 A 
HETATM   19  N   UNL     1     -40.084  51.784 -50.437  1.00  0.00    -0.277 N 
HETATM   20  H   UNL     1     -39.857  50.882 -50.034  1.00  0.00     0.189 HD
HETATM   21  N   UNL     1     -40.428  52.787 -49.608  1.00  0.00    -0.168 NA
ENDBRANCH   8  11
ENDBRANCH   1   7
BRANCH   4  22
HETATM   22  N   UNL     1     -43.102  61.363 -50.639  1.00  0.00    -0.309 N 
HETATM   23  C   UNL     1     -43.970  61.964 -49.782  1.00  0.00     0.320 C 
HETATM   24  N   UNL     1     -44.214  61.366 -48.588  1.00  0.00    -0.339 N 
HETATM   25  O   UNL     1     -44.471  63.040 -50.107  1.00  0.00    -0.247 OA
HETATM   26  H   UNL     1     -43.411  60.898 -48.196  1.00  0.00     0.164 HD
HETATM   27  H   UNL     1     -42.905  61.980 -51.418  1.00  0.00     0.170 HD
BRANCH  24  28
HETATM   28  C   UNL     1     -45.076  62.014 -47.629  1.00  0.00     0.150 C 
BRANCH  28  29
HETATM   29  C   UNL     1     -45.535  61.041 -46.586  1.00  0.00    -0.018 C 
HETATM   30  C   UNL     1     -46.796  60.825 -46.183  1.00  0.00     0.008 C 
ENDBRANCH  28  29
ENDBRANCH  24  28
ENDBRANCH   4  22
TORSDOF 5
ENDMDL
MODEL 7
REMARK VINA RESULT:      -7.8      2.262      2.861
REMARK  5 active torsions:
REMARK  status: ('A' for Active; 'I' for Inactive)
REMARK    1  A    between atoms: C_9  and  C_10 
REMARK       I    between atoms: C_10  and  N_11 
REMARK    2  A    between atoms: N_11  and  C_12 
REMARK    3  A    between atoms: C_15  and  N_16 
REMARK       I    between atoms: N_16  and  C_17 
REMARK       I    between atoms: C_17  and  N_18 
REMARK    4  A    between atoms: N_18  and  C_19 
REMARK    5  A    between atoms: C_19  and  C_20 
ROOT
HETATM    1  C   UNL     1     -42.797  55.747 -55.744  1.00  0.00     0.035 A 
HETATM    2  C   UNL     1     -42.778  55.206 -57.027  1.00  0.00     0.032 A 
HETATM    3  C   UNL     1     -43.344  55.902 -58.108  1.00  0.00     0.032 A 
HETATM    4  C   UNL     1     -43.963  57.136 -57.917  1.00  0.00     0.036 A 
HETATM    5  C   UNL     1     -43.972  57.680 -56.627  1.00  0.00     0.032 A 
HETATM    6  C   UNL     1     -43.394  56.994 -55.552  1.00  0.00     0.032 A 
ENDROOT
BRANCH   1   7
HETATM    7  N   UNL     1     -42.220  55.130 -54.623  1.00  0.00    -0.322 N 
HETATM    8  C   UNL     1     -41.157  55.560 -53.851  1.00  0.00     0.277 C 
HETATM    9  O   UNL     1     -40.469  56.555 -54.052  1.00  0.00    -0.266 OA
HETATM   10  H   UNL     1     -42.618  54.252 -54.298  1.00  0.00     0.169 HD
BRANCH   8  11
HETATM   11  C   UNL     1     -40.918  54.655 -52.708  1.00  0.00     0.157 A 
HETATM   12  C   UNL     1     -40.490  53.296 -52.749  1.00  0.00     0.029 A 
HETATM   13  C   UNL     1     -40.181  52.357 -53.754  1.00  0.00     0.023 A 
HETATM   14  C   UNL     1     -40.387  52.909 -51.419  1.00  0.00     0.063 A 
HETATM   15  C   UNL     1     -39.776  51.062 -53.391  1.00  0.00    -0.061 A 
HETATM   16  C   UNL     1     -39.456  50.040 -54.445  1.00  0.00     0.048 C 
HETATM   17  C   UNL     1     -39.680  50.715 -52.037  1.00  0.00     0.009 A 
HETATM   18  C   UNL     1     -39.982  51.632 -51.023  1.00  0.00     0.032 A 
HETATM   19  N   UNL     1     -40.751  54.009 -50.694  1.00  0.00    -0.277 N 
HETATM   20  H   UNL     1     -40.790  54.090 -49.684  1.00  0.00     0.189 HD
HETATM   21  N   UNL     1     -41.093  55.079 -51.434  1.00  0.00    -0.168 NA
ENDBRANCH   8  11
ENDBRANCH   1   7
BRANCH   4  22
HETATM   22  N   UNL     1     -44.542  57.920 -58.932  1.00  0.00    -0.309 N 
HETATM   23  C   UNL     1     -44.051  58.813 -59.833  1.00  0.00     0.320 C 
HETATM   24  N   UNL     1     -42.707  58.871 -60.015  1.00  0.00    -0.339 N 
HETATM   25  O   UNL     1     -44.843  59.505 -60.470  1.00  0.00    -0.247 OA
HETATM   26  H   UNL     1     -42.247  57.976 -59.938  1.00  0.00     0.164 HD
HETATM   27  H   UNL     1     -45.551  57.883 -59.001  1.00  0.00     0.170 HD
BRANCH  24  28
HETATM   28  C   UNL     1     -42.160  59.758 -61.013  1.00  0.00     0.150 C 
BRANCH  28  29
HETATM   29  C   UNL     1     -41.630  61.008 -60.378  1.00  0.00    -0.018 C 
HETATM   30  C   UNL     1     -41.265  62.138 -61.002  1.00  0.00     0.008 C 
ENDBRANCH  28  29
ENDBRANCH  24  28
ENDBRANCH   4  22
TORSDOF 5
ENDMDL
MODEL 8
REMARK VINA RESULT:      -7.8      1.682      1.868
REMARK  5 active torsions:
REMARK  status: ('A' for Active; 'I' for Inactive)
REMARK    1  A    between atoms: C_9  and  C_10 
REMARK       I    between atoms: C_10  and  N_11 
REMARK    2  A    between atoms: N_11  and  C_12 
REMARK    3  A    between atoms: C_15  and  N_16 
REMARK       I    between atoms: N_16  and  C_17 
REMARK       I    between atoms: C_17  and  N_18 
REMARK    4  A    between atoms: N_18  and  C_19 
REMARK    5  A    between atoms: C_19  and  C_20 
ROOT
HETATM    1  C   UNL     1     -42.305  56.924 -55.774  1.00  0.00     0.035 A 
HETATM    2  C   UNL     1     -42.551  58.293 -55.694  1.00  0.00     0.032 A 
HETATM    3  C   UNL     1     -42.979  59.011 -56.822  1.00  0.00     0.032 A 
HETATM    4  C   UNL     1     -43.140  58.378 -58.053  1.00  0.00     0.036 A 
HETATM    5  C   UNL     1     -42.900  57.001 -58.126  1.00  0.00     0.032 A 
HETATM    6  C   UNL     1     -42.489  56.281 -56.999  1.00  0.00     0.032 A 
ENDROOT
BRANCH   1   7
HETATM    7  N   UNL     1     -41.912  56.132 -54.683  1.00  0.00    -0.322 N 
HETATM    8  C   UNL     1     -42.609  55.115 -54.058  1.00  0.00     0.277 C 
HETATM    9  O   UNL     1     -43.753  54.755 -54.313  1.00  0.00    -0.266 OA
HETATM   10  H   UNL     1     -40.993  56.292 -54.279  1.00  0.00     0.169 HD
BRANCH   8  11
HETATM   11  C   UNL     1     -41.801  54.478 -52.998  1.00  0.00     0.157 A 
HETATM   12  C   UNL     1     -41.073  53.254 -53.075  1.00  0.00     0.029 A 
HETATM   13  C   UNL     1     -40.863  52.256 -54.048  1.00  0.00     0.023 A 
HETATM   14  C   UNL     1     -40.464  53.118 -51.835  1.00  0.00     0.063 A 
HETATM   15  C   UNL     1     -40.046  51.154 -53.744  1.00  0.00    -0.061 A 
HETATM   16  C   UNL     1     -39.819  50.071 -54.759  1.00  0.00     0.048 C 
HETATM   17  C   UNL     1     -39.446  51.059 -52.481  1.00  0.00     0.009 A 
HETATM   18  C   UNL     1     -39.641  52.039 -51.501  1.00  0.00     0.032 A 
HETATM   19  N   UNL     1     -40.853  54.214 -51.118  1.00  0.00    -0.277 N 
HETATM   20  H   UNL     1     -40.594  54.446 -50.165  1.00  0.00     0.189 HD
HETATM   21  N   UNL     1     -41.672  55.052 -51.779  1.00  0.00    -0.168 NA
ENDBRANCH   8  11
ENDBRANCH   1   7
BRANCH   4  22
HETATM   22  N   UNL     1     -43.580  59.002 -59.236  1.00  0.00    -0.309 N 
HETATM   23  C   UNL     1     -44.719  58.929 -59.975  1.00  0.00     0.320 C 
HETATM   24  N   UNL     1     -45.802  58.318 -59.431  1.00  0.00    -0.339 N 
HETATM   25  O   UNL     1     -44.733  59.447 -61.091  1.00  0.00    -0.247 OA
HETATM   26  H   UNL     1     -45.893  58.462 -58.437  1.00  0.00     0.164 HD
HETATM   27  H   UNL     1     -42.907  59.600 -59.699  1.00  0.00     0.170 HD
BRANCH  24  28
HETATM   28  C   UNL     1     -47.045  58.285 -60.163  1.00  0.00     0.150 C 
BRANCH  28  29
HETATM   29  C   UNL     1     -47.289  56.921 -60.735  1.00  0.00    -0.018 C 
HETATM   30  C   UNL     1     -47.982  56.623 -61.843  1.00  0.00     0.008 C 
ENDBRANCH  28  29
ENDBRANCH  24  28
ENDBRANCH   4  22
TORSDOF 5
ENDMDL
MODEL 9
REMARK VINA RESULT:      -7.5     15.215     16.741
REMARK  5 active torsions:
REMARK  status: ('A' for Active; 'I' for Inactive)
REMARK    1  A    between atoms: C_9  and  C_10 
REMARK       I    between atoms: C_10  and  N_11 
REMARK    2  A    between atoms: N_11  and  C_12 
REMARK    3  A    between atoms: C_15  and  N_16 
REMARK       I    between atoms: N_16  and  C_17 
REMARK       I    between atoms: C_17  and  N_18 
REMARK    4  A    between atoms: N_18  and  C_19 
REMARK    5  A    between atoms: C_19  and  C_20 
ROOT
HETATM    1  C   UNL     1     -35.080  41.209 -54.727  1.00  0.00     0.035 A 
HETATM    2  C   UNL     1     -36.406  40.819 -54.900  1.00  0.00     0.032 A 
HETATM    3  C   UNL     1     -37.105  41.153 -56.071  1.00  0.00     0.032 A 
HETATM    4  C   UNL     1     -36.498  41.906 -57.074  1.00  0.00     0.036 A 
HETATM    5  C   UNL     1     -35.164  42.289 -56.900  1.00  0.00     0.032 A 
HETATM    6  C   UNL     1     -34.461  41.942 -55.740  1.00  0.00     0.032 A 
ENDROOT
BRANCH   1   7
HETATM    7  N   UNL     1     -34.305  40.881 -53.603  1.00  0.00    -0.322 N 
HETATM    8  C   UNL     1     -34.450  41.312 -52.297  1.00  0.00     0.277 C 
HETATM    9  O   UNL     1     -35.266  42.131 -51.889  1.00  0.00    -0.266 OA
HETATM   10  H   UNL     1     -33.532  40.232 -53.725  1.00  0.00     0.169 HD
BRANCH   8  11
HETATM   11  C   UNL     1     -33.473  40.660 -51.402  1.00  0.00     0.157 A 
HETATM   12  C   UNL     1     -33.743  39.814 -50.287  1.00  0.00     0.029 A 
HETATM   13  C   UNL     1     -34.895  39.325 -49.637  1.00  0.00     0.023 A 
HETATM   14  C   UNL     1     -32.495  39.440 -49.806  1.00  0.00     0.063 A 
HETATM   15  C   UNL     1     -34.756  38.475 -48.527  1.00  0.00    -0.061 A 
HETATM   16  C   UNL     1     -35.968  37.955 -47.810  1.00  0.00     0.048 C 
HETATM   17  C   UNL     1     -33.477  38.119 -48.078  1.00  0.00     0.009 A 
HETATM   18  C   UNL     1     -32.321  38.593 -48.709  1.00  0.00     0.032 A 
HETATM   19  N   UNL     1     -31.592  40.065 -50.620  1.00  0.00    -0.277 N 
HETATM   20  H   UNL     1     -30.581  40.015 -50.563  1.00  0.00     0.189 HD
HETATM   21  N   UNL     1     -32.142  40.822 -51.586  1.00  0.00    -0.168 NA
ENDBRANCH   8  11
ENDBRANCH   1   7
BRANCH   4  22
HETATM   22  N   UNL     1     -37.104  42.278 -58.289  1.00  0.00    -0.309 N 
HETATM   23  C   UNL     1     -37.238  41.675 -59.501  1.00  0.00     0.320 C 
HETATM   24  N   UNL     1     -36.951  40.352 -59.598  1.00  0.00    -0.339 N 
HETATM   25  O   UNL     1     -37.647  42.342 -60.450  1.00  0.00    -0.247 OA
HETATM   26  H   UNL     1     -37.198  39.821 -58.776  1.00  0.00     0.164 HD
HETATM   27  H   UNL     1     -37.483  43.215 -58.328  1.00  0.00     0.170 HD
BRANCH  24  28
HETATM   28  C   UNL     1     -37.150  39.668 -60.853  1.00  0.00     0.150 C 
BRANCH  28  29
HETATM   29  C   UNL     1     -38.267  38.675 -60.745  1.00  0.00    -0.018 C 
HETATM   30  C   UNL     1     -39.028  38.431 -59.669  1.00  0.00     0.008 C 
ENDBRANCH  28  29
ENDBRANCH  24  28
ENDBRANCH   4  22
TORSDOF 5
ENDMDL
MODEL 10
REMARK VINA RESULT:      -7.4      4.313      5.692
REMARK  5 active torsions:
REMARK  status: ('A' for Active; 'I' for Inactive)
REMARK    1  A    between atoms: C_9  and  C_10 
REMARK       I    between atoms: C_10  and  N_11 
REMARK    2  A    between atoms: N_11  and  C_12 
REMARK    3  A    between atoms: C_15  and  N_16 
REMARK       I    between atoms: N_16  and  C_17 
REMARK       I    between atoms: C_17  and  N_18 
REMARK    4  A    between atoms: N_18  and  C_19 
REMARK    5  A    between atoms: C_19  and  C_20 
ROOT
HETATM    1  C   UNL     1     -41.902  57.279 -52.233  1.00  0.00     0.035 A 
HETATM    2  C   UNL     1     -43.202  57.654 -52.568  1.00  0.00     0.032 A 
HETATM    3  C   UNL     1     -43.479  58.953 -53.023  1.00  0.00     0.032 A 
HETATM    4  C   UNL     1     -42.466  59.906 -53.124  1.00  0.00     0.036 A 
HETATM    5  C   UNL     1     -41.161  59.522 -52.795  1.00  0.00     0.032 A 
HETATM    6  C   UNL     1     -40.881  58.223 -52.356  1.00  0.00     0.032 A 
ENDROOT
BRANCH   1   7
HETATM    7  N   UNL     1     -41.542  55.991 -51.808  1.00  0.00    -0.322 N 
HETATM    8  C   UNL     1     -40.975  54.966 -52.542  1.00  0.00     0.277 C 
HETATM    9  O   UNL     1     -40.739  54.978 -53.744  1.00  0.00    -0.266 OA
HETATM   10  H   UNL     1     -41.692  55.747 -50.832  1.00  0.00     0.169 HD
BRANCH   8  11
HETATM   11  C   UNL     1     -40.675  53.795 -51.692  1.00  0.00     0.157 A 
HETATM   12  C   UNL     1     -40.306  52.484 -52.114  1.00  0.00     0.029 A 
HETATM   13  C   UNL     1     -40.120  51.828 -53.348  1.00  0.00     0.023 A 
HETATM   14  C   UNL     1     -40.105  51.770 -50.940  1.00  0.00     0.063 A 
HETATM   15  C   UNL     1     -39.736  50.477 -53.362  1.00  0.00    -0.061 A 
HETATM   16  C   UNL     1     -39.547  49.753 -54.665  1.00  0.00     0.048 C 
HETATM   17  C   UNL     1     -39.538  49.795 -52.154  1.00  0.00     0.009 A 
HETATM   18  C   UNL     1     -39.717  50.428 -50.919  1.00  0.00     0.032 A 
HETATM   19  N   UNL     1     -40.362  52.654 -49.930  1.00  0.00    -0.277 N 
HETATM   20  H   UNL     1     -40.312  52.475 -48.933  1.00  0.00     0.189 HD
HETATM   21  N   UNL     1     -40.724  53.883 -50.342  1.00  0.00    -0.168 NA
ENDBRANCH   8  11
ENDBRANCH   1   7
BRANCH   4  22
HETATM   22  N   UNL     1     -42.636  61.225 -53.584  1.00  0.00    -0.309 N 
HETATM   23  C   UNL     1     -43.190  62.347 -53.053  1.00  0.00     0.320 C 
HETATM   24  N   UNL     1     -43.477  62.359 -51.726  1.00  0.00    -0.339 N 
HETATM   25  O   UNL     1     -43.379  63.317 -53.787  1.00  0.00    -0.247 OA
HETATM   26  H   UNL     1     -42.814  61.848 -51.163  1.00  0.00     0.164 HD
HETATM   27  H   UNL     1     -42.346  61.403 -54.538  1.00  0.00     0.170 HD
BRANCH  24  28
HETATM   28  C   UNL     1     -44.002  63.558 -51.120  1.00  0.00     0.150 C 
BRANCH  28  29
HETATM   29  C   UNL     1     -44.705  63.240 -49.835  1.00  0.00    -0.018 C 
HETATM   30  C   UNL     1     -44.440  62.224 -49.001  1.00  0.00     0.008 C 
ENDBRANCH  28  29
ENDBRANCH  24  28
ENDBRANCH   4  22
TORSDOF 5
ENDMDL
