MODEL 1
REMARK VINA RESULT:      -9.9      0.000      0.000
REMARK  6 active torsions:
REMARK  status: ('A' for Active; 'I' for Inactive)
REMARK    1  A    between atoms: C_4  and  C_5 
REMARK    2  A    between atoms: C_5  and  N_6 
REMARK       I    between atoms: N_6  and  C_7 
REMARK    3  A    between atoms: C_7  and  C_8 
REMARK    4  A    between atoms: C_9  and  N_10 
REMARK    5  A    between atoms: N_11  and  N_12 
REMARK    6  A    between atoms: C_13  and  C_14 
ROOT
HETATM    1  C   UNL     1     -42.332  56.158 -51.796  1.00  0.00     0.104 C 
HETATM    2  C   UNL     1     -43.211  55.639 -52.740  1.00  0.00     0.123 C 
HETATM    3  N   UNL     1     -43.541  56.691 -53.593  1.00  0.00    -0.202 N 
HETATM    4  C   UNL     1     -43.434  57.852 -52.854  1.00  0.00     0.183 A 
HETATM    5  C   UNL     1     -42.600  57.556 -51.774  1.00  0.00     0.124 A 
HETATM    6  N   UNL     1     -42.159  58.540 -50.948  1.00  0.00    -0.242 NA
HETATM    7  C   UNL     1     -42.655  59.762 -51.208  1.00  0.00     0.086 A 
HETATM    8  C   UNL     1     -43.536  60.022 -52.294  1.00  0.00     0.088 A 
HETATM    9  N   UNL     1     -43.916  59.076 -53.166  1.00  0.00    -0.225 NA
HETATM   10  C   UNL     1     -42.298  60.812 -50.373  1.00  0.00     0.034 A 
HETATM   11  C   UNL     1     -42.800  62.101 -50.562  1.00  0.00     0.002 A 
HETATM   12  C   UNL     1     -43.676  62.349 -51.608  1.00  0.00     0.002 A 
HETATM   13  C   UNL     1     -44.031  61.309 -52.466  1.00  0.00     0.034 A 
ENDROOT
BRANCH   3  14
HETATM   14  N   UNL     1     -43.809  56.606 -54.942  1.00  0.00    -0.176 NA
HETATM   15  C   UNL     1     -42.724  56.694 -55.647  1.00  0.00     0.153 C 
BRANCH  15  16
HETATM   16  C   UNL     1     -42.719  56.690 -57.087  1.00  0.00     0.011 A 
HETATM   17  C   UNL     1     -42.446  57.821 -57.921  1.00  0.00     0.004 A 
HETATM   18  C   UNL     1     -42.668  57.428 -59.239  1.00  0.00     0.043 A 
HETATM   19  C   UNL     1     -42.051  59.156 -57.672  1.00  0.00     0.014 A 
HETATM   20  C   UNL     1     -42.533  58.308 -60.320  1.00  0.00     0.030 A 
HETATM   21  N   UNL     1     -43.022  56.097 -59.209  1.00  0.00    -0.364 N 
HETATM   22  C   UNL     1     -42.146  59.622 -60.047  1.00  0.00     0.002 A 
HETATM   23  C   UNL     1     -41.900  60.042 -58.743  1.00  0.00     0.001 A 
HETATM   24  H   UNL     1     -43.256  55.548 -60.024  1.00  0.00     0.165 HD
HETATM   25  C   UNL     1     -43.038  55.637 -57.919  1.00  0.00     0.102 A 
ENDBRANCH  15  16
ENDBRANCH   3  14
BRANCH   2  26
HETATM   26  N   UNL     1     -43.604  54.351 -52.996  1.00  0.00    -0.286 NA
HETATM   27  H   UNL     1     -43.267  53.638 -52.343  1.00  0.00     0.125 HD
HETATM   28  H   UNL     1     -44.607  54.211 -53.156  1.00  0.00     0.125 HD
ENDBRANCH   2  26
BRANCH   1  29
HETATM   29  C   UNL     1     -41.353  55.382 -51.039  1.00  0.00     0.257 C 
HETATM   30  N   UNL     1     -41.164  54.122 -51.573  1.00  0.00    -0.352 N 
HETATM   31  H   UNL     1     -41.603  53.970 -52.470  1.00  0.00     0.163 HD
HETATM   32  O   UNL     1     -40.701  55.819 -50.100  1.00  0.00    -0.267 OA
BRANCH  30  33
HETATM   33  C   UNL     1     -40.028  53.291 -51.262  1.00  0.00     0.161 C 
BRANCH  33  34
HETATM   34  C   UNL     1     -39.912  52.055 -52.134  1.00  0.00    -0.041 A 
HETATM   35  C   UNL     1     -39.593  50.774 -51.649  1.00  0.00     0.009 A 
HETATM   36  C   UNL     1     -39.517  49.674 -52.509  1.00  0.00     0.001 A 
HETATM   37  C   UNL     1     -39.770  49.832 -53.867  1.00  0.00     0.000 A 
HETATM   38  C   UNL     1     -40.107  51.088 -54.366  1.00  0.00     0.001 A 
HETATM   39  C   UNL     1     -40.182  52.188 -53.507  1.00  0.00     0.009 A 
ENDBRANCH  33  34
ENDBRANCH  30  33
ENDBRANCH   1  29
TORSDOF 6
ENDMDL
MODEL 2
REMARK VINA RESULT:      -9.9      1.686      8.487
REMARK  6 active torsions:
REMARK  status: ('A' for Active; 'I' for Inactive)
REMARK    1  A    between atoms: C_4  and  C_5 
REMARK    2  A    between atoms: C_5  and  N_6 
REMARK       I    between atoms: N_6  and  C_7 
REMARK    3  A    between atoms: C_7  and  C_8 
REMARK    4  A    between atoms: C_9  and  N_10 
REMARK    5  A    between atoms: N_11  and  N_12 
REMARK    6  A    between atoms: C_13  and  C_14 
ROOT
HETATM    1  C   UNL     1     -42.247  58.038 -53.079  1.00  0.00     0.104 C 
HETATM    2  C   UNL     1     -42.755  57.004 -52.300  1.00  0.00     0.123 C 
HETATM    3  N   UNL     1     -42.660  55.845 -53.069  1.00  0.00    -0.202 N 
HETATM    4  C   UNL     1     -42.739  56.237 -54.390  1.00  0.00     0.183 A 
HETATM    5  C   UNL     1     -42.389  57.588 -54.423  1.00  0.00     0.124 A 
HETATM    6  N   UNL     1     -42.206  58.229 -55.606  1.00  0.00    -0.242 NA
HETATM    7  C   UNL     1     -42.470  57.490 -56.697  1.00  0.00     0.086 A 
HETATM    8  C   UNL     1     -42.863  56.126 -56.628  1.00  0.00     0.088 A 
HETATM    9  N   UNL     1     -42.971  55.457 -55.470  1.00  0.00    -0.225 NA
HETATM   10  C   UNL     1     -42.362  58.091 -57.945  1.00  0.00     0.034 A 
HETATM   11  C   UNL     1     -42.652  57.395 -59.119  1.00  0.00     0.002 A 
HETATM   12  C   UNL     1     -43.057  56.070 -59.049  1.00  0.00     0.002 A 
HETATM   13  C   UNL     1     -43.153  55.448 -57.805  1.00  0.00     0.034 A 
ENDROOT
BRANCH   3  14
HETATM   14  N   UNL     1     -42.417  54.569 -52.611  1.00  0.00    -0.176 NA
HETATM   15  C   UNL     1     -41.185  54.428 -52.232  1.00  0.00     0.153 C 
BRANCH  15  16
HETATM   16  C   UNL     1     -40.645  53.179 -51.760  1.00  0.00     0.011 A 
HETATM   17  C   UNL     1     -40.267  52.072 -52.585  1.00  0.00     0.004 A 
HETATM   18  C   UNL     1     -39.917  51.023 -51.738  1.00  0.00     0.043 A 
HETATM   19  C   UNL     1     -40.212  51.859 -53.982  1.00  0.00     0.014 A 
HETATM   20  C   UNL     1     -39.534  49.764 -52.216  1.00  0.00     0.030 A 
HETATM   21  N   UNL     1     -40.039  51.489 -50.447  1.00  0.00    -0.364 N 
HETATM   22  C   UNL     1     -39.492  49.578 -53.600  1.00  0.00     0.002 A 
HETATM   23  C   UNL     1     -39.819  50.611 -54.474  1.00  0.00     0.001 A 
HETATM   24  H   UNL     1     -39.863  50.937 -49.620  1.00  0.00     0.165 HD
HETATM   25  C   UNL     1     -40.459  52.794 -50.449  1.00  0.00     0.102 A 
ENDBRANCH  15  16
ENDBRANCH   3  14
BRANCH   2  26
HETATM   26  N   UNL     1     -43.129  56.967 -50.982  1.00  0.00    -0.286 NA
HETATM   27  H   UNL     1     -43.831  57.654 -50.692  1.00  0.00     0.125 HD
HETATM   28  H   UNL     1     -43.392  56.046 -50.615  1.00  0.00     0.125 HD
ENDBRANCH   2  26
BRANCH   1  29
HETATM   29  C   UNL     1     -41.684  59.283 -52.564  1.00  0.00     0.257 C 
HETATM   30  N   UNL     1     -42.536  59.912 -51.677  1.00  0.00    -0.352 N 
HETATM   31  H   UNL     1     -43.341  59.367 -51.402  1.00  0.00     0.163 HD
HETATM   32  O   UNL     1     -40.553  59.682 -52.808  1.00  0.00    -0.267 OA
BRANCH  30  33
HETATM   33  C   UNL     1     -42.110  60.940 -50.762  1.00  0.00     0.161 C 
BRANCH  33  34
HETATM   34  C   UNL     1     -43.253  61.702 -50.118  1.00  0.00    -0.041 A 
HETATM   35  C   UNL     1     -44.414  61.097 -49.604  1.00  0.00     0.009 A 
HETATM   36  C   UNL     1     -45.424  61.860 -49.009  1.00  0.00     0.001 A 
HETATM   37  C   UNL     1     -45.286  63.240 -48.906  1.00  0.00     0.000 A 
HETATM   38  C   UNL     1     -44.136  63.857 -49.390  1.00  0.00     0.001 A 
HETATM   39  C   UNL     1     -43.127  63.095 -49.986  1.00  0.00     0.009 A 
ENDBRANCH  33  34
ENDBRANCH  30  33
ENDBRANCH   1  29
TORSDOF 6
ENDMDL
MODEL 3
REMARK VINA RESULT:      -9.8      2.513      6.941
REMARK  6 active torsions:
REMARK  status: ('A' for Active; 'I' for Inactive)
REMARK    1  A    between atoms: C_4  and  C_5 
REMARK    2  A    between atoms: C_5  and  N_6 
REMARK       I    between atoms: N_6  and  C_7 
REMARK    3  A    between atoms: C_7  and  C_8 
REMARK    4  A    between atoms: C_9  and  N_10 
REMARK    5  A    between atoms: N_11  and  N_12 
REMARK    6  A    between atoms: C_13  and  C_14 
ROOT
HETATM    1  C   UNL     1     -41.479  57.477 -51.113  1.00  0.00     0.104 C 
HETATM    2  C   UNL     1     -41.413  58.742 -50.539  1.00  0.00     0.123 C 
HETATM    3  N   UNL     1     -42.181  59.582 -51.344  1.00  0.00    -0.202 N 
HETATM    4  C   UNL     1     -42.142  59.057 -52.620  1.00  0.00     0.183 A 
HETATM    5  C   UNL     1     -41.796  57.711 -52.482  1.00  0.00     0.124 A 
HETATM    6  N   UNL     1     -41.840  56.871 -53.548  1.00  0.00    -0.242 NA
HETATM    7  C   UNL     1     -42.150  57.456 -54.717  1.00  0.00     0.086 A 
HETATM    8  C   UNL     1     -42.459  58.839 -54.830  1.00  0.00     0.088 A 
HETATM    9  N   UNL     1     -42.498  59.665 -53.773  1.00  0.00    -0.225 NA
HETATM   10  C   UNL     1     -42.160  56.675 -55.866  1.00  0.00     0.034 A 
HETATM   11  C   UNL     1     -42.440  57.220 -57.120  1.00  0.00     0.002 A 
HETATM   12  C   UNL     1     -42.720  58.573 -57.231  1.00  0.00     0.002 A 
HETATM   13  C   UNL     1     -42.732  59.368 -56.085  1.00  0.00     0.034 A 
ENDROOT
BRANCH   3  14
HETATM   14  N   UNL     1     -42.930  60.662 -50.930  1.00  0.00    -0.176 NA
HETATM   15  C   UNL     1     -44.068  60.286 -50.434  1.00  0.00     0.153 C 
BRANCH  15  16
HETATM   16  C   UNL     1     -45.071  61.213 -49.975  1.00  0.00     0.011 A 
HETATM   17  C   UNL     1     -45.338  61.538 -48.607  1.00  0.00     0.004 A 
HETATM   18  C   UNL     1     -46.457  62.368 -48.589  1.00  0.00     0.043 A 
HETATM   19  C   UNL     1     -44.740  61.183 -47.376  1.00  0.00     0.014 A 
HETATM   20  C   UNL     1     -47.023  62.844 -47.399  1.00  0.00     0.030 A 
HETATM   21  N   UNL     1     -46.831  62.571 -49.899  1.00  0.00    -0.364 N 
HETATM   22  C   UNL     1     -46.416  62.475 -46.196  1.00  0.00     0.002 A 
HETATM   23  C   UNL     1     -45.286  61.662 -46.181  1.00  0.00     0.001 A 
HETATM   24  H   UNL     1     -47.624  63.124 -50.190  1.00  0.00     0.165 HD
HETATM   25  C   UNL     1     -45.990  61.895 -50.745  1.00  0.00     0.102 A 
ENDBRANCH  15  16
ENDBRANCH   3  14
BRANCH   2  26
HETATM   26  N   UNL     1     -40.891  59.164 -49.345  1.00  0.00    -0.286 NA
HETATM   27  H   UNL     1     -41.388  58.862 -48.502  1.00  0.00     0.125 HD
HETATM   28  H   UNL     1     -39.886  59.008 -49.212  1.00  0.00     0.125 HD
ENDBRANCH   2  26
BRANCH   1  29
HETATM   29  C   UNL     1     -41.278  56.217 -50.403  1.00  0.00     0.257 C 
HETATM   30  N   UNL     1     -41.048  55.164 -51.267  1.00  0.00    -0.352 N 
HETATM   31  H   UNL     1     -40.907  55.429 -52.232  1.00  0.00     0.163 HD
HETATM   32  O   UNL     1     -41.220  56.112 -49.185  1.00  0.00    -0.267 OA
BRANCH  30  33
HETATM   33  C   UNL     1     -40.473  53.909 -50.853  1.00  0.00     0.161 C 
BRANCH  33  34
HETATM   34  C   UNL     1     -40.273  52.920 -51.986  1.00  0.00    -0.041 A 
HETATM   35  C   UNL     1     -39.703  51.644 -51.829  1.00  0.00     0.009 A 
HETATM   36  C   UNL     1     -39.560  50.777 -52.916  1.00  0.00     0.001 A 
HETATM   37  C   UNL     1     -39.996  51.164 -54.179  1.00  0.00     0.000 A 
HETATM   38  C   UNL     1     -40.581  52.416 -54.353  1.00  0.00     0.001 A 
HETATM   39  C   UNL     1     -40.722  53.284 -53.267  1.00  0.00     0.009 A 
ENDBRANCH  33  34
ENDBRANCH  30  33
ENDBRANCH   1  29
TORSDOF 6
ENDMDL
MODEL 4
REMARK VINA RESULT:      -9.7      1.906      6.422
REMARK  6 active torsions:
REMARK  status: ('A' for Active; 'I' for Inactive)
REMARK    1  A    between atoms: C_4  and  C_5 
REMARK    2  A    between atoms: C_5  and  N_6 
REMARK       I    between atoms: N_6  and  C_7 
REMARK    3  A    between atoms: C_7  and  C_8 
REMARK    4  A    between atoms: C_9  and  N_10 
REMARK    5  A    between atoms: N_11  and  N_12 
REMARK    6  A    between atoms: C_13  and  C_14 
ROOT
HETATM    1  C   UNL     1     -41.511  56.704 -51.968  1.00  0.00     0.104 C 
HETATM    2  C   UNL     1     -41.382  58.036 -51.588  1.00  0.00     0.123 C 
HETATM    3  N   UNL     1     -42.224  58.768 -52.424  1.00  0.00    -0.202 N 
HETATM    4  C   UNL     1     -42.316  58.068 -53.610  1.00  0.00     0.183 A 
HETATM    5  C   UNL     1     -41.962  56.749 -53.317  1.00  0.00     0.124 A 
HETATM    6  N   UNL     1     -42.116  55.768 -54.243  1.00  0.00    -0.242 NA
HETATM    7  C   UNL     1     -42.540  56.188 -55.448  1.00  0.00     0.086 A 
HETATM    8  C   UNL     1     -42.853  57.546 -55.725  1.00  0.00     0.088 A 
HETATM    9  N   UNL     1     -42.783  58.513 -54.798  1.00  0.00    -0.225 NA
HETATM   10  C   UNL     1     -42.667  55.253 -56.467  1.00  0.00     0.034 A 
HETATM   11  C   UNL     1     -43.070  55.621 -57.752  1.00  0.00     0.002 A 
HETATM   12  C   UNL     1     -43.355  56.949 -58.026  1.00  0.00     0.002 A 
HETATM   13  C   UNL     1     -43.249  57.898 -57.009  1.00  0.00     0.034 A 
ENDROOT
BRANCH   3  14
HETATM   14  N   UNL     1     -42.925  59.908 -52.096  1.00  0.00    -0.176 NA
HETATM   15  C   UNL     1     -44.119  59.626 -51.678  1.00  0.00     0.153 C 
BRANCH  15  16
HETATM   16  C   UNL     1     -45.085  60.633 -51.320  1.00  0.00     0.011 A 
HETATM   17  C   UNL     1     -45.189  61.268 -50.041  1.00  0.00     0.004 A 
HETATM   18  C   UNL     1     -46.323  62.077 -50.071  1.00  0.00     0.043 A 
HETATM   19  C   UNL     1     -44.431  61.212 -48.849  1.00  0.00     0.014 A 
HETATM   20  C   UNL     1     -46.750  62.817 -48.961  1.00  0.00     0.030 A 
HETATM   21  N   UNL     1     -46.865  61.968 -51.332  1.00  0.00    -0.364 N 
HETATM   22  C   UNL     1     -45.985  62.740 -47.793  1.00  0.00     0.002 A 
HETATM   23  C   UNL     1     -44.837  61.955 -47.737  1.00  0.00     0.001 A 
HETATM   24  H   UNL     1     -47.706  62.436 -51.638  1.00  0.00     0.165 HD
HETATM   25  C   UNL     1     -46.116  61.115 -52.100  1.00  0.00     0.102 A 
ENDBRANCH  15  16
ENDBRANCH   3  14
BRANCH   2  26
HETATM   26  N   UNL     1     -40.742  58.614 -50.523  1.00  0.00    -0.286 NA
HETATM   27  H   UNL     1     -41.072  59.543 -50.247  1.00  0.00     0.125 HD
HETATM   28  H   UNL     1     -40.649  58.030 -49.685  1.00  0.00     0.125 HD
ENDBRANCH   2  26
BRANCH   1  29
HETATM   29  C   UNL     1     -41.243  55.554 -51.109  1.00  0.00     0.257 C 
HETATM   30  N   UNL     1     -40.736  54.483 -51.818  1.00  0.00    -0.352 N 
HETATM   31  H   UNL     1     -40.488  54.686 -52.777  1.00  0.00     0.163 HD
HETATM   32  O   UNL     1     -41.359  55.559 -49.891  1.00  0.00    -0.267 OA
BRANCH  30  33
HETATM   33  C   UNL     1     -40.059  53.370 -51.200  1.00  0.00     0.161 C 
BRANCH  33  34
HETATM   34  C   UNL     1     -39.952  52.145 -52.087  1.00  0.00    -0.041 A 
HETATM   35  C   UNL     1     -39.616  50.861 -51.622  1.00  0.00     0.009 A 
HETATM   36  C   UNL     1     -39.549  49.770 -52.495  1.00  0.00     0.001 A 
HETATM   37  C   UNL     1     -39.828  49.941 -53.847  1.00  0.00     0.000 A 
HETATM   38  C   UNL     1     -40.182  51.200 -54.325  1.00  0.00     0.001 A 
HETATM   39  C   UNL     1     -40.248  52.290 -53.453  1.00  0.00     0.009 A 
ENDBRANCH  33  34
ENDBRANCH  30  33
ENDBRANCH   1  29
TORSDOF 6
ENDMDL
MODEL 5
REMARK VINA RESULT:      -9.6      2.052      8.015
REMARK  6 active torsions:
REMARK  status: ('A' for Active; 'I' for Inactive)
REMARK    1  A    between atoms: C_4  and  C_5 
REMARK    2  A    between atoms: C_5  and  N_6 
REMARK       I    between atoms: N_6  and  C_7 
REMARK    3  A    between atoms: C_7  and  C_8 
REMARK    4  A    between atoms: C_9  and  N_10 
REMARK    5  A    between atoms: N_11  and  N_12 
REMARK    6  A    between atoms: C_13  and  C_14 
ROOT
HETATM    1  C   UNL     1     -42.457  57.188 -55.582  1.00  0.00     0.104 C 
HETATM    2  C   UNL     1     -41.719  56.080 -55.180  1.00  0.00     0.123 C 
HETATM    3  N   UNL     1     -41.819  56.020 -53.791  1.00  0.00    -0.202 N 
HETATM    4  C   UNL     1     -42.006  57.314 -53.349  1.00  0.00     0.183 A 
HETATM    5  C   UNL     1     -42.497  58.036 -54.439  1.00  0.00     0.124 A 
HETATM    6  N   UNL     1     -42.944  59.309 -54.283  1.00  0.00    -0.242 NA
HETATM    7  C   UNL     1     -42.792  59.815 -53.047  1.00  0.00     0.086 A 
HETATM    8  C   UNL     1     -42.250  59.066 -51.968  1.00  0.00     0.088 A 
HETATM    9  N   UNL     1     -41.879  57.782 -52.087  1.00  0.00    -0.225 NA
HETATM   10  C   UNL     1     -43.172  61.132 -52.820  1.00  0.00     0.034 A 
HETATM   11  C   UNL     1     -43.012  61.735 -51.572  1.00  0.00     0.002 A 
HETATM   12  C   UNL     1     -42.464  61.009 -50.525  1.00  0.00     0.002 A 
HETATM   13  C   UNL     1     -42.094  59.680 -50.732  1.00  0.00     0.034 A 
ENDROOT
BRANCH   3  14
HETATM   14  N   UNL     1     -41.846  54.883 -53.014  1.00  0.00    -0.176 NA
HETATM   15  C   UNL     1     -40.652  54.532 -52.647  1.00  0.00     0.153 C 
BRANCH  15  16
HETATM   16  C   UNL     1     -40.383  53.347 -51.873  1.00  0.00     0.011 A 
HETATM   17  C   UNL     1     -40.036  52.066 -52.408  1.00  0.00     0.004 A 
HETATM   18  C   UNL     1     -39.987  51.171 -51.342  1.00  0.00     0.043 A 
HETATM   19  C   UNL     1     -39.781  51.579 -53.711  1.00  0.00     0.014 A 
HETATM   20  C   UNL     1     -39.715  49.808 -51.515  1.00  0.00     0.030 A 
HETATM   21  N   UNL     1     -40.254  51.890 -50.198  1.00  0.00    -0.364 N 
HETATM   22  C   UNL     1     -39.470  49.351 -52.812  1.00  0.00     0.002 A 
HETATM   23  C   UNL     1     -39.495  50.223 -53.897  1.00  0.00     0.001 A 
HETATM   24  H   UNL     1     -40.299  51.494 -49.270  1.00  0.00     0.165 HD
HETATM   25  C   UNL     1     -40.475  53.207 -50.504  1.00  0.00     0.102 A 
ENDBRANCH  15  16
ENDBRANCH   3  14
BRANCH   2  26
HETATM   26  N   UNL     1     -41.126  55.080 -55.905  1.00  0.00    -0.286 NA
HETATM   27  H   UNL     1     -41.432  54.984 -56.878  1.00  0.00     0.125 HD
HETATM   28  H   UNL     1     -40.101  55.048 -55.874  1.00  0.00     0.125 HD
ENDBRANCH   2  26
BRANCH   1  29
HETATM   29  C   UNL     1     -43.054  57.370 -56.902  1.00  0.00     0.257 C 
HETATM   30  N   UNL     1     -43.191  58.704 -57.231  1.00  0.00    -0.352 N 
HETATM   31  H   UNL     1     -42.738  59.348 -56.597  1.00  0.00     0.163 HD
HETATM   32  O   UNL     1     -43.316  56.457 -57.674  1.00  0.00    -0.267 OA
BRANCH  30  33
HETATM   33  C   UNL     1     -43.407  59.171 -58.578  1.00  0.00     0.161 C 
BRANCH  33  34
HETATM   34  C   UNL     1     -42.424  60.236 -59.025  1.00  0.00    -0.041 A 
HETATM   35  C   UNL     1     -42.291  60.680 -60.353  1.00  0.00     0.009 A 
HETATM   36  C   UNL     1     -41.372  61.678 -60.694  1.00  0.00     0.001 A 
HETATM   37  C   UNL     1     -40.577  62.257 -59.711  1.00  0.00     0.000 A 
HETATM   38  C   UNL     1     -40.705  61.847 -58.387  1.00  0.00     0.001 A 
HETATM   39  C   UNL     1     -41.623  60.849 -58.046  1.00  0.00     0.009 A 
ENDBRANCH  33  34
ENDBRANCH  30  33
ENDBRANCH   1  29
TORSDOF 6
ENDMDL
MODEL 6
REMARK VINA RESULT:      -9.5      2.179      7.106
REMARK  6 active torsions:
REMARK  status: ('A' for Active; 'I' for Inactive)
REMARK    1  A    between atoms: C_4  and  C_5 
REMARK    2  A    between atoms: C_5  and  N_6 
REMARK       I    between atoms: N_6  and  C_7 
REMARK    3  A    between atoms: C_7  and  C_8 
REMARK    4  A    between atoms: C_9  and  N_10 
REMARK    5  A    between atoms: N_11  and  N_12 
REMARK    6  A    between atoms: C_13  and  C_14 
ROOT
HETATM    1  C   UNL     1     -43.145  57.854 -55.527  1.00  0.00     0.104 C 
HETATM    2  C   UNL     1     -42.338  56.738 -55.335  1.00  0.00     0.123 C 
HETATM    3  N   UNL     1     -42.233  56.557 -53.957  1.00  0.00    -0.202 N 
HETATM    4  C   UNL     1     -42.375  57.803 -53.380  1.00  0.00     0.183 A 
HETATM    5  C   UNL     1     -43.032  58.600 -54.319  1.00  0.00     0.124 A 
HETATM    6  N   UNL     1     -43.473  59.841 -53.989  1.00  0.00    -0.242 NA
HETATM    7  C   UNL     1     -43.150  60.245 -52.748  1.00  0.00     0.086 A 
HETATM    8  C   UNL     1     -42.445  59.422 -51.828  1.00  0.00     0.088 A 
HETATM    9  N   UNL     1     -42.073  58.164 -52.113  1.00  0.00    -0.225 NA
HETATM   10  C   UNL     1     -43.515  61.525 -52.353  1.00  0.00     0.034 A 
HETATM   11  C   UNL     1     -43.185  62.024 -51.091  1.00  0.00     0.002 A 
HETATM   12  C   UNL     1     -42.478  61.228 -50.203  1.00  0.00     0.002 A 
HETATM   13  C   UNL     1     -42.120  59.933 -50.578  1.00  0.00     0.034 A 
ENDROOT
BRANCH   3  14
HETATM   14  N   UNL     1     -42.126  55.357 -53.289  1.00  0.00    -0.176 NA
HETATM   15  C   UNL     1     -40.908  55.136 -52.905  1.00  0.00     0.153 C 
BRANCH  15  16
HETATM   16  C   UNL     1     -40.502  53.928 -52.231  1.00  0.00     0.011 A 
HETATM   17  C   UNL     1     -40.238  52.672 -52.864  1.00  0.00     0.004 A 
HETATM   18  C   UNL     1     -40.003  51.741 -51.855  1.00  0.00     0.043 A 
HETATM   19  C   UNL     1     -40.199  52.235 -54.208  1.00  0.00     0.014 A 
HETATM   20  C   UNL     1     -39.750  50.389 -52.121  1.00  0.00     0.030 A 
HETATM   21  N   UNL     1     -40.082  52.415 -50.656  1.00  0.00    -0.364 N 
HETATM   22  C   UNL     1     -39.722  49.982 -53.457  1.00  0.00     0.002 A 
HETATM   23  C   UNL     1     -39.935  50.891 -54.489  1.00  0.00     0.001 A 
HETATM   24  H   UNL     1     -39.967  51.987 -49.749  1.00  0.00     0.165 HD
HETATM   25  C   UNL     1     -40.363  53.739 -50.872  1.00  0.00     0.102 A 
ENDBRANCH  15  16
ENDBRANCH   3  14
BRANCH   2  26
HETATM   26  N   UNL     1     -41.840  55.821 -56.224  1.00  0.00    -0.286 NA
HETATM   27  H   UNL     1     -42.283  55.800 -57.147  1.00  0.00     0.125 HD
HETATM   28  H   UNL     1     -40.821  55.817 -56.343  1.00  0.00     0.125 HD
ENDBRANCH   2  26
BRANCH   1  29
HETATM   29  C   UNL     1     -43.931  58.130 -56.726  1.00  0.00     0.257 C 
HETATM   30  N   UNL     1     -43.133  58.379 -57.825  1.00  0.00    -0.352 N 
HETATM   31  H   UNL     1     -42.148  58.195 -57.687  1.00  0.00     0.163 HD
HETATM   32  O   UNL     1     -45.151  58.057 -56.785  1.00  0.00    -0.267 OA
BRANCH  30  33
HETATM   33  C   UNL     1     -43.613  58.326 -59.183  1.00  0.00     0.161 C 
BRANCH  33  34
HETATM   34  C   UNL     1     -44.191  56.981 -59.580  1.00  0.00    -0.041 A 
HETATM   35  C   UNL     1     -43.516  55.757 -59.430  1.00  0.00     0.009 A 
HETATM   36  C   UNL     1     -44.115  54.550 -59.805  1.00  0.00     0.001 A 
HETATM   37  C   UNL     1     -45.404  54.544 -60.326  1.00  0.00     0.000 A 
HETATM   38  C   UNL     1     -46.098  55.743 -60.465  1.00  0.00     0.001 A 
HETATM   39  C   UNL     1     -45.499  56.949 -60.092  1.00  0.00     0.009 A 
ENDBRANCH  33  34
ENDBRANCH  30  33
ENDBRANCH   1  29
TORSDOF 6
ENDMDL
MODEL 7
REMARK VINA RESULT:      -9.4      1.957      2.468
REMARK  6 active torsions:
REMARK  status: ('A' for Active; 'I' for Inactive)
REMARK    1  A    between atoms: C_4  and  C_5 
REMARK    2  A    between atoms: C_5  and  N_6 
REMARK       I    between atoms: N_6  and  C_7 
REMARK    3  A    between atoms: C_7  and  C_8 
REMARK    4  A    between atoms: C_9  and  N_10 
REMARK    5  A    between atoms: N_11  and  N_12 
REMARK    6  A    between atoms: C_13  and  C_14 
ROOT
HETATM    1  C   UNL     1     -43.264  55.652 -53.699  1.00  0.00     0.104 C 
HETATM    2  C   UNL     1     -43.258  55.694 -55.089  1.00  0.00     0.123 C 
HETATM    3  N   UNL     1     -43.341  57.040 -55.445  1.00  0.00    -0.202 N 
HETATM    4  C   UNL     1     -44.016  57.680 -54.426  1.00  0.00     0.183 A 
HETATM    5  C   UNL     1     -43.894  56.865 -53.298  1.00  0.00     0.124 A 
HETATM    6  N   UNL     1     -44.309  57.299 -52.080  1.00  0.00    -0.242 NA
HETATM    7  C   UNL     1     -44.903  58.504 -52.081  1.00  0.00     0.086 A 
HETATM    8  C   UNL     1     -45.048  59.292 -53.255  1.00  0.00     0.088 A 
HETATM    9  N   UNL     1     -44.572  58.912 -54.450  1.00  0.00    -0.225 NA
HETATM   10  C   UNL     1     -45.407  58.994 -50.883  1.00  0.00     0.034 A 
HETATM   11  C   UNL     1     -46.067  60.222 -50.813  1.00  0.00     0.002 A 
HETATM   12  C   UNL     1     -46.226  60.980 -51.963  1.00  0.00     0.002 A 
HETATM   13  C   UNL     1     -45.710  60.511 -53.171  1.00  0.00     0.034 A 
ENDROOT
BRANCH   3  14
HETATM   14  N   UNL     1     -42.762  57.640 -56.541  1.00  0.00    -0.176 NA
HETATM   15  C   UNL     1     -43.656  58.017 -57.401  1.00  0.00     0.153 C 
BRANCH  15  16
HETATM   16  C   UNL     1     -43.325  58.624 -58.665  1.00  0.00     0.011 A 
HETATM   17  C   UNL     1     -42.462  59.752 -58.846  1.00  0.00     0.004 A 
HETATM   18  C   UNL     1     -42.509  60.099 -60.194  1.00  0.00     0.043 A 
HETATM   19  C   UNL     1     -41.660  60.526 -57.977  1.00  0.00     0.014 A 
HETATM   20  C   UNL     1     -41.810  61.195 -60.715  1.00  0.00     0.030 A 
HETATM   21  N   UNL     1     -43.338  59.191 -60.816  1.00  0.00    -0.364 N 
HETATM   22  C   UNL     1     -41.028  61.947 -59.835  1.00  0.00     0.002 A 
HETATM   23  C   UNL     1     -40.945  61.616 -58.485  1.00  0.00     0.001 A 
HETATM   24  H   UNL     1     -43.570  59.206 -61.799  1.00  0.00     0.165 HD
HETATM   25  C   UNL     1     -43.820  58.285 -59.908  1.00  0.00     0.102 A 
ENDBRANCH  15  16
ENDBRANCH   3  14
BRANCH   2  26
HETATM   26  N   UNL     1     -43.039  54.713 -56.021  1.00  0.00    -0.286 NA
HETATM   27  H   UNL     1     -42.597  53.855 -55.678  1.00  0.00     0.125 HD
HETATM   28  H   UNL     1     -43.842  54.463 -56.608  1.00  0.00     0.125 HD
ENDBRANCH   2  26
BRANCH   1  29
HETATM   29  C   UNL     1     -42.708  54.574 -52.886  1.00  0.00     0.257 C 
HETATM   30  N   UNL     1     -41.354  54.407 -53.100  1.00  0.00    -0.352 N 
HETATM   31  H   UNL     1     -40.920  55.127 -53.661  1.00  0.00     0.163 HD
HETATM   32  O   UNL     1     -43.336  53.952 -52.040  1.00  0.00    -0.267 OA
BRANCH  30  33
HETATM   33  C   UNL     1     -40.491  53.684 -52.200  1.00  0.00     0.161 C 
BRANCH  33  34
HETATM   34  C   UNL     1     -40.200  52.261 -52.637  1.00  0.00    -0.041 A 
HETATM   35  C   UNL     1     -40.293  51.808 -53.965  1.00  0.00     0.009 A 
HETATM   36  C   UNL     1     -39.996  50.484 -54.301  1.00  0.00     0.001 A 
HETATM   37  C   UNL     1     -39.590  49.589 -53.316  1.00  0.00     0.000 A 
HETATM   38  C   UNL     1     -39.472  50.021 -51.997  1.00  0.00     0.001 A 
HETATM   39  C   UNL     1     -39.770  51.345 -51.662  1.00  0.00     0.009 A 
ENDBRANCH  33  34
ENDBRANCH  30  33
ENDBRANCH   1  29
TORSDOF 6
ENDMDL
MODEL 8
REMARK VINA RESULT:      -9.3      1.677      8.518
REMARK  6 active torsions:
REMARK  status: ('A' for Active; 'I' for Inactive)
REMARK    1  A    between atoms: C_4  and  C_5 
REMARK    2  A    between atoms: C_5  and  N_6 
REMARK       I    between atoms: N_6  and  C_7 
REMARK    3  A    between atoms: C_7  and  C_8 
REMARK    4  A    between atoms: C_9  and  N_10 
REMARK    5  A    between atoms: N_11  and  N_12 
REMARK    6  A    between atoms: C_13  and  C_14 
ROOT
HETATM    1  C   UNL     1     -43.032  58.257 -52.909  1.00  0.00     0.104 C 
HETATM    2  C   UNL     1     -43.475  57.156 -52.186  1.00  0.00     0.123 C 
HETATM    3  N   UNL     1     -43.133  56.029 -52.931  1.00  0.00    -0.202 N 
HETATM    4  C   UNL     1     -43.116  56.417 -54.255  1.00  0.00     0.183 A 
HETATM    5  C   UNL     1     -42.957  57.805 -54.257  1.00  0.00     0.124 A 
HETATM    6  N   UNL     1     -42.732  58.475 -55.416  1.00  0.00    -0.242 NA
HETATM    7  C   UNL     1     -42.765  57.716 -56.525  1.00  0.00     0.086 A 
HETATM    8  C   UNL     1     -42.969  56.310 -56.492  1.00  0.00     0.088 A 
HETATM    9  N   UNL     1     -43.112  55.622 -55.349  1.00  0.00    -0.225 NA
HETATM   10  C   UNL     1     -42.601  58.337 -57.757  1.00  0.00     0.034 A 
HETATM   11  C   UNL     1     -42.656  57.618 -58.952  1.00  0.00     0.002 A 
HETATM   12  C   UNL     1     -42.877  56.250 -58.919  1.00  0.00     0.002 A 
HETATM   13  C   UNL     1     -43.025  55.609 -57.689  1.00  0.00     0.034 A 
ENDROOT
BRANCH   3  14
HETATM   14  N   UNL     1     -42.767  54.795 -52.440  1.00  0.00    -0.176 NA
HETATM   15  C   UNL     1     -41.491  54.732 -52.220  1.00  0.00     0.153 C 
BRANCH  15  16
HETATM   16  C   UNL     1     -40.830  53.539 -51.756  1.00  0.00     0.011 A 
HETATM   17  C   UNL     1     -40.454  52.425 -52.572  1.00  0.00     0.004 A 
HETATM   18  C   UNL     1     -39.963  51.435 -51.724  1.00  0.00     0.043 A 
HETATM   19  C   UNL     1     -40.508  52.159 -53.960  1.00  0.00     0.014 A 
HETATM   20  C   UNL     1     -39.542  50.184 -52.191  1.00  0.00     0.030 A 
HETATM   21  N   UNL     1     -40.002  51.944 -50.444  1.00  0.00    -0.364 N 
HETATM   22  C   UNL     1     -39.609  49.945 -53.566  1.00  0.00     0.002 A 
HETATM   23  C   UNL     1     -40.078  50.919 -54.442  1.00  0.00     0.001 A 
HETATM   24  H   UNL     1     -39.718  51.438 -49.617  1.00  0.00     0.165 HD
HETATM   25  C   UNL     1     -40.505  53.219 -50.453  1.00  0.00     0.102 A 
ENDBRANCH  15  16
ENDBRANCH   3  14
BRANCH   2  26
HETATM   26  N   UNL     1     -43.987  57.055 -50.918  1.00  0.00    -0.286 NA
HETATM   27  H   UNL     1     -44.996  56.892 -50.850  1.00  0.00     0.125 HD
HETATM   28  H   UNL     1     -43.502  56.409 -50.287  1.00  0.00     0.125 HD
ENDBRANCH   2  26
BRANCH   1  29
HETATM   29  C   UNL     1     -42.711  59.564 -52.343  1.00  0.00     0.257 C 
HETATM   30  N   UNL     1     -43.133  60.600 -53.153  1.00  0.00    -0.352 N 
HETATM   31  H   UNL     1     -43.720  60.322 -53.928  1.00  0.00     0.163 HD
HETATM   32  O   UNL     1     -42.213  59.735 -51.238  1.00  0.00    -0.267 OA
BRANCH  30  33
HETATM   33  C   UNL     1     -43.273  61.960 -52.695  1.00  0.00     0.161 C 
BRANCH  33  34
HETATM   34  C   UNL     1     -44.642  62.281 -52.127  1.00  0.00    -0.041 A 
HETATM   35  C   UNL     1     -44.890  63.302 -51.193  1.00  0.00     0.009 A 
HETATM   36  C   UNL     1     -46.182  63.554 -50.721  1.00  0.00     0.001 A 
HETATM   37  C   UNL     1     -47.252  62.796 -51.184  1.00  0.00     0.000 A 
HETATM   38  C   UNL     1     -47.033  61.793 -52.125  1.00  0.00     0.001 A 
HETATM   39  C   UNL     1     -45.742  61.541 -52.595  1.00  0.00     0.009 A 
ENDBRANCH  33  34
ENDBRANCH  30  33
ENDBRANCH   1  29
TORSDOF 6
ENDMDL
MODEL 9
REMARK VINA RESULT:      -9.2      2.448      8.575
REMARK  6 active torsions:
REMARK  status: ('A' for Active; 'I' for Inactive)
REMARK    1  A    between atoms: C_4  and  C_5 
REMARK    2  A    between atoms: C_5  and  N_6 
REMARK       I    between atoms: N_6  and  C_7 
REMARK    3  A    between atoms: C_7  and  C_8 
REMARK    4  A    between atoms: C_9  and  N_10 
REMARK    5  A    between atoms: N_11  and  N_12 
REMARK    6  A    between atoms: C_13  and  C_14 
ROOT
HETATM    1  C   UNL     1     -44.763  58.619 -52.668  1.00  0.00     0.104 C 
HETATM    2  C   UNL     1     -44.415  57.549 -51.851  1.00  0.00     0.123 C 
HETATM    3  N   UNL     1     -43.435  56.831 -52.534  1.00  0.00    -0.202 N 
HETATM    4  C   UNL     1     -43.661  57.031 -53.881  1.00  0.00     0.183 A 
HETATM    5  C   UNL     1     -44.413  58.204 -53.984  1.00  0.00     0.124 A 
HETATM    6  N   UNL     1     -44.656  58.767 -55.196  1.00  0.00    -0.242 NA
HETATM    7  C   UNL     1     -44.198  58.067 -56.248  1.00  0.00     0.086 A 
HETATM    8  C   UNL     1     -43.470  56.854 -56.109  1.00  0.00     0.088 A 
HETATM    9  N   UNL     1     -43.152  56.328 -54.917  1.00  0.00    -0.225 NA
HETATM   10  C   UNL     1     -44.457  58.548 -57.525  1.00  0.00     0.034 A 
HETATM   11  C   UNL     1     -44.041  57.857 -58.665  1.00  0.00     0.002 A 
HETATM   12  C   UNL     1     -43.350  56.663 -58.529  1.00  0.00     0.002 A 
HETATM   13  C   UNL     1     -43.066  56.177 -57.253  1.00  0.00     0.034 A 
ENDROOT
BRANCH   3  14
HETATM   14  N   UNL     1     -42.375  56.147 -51.979  1.00  0.00    -0.176 NA
HETATM   15  C   UNL     1     -42.456  54.875 -52.216  1.00  0.00     0.153 C 
BRANCH  15  16
HETATM   16  C   UNL     1     -41.508  53.918 -51.705  1.00  0.00     0.011 A 
HETATM   17  C   UNL     1     -40.851  52.907 -52.475  1.00  0.00     0.004 A 
HETATM   18  C   UNL     1     -40.121  52.118 -51.588  1.00  0.00     0.043 A 
HETATM   19  C   UNL     1     -40.827  52.575 -53.850  1.00  0.00     0.014 A 
HETATM   20  C   UNL     1     -39.384  51.002 -52.003  1.00  0.00     0.030 A 
HETATM   21  N   UNL     1     -40.297  52.656 -50.332  1.00  0.00    -0.364 N 
HETATM   22  C   UNL     1     -39.381  50.692 -53.365  1.00  0.00     0.002 A 
HETATM   23  C   UNL     1     -40.086  51.470 -54.280  1.00  0.00     0.001 A 
HETATM   24  H   UNL     1     -39.893  52.279 -49.486  1.00  0.00     0.165 HD
HETATM   25  C   UNL     1     -41.116  53.753 -50.393  1.00  0.00     0.102 A 
ENDBRANCH  15  16
ENDBRANCH   3  14
BRANCH   2  26
HETATM   26  N   UNL     1     -44.755  57.255 -50.556  1.00  0.00    -0.286 NA
HETATM   27  H   UNL     1     -45.587  57.726 -50.189  1.00  0.00     0.125 HD
HETATM   28  H   UNL     1     -44.804  56.258 -50.319  1.00  0.00     0.125 HD
ENDBRANCH   2  26
BRANCH   1  29
HETATM   29  C   UNL     1     -45.339  59.879 -52.207  1.00  0.00     0.257 C 
HETATM   30  N   UNL     1     -44.564  60.482 -51.237  1.00  0.00    -0.352 N 
HETATM   31  H   UNL     1     -43.659  60.056 -51.090  1.00  0.00     0.163 HD
HETATM   32  O   UNL     1     -46.339  60.397 -52.686  1.00  0.00    -0.267 OA
BRANCH  30  33
HETATM   33  C   UNL     1     -44.691  61.869 -50.867  1.00  0.00     0.161 C 
BRANCH  33  34
HETATM   34  C   UNL     1     -44.851  62.097 -49.376  1.00  0.00    -0.041 A 
HETATM   35  C   UNL     1     -44.760  63.356 -48.756  1.00  0.00     0.009 A 
HETATM   36  C   UNL     1     -44.933  63.496 -47.375  1.00  0.00     0.001 A 
HETATM   37  C   UNL     1     -45.211  62.382 -46.591  1.00  0.00     0.000 A 
HETATM   38  C   UNL     1     -45.325  61.129 -47.187  1.00  0.00     0.001 A 
HETATM   39  C   UNL     1     -45.151  60.988 -48.566  1.00  0.00     0.009 A 
ENDBRANCH  33  34
ENDBRANCH  30  33
ENDBRANCH   1  29
TORSDOF 6
ENDMDL
MODEL 10
REMARK VINA RESULT:      -9.2      2.383      3.756
REMARK  6 active torsions:
REMARK  status: ('A' for Active; 'I' for Inactive)
REMARK    1  A    between atoms: C_4  and  C_5 
REMARK    2  A    between atoms: C_5  and  N_6 
REMARK       I    between atoms: N_6  and  C_7 
REMARK    3  A    between atoms: C_7  and  C_8 
REMARK    4  A    between atoms: C_9  and  N_10 
REMARK    5  A    between atoms: N_11  and  N_12 
REMARK    6  A    between atoms: C_13  and  C_14 
ROOT
HETATM    1  C   UNL     1     -42.848  56.355 -55.710  1.00  0.00     0.104 C 
HETATM    2  C   UNL     1     -43.578  57.012 -56.694  1.00  0.00     0.123 C 
HETATM    3  N   UNL     1     -43.330  58.374 -56.527  1.00  0.00    -0.202 N 
HETATM    4  C   UNL     1     -43.050  58.567 -55.190  1.00  0.00     0.183 A 
HETATM    5  C   UNL     1     -42.653  57.326 -54.687  1.00  0.00     0.124 A 
HETATM    6  N   UNL     1     -42.146  57.216 -53.432  1.00  0.00    -0.242 NA
HETATM    7  C   UNL     1     -42.145  58.355 -52.720  1.00  0.00     0.086 A 
HETATM    8  C   UNL     1     -42.594  59.596 -53.249  1.00  0.00     0.088 A 
HETATM    9  N   UNL     1     -43.023  59.737 -54.512  1.00  0.00    -0.225 NA
HETATM   10  C   UNL     1     -41.695  58.314 -51.406  1.00  0.00     0.034 A 
HETATM   11  C   UNL     1     -41.697  59.451 -50.596  1.00  0.00     0.002 A 
HETATM   12  C   UNL     1     -42.155  60.656 -51.107  1.00  0.00     0.002 A 
HETATM   13  C   UNL     1     -42.594  60.718 -52.429  1.00  0.00     0.034 A 
ENDROOT
BRANCH   3  14
HETATM   14  N   UNL     1     -43.262  59.328 -57.519  1.00  0.00    -0.176 NA
HETATM   15  C   UNL     1     -42.352  59.035 -58.396  1.00  0.00     0.153 C 
BRANCH  15  16
HETATM   16  C   UNL     1     -42.031  59.888 -59.511  1.00  0.00     0.011 A 
HETATM   17  C   UNL     1     -41.329  61.132 -59.430  1.00  0.00     0.004 A 
HETATM   18  C   UNL     1     -41.339  61.697 -60.704  1.00  0.00     0.043 A 
HETATM   19  C   UNL     1     -40.703  61.844 -58.381  1.00  0.00     0.014 A 
HETATM   20  C   UNL     1     -40.771  62.948 -60.978  1.00  0.00     0.030 A 
HETATM   21  N   UNL     1     -41.987  60.810 -61.534  1.00  0.00    -0.364 N 
HETATM   22  C   UNL     1     -40.162  63.633 -59.923  1.00  0.00     0.002 A 
HETATM   23  C   UNL     1     -40.120  63.088 -58.643  1.00  0.00     0.001 A 
HETATM   24  H   UNL     1     -42.156  60.965 -62.519  1.00  0.00     0.165 HD
HETATM   25  C   UNL     1     -42.392  59.707 -60.830  1.00  0.00     0.102 A 
ENDBRANCH  15  16
ENDBRANCH   3  14
BRANCH   2  26
HETATM   26  N   UNL     1     -44.282  56.532 -57.768  1.00  0.00    -0.286 NA
HETATM   27  H   UNL     1     -43.729  56.260 -58.585  1.00  0.00     0.125 HD
HETATM   28  H   UNL     1     -44.963  55.793 -57.565  1.00  0.00     0.125 HD
ENDBRANCH   2  26
BRANCH   1  29
HETATM   29  C   UNL     1     -42.391  54.970 -55.783  1.00  0.00     0.257 C 
HETATM   30  N   UNL     1     -41.050  54.848 -55.475  1.00  0.00    -0.352 N 
HETATM   31  H   UNL     1     -40.619  55.686 -55.109  1.00  0.00     0.163 HD
HETATM   32  O   UNL     1     -43.121  54.011 -55.996  1.00  0.00    -0.267 OA
BRANCH  30  33
HETATM   33  C   UNL     1     -40.427  53.597 -55.122  1.00  0.00     0.161 C 
BRANCH  33  34
HETATM   34  C   UNL     1     -40.354  53.345 -53.628  1.00  0.00    -0.041 A 
HETATM   35  C   UNL     1     -40.808  54.250 -52.652  1.00  0.00     0.009 A 
HETATM   36  C   UNL     1     -40.723  53.948 -51.290  1.00  0.00     0.001 A 
HETATM   37  C   UNL     1     -40.192  52.730 -50.878  1.00  0.00     0.000 A 
HETATM   38  C   UNL     1     -39.755  51.811 -51.828  1.00  0.00     0.001 A 
HETATM   39  C   UNL     1     -39.838  52.114 -53.189  1.00  0.00     0.009 A 
ENDBRANCH  33  34
ENDBRANCH  30  33
ENDBRANCH   1  29
TORSDOF 6
ENDMDL
