MODEL 1
REMARK VINA RESULT:      -8.0      0.000      0.000
REMARK  5 active torsions:
REMARK  status: ('A' for Active; 'I' for Inactive)
REMARK    1  A    between atoms: C_9  and  C_10 
REMARK       I    between atoms: C_10  and  N_11 
REMARK    2  A    between atoms: N_11  and  C_12 
REMARK    3  A    between atoms: C_12  and  C_13 
REMARK    4  A    between atoms: C_15  and  O_16 
REMARK    5  A    between atoms: O_16  and  C_17 
ROOT
HETATM    1  C   UNL     1     -40.794  53.562 -49.455  1.00  0.00     0.273 C 
HETATM    2  N   UNL     1     -40.948  54.688 -50.229  1.00  0.00    -0.351 N 
HETATM    3  O   UNL     1     -40.949  53.550 -48.238  1.00  0.00    -0.266 OA
HETATM    4  H   UNL     1     -40.772  54.569 -51.224  1.00  0.00     0.163 HD
ENDROOT
BRANCH   2   5
HETATM    5  C   UNL     1     -41.361  55.961 -49.701  1.00  0.00     0.161 C 
BRANCH   5   6
HETATM    6  C   UNL     1     -41.346  57.040 -50.751  1.00  0.00    -0.035 A 
HETATM    7  C   UNL     1     -42.102  56.932 -51.923  1.00  0.00     0.066 A 
HETATM    8  C   UNL     1     -42.059  57.965 -52.844  1.00  0.00     0.164 A 
HETATM    9  N   UNL     1     -41.350  59.099 -52.676  1.00  0.00    -0.237 NA
HETATM   10  C   UNL     1     -40.652  59.201 -51.526  1.00  0.00     0.120 A 
HETATM   11  C   UNL     1     -40.618  58.217 -50.549  1.00  0.00     0.028 A 
BRANCH   8  12
HETATM   12  O   UNL     1     -42.794  57.790 -54.003  1.00  0.00    -0.329 OA
BRANCH  12  13
HETATM   13  C   UNL     1     -42.319  56.772 -54.909  1.00  0.00     0.130 C 
HETATM   14  C   UNL     1     -43.266  55.572 -55.177  1.00  0.00     0.032 C 
HETATM   15  C   UNL     1     -42.836  55.640 -56.652  1.00  0.00     0.005 C 
HETATM   16  C   UNL     1     -42.485  57.119 -56.412  1.00  0.00     0.032 C 
ENDBRANCH  12  13
ENDBRANCH   8  12
ENDBRANCH   5   6
ENDBRANCH   2   5
BRANCH   1  17
HETATM   17  C   UNL     1     -40.439  52.367 -50.240  1.00  0.00     0.157 A 
HETATM   18  C   UNL     1     -40.262  52.283 -51.652  1.00  0.00     0.029 A 
HETATM   19  C   UNL     1     -40.348  53.174 -52.741  1.00  0.00     0.023 A 
HETATM   20  C   UNL     1     -39.916  50.960 -51.895  1.00  0.00     0.063 A 
HETATM   21  C   UNL     1     -40.083  52.708 -54.039  1.00  0.00    -0.061 A 
HETATM   22  C   UNL     1     -40.163  53.642 -55.212  1.00  0.00     0.048 C 
HETATM   23  C   UNL     1     -39.737  51.365 -54.240  1.00  0.00     0.009 A 
HETATM   24  C   UNL     1     -39.646  50.464 -53.173  1.00  0.00     0.032 A 
HETATM   25  N   UNL     1     -39.911  50.357 -50.668  1.00  0.00    -0.277 N 
HETATM   26  H   UNL     1     -39.699  49.388 -50.463  1.00  0.00     0.189 HD
HETATM   27  N   UNL     1     -40.222  51.172 -49.644  1.00  0.00    -0.168 NA
ENDBRANCH   1  17
TORSDOF 5
ENDMDL
MODEL 2
REMARK VINA RESULT:      -7.9      2.473      4.519
REMARK  5 active torsions:
REMARK  status: ('A' for Active; 'I' for Inactive)
REMARK    1  A    between atoms: C_9  and  C_10 
REMARK       I    between atoms: C_10  and  N_11 
REMARK    2  A    between atoms: N_11  and  C_12 
REMARK    3  A    between atoms: C_12  and  C_13 
REMARK    4  A    between atoms: C_15  and  O_16 
REMARK    5  A    between atoms: O_16  and  C_17 
ROOT
HETATM    1  C   UNL     1     -41.727  54.998 -54.388  1.00  0.00     0.273 C 
HETATM    2  N   UNL     1     -42.947  55.597 -54.174  1.00  0.00    -0.351 N 
HETATM    3  O   UNL     1     -41.120  55.060 -55.452  1.00  0.00    -0.266 OA
HETATM    4  H   UNL     1     -43.355  55.454 -53.254  1.00  0.00     0.163 HD
ENDROOT
BRANCH   2   5
HETATM    5  C   UNL     1     -43.616  56.405 -55.160  1.00  0.00     0.161 C 
BRANCH   5   6
HETATM    6  C   UNL     1     -43.018  57.783 -55.260  1.00  0.00    -0.035 A 
HETATM    7  C   UNL     1     -42.615  58.491 -54.123  1.00  0.00     0.066 A 
HETATM    8  C   UNL     1     -42.057  59.748 -54.281  1.00  0.00     0.164 A 
HETATM    9  N   UNL     1     -41.844  60.337 -55.476  1.00  0.00    -0.237 NA
HETATM   10  C   UNL     1     -42.210  59.626 -56.563  1.00  0.00     0.120 A 
HETATM   11  C   UNL     1     -42.790  58.368 -56.510  1.00  0.00     0.028 A 
BRANCH   8  12
HETATM   12  O   UNL     1     -41.712  60.420 -53.123  1.00  0.00    -0.329 OA
BRANCH  12  13
HETATM   13  C   UNL     1     -41.669  59.628 -51.918  1.00  0.00     0.130 C 
HETATM   14  C   UNL     1     -40.265  59.260 -51.367  1.00  0.00     0.032 C 
HETATM   15  C   UNL     1     -40.817  59.521 -49.955  1.00  0.00     0.005 C 
HETATM   16  C   UNL     1     -41.868  60.435 -50.608  1.00  0.00     0.032 C 
ENDBRANCH  12  13
ENDBRANCH   8  12
ENDBRANCH   5   6
ENDBRANCH   2   5
BRANCH   1  17
HETATM   17  C   UNL     1     -41.217  54.290 -53.203  1.00  0.00     0.157 A 
HETATM   18  C   UNL     1     -40.664  52.976 -53.153  1.00  0.00     0.029 A 
HETATM   19  C   UNL     1     -40.414  51.944 -54.080  1.00  0.00     0.023 A 
HETATM   20  C   UNL     1     -40.315  52.781 -51.823  1.00  0.00     0.063 A 
HETATM   21  C   UNL     1     -39.823  50.748 -53.640  1.00  0.00    -0.061 A 
HETATM   22  C   UNL     1     -39.544  49.638 -54.613  1.00  0.00     0.048 C 
HETATM   23  C   UNL     1     -39.486  50.593 -52.290  1.00  0.00     0.009 A 
HETATM   24  C   UNL     1     -39.725  51.605 -51.353  1.00  0.00     0.032 A 
HETATM   25  N   UNL     1     -40.669  53.937 -51.184  1.00  0.00    -0.277 N 
HETATM   26  H   UNL     1     -40.557  54.151 -50.199  1.00  0.00     0.189 HD
HETATM   27  N   UNL     1     -41.217  54.872 -51.981  1.00  0.00    -0.168 NA
ENDBRANCH   1  17
TORSDOF 5
ENDMDL
MODEL 3
REMARK VINA RESULT:      -7.8      3.519      5.678
REMARK  5 active torsions:
REMARK  status: ('A' for Active; 'I' for Inactive)
REMARK    1  A    between atoms: C_9  and  C_10 
REMARK       I    between atoms: C_10  and  N_11 
REMARK    2  A    between atoms: N_11  and  C_12 
REMARK    3  A    between atoms: C_12  and  C_13 
REMARK    4  A    between atoms: C_15  and  O_16 
REMARK    5  A    between atoms: O_16  and  C_17 
ROOT
HETATM    1  C   UNL     1     -42.559  54.670 -55.367  1.00  0.00     0.273 C 
HETATM    2  N   UNL     1     -42.134  55.811 -56.007  1.00  0.00    -0.351 N 
HETATM    3  O   UNL     1     -43.439  53.936 -55.805  1.00  0.00    -0.266 OA
HETATM    4  H   UNL     1     -41.411  56.344 -55.530  1.00  0.00     0.163 HD
ENDROOT
BRANCH   2   5
HETATM    5  C   UNL     1     -42.639  56.237 -57.286  1.00  0.00     0.161 C 
BRANCH   5   6
HETATM    6  C   UNL     1     -42.889  57.721 -57.328  1.00  0.00    -0.035 A 
HETATM    7  C   UNL     1     -41.842  58.636 -57.487  1.00  0.00     0.066 A 
HETATM    8  C   UNL     1     -42.138  59.987 -57.535  1.00  0.00     0.164 A 
HETATM    9  N   UNL     1     -43.387  60.492 -57.468  1.00  0.00    -0.237 NA
HETATM   10  C   UNL     1     -44.386  59.594 -57.347  1.00  0.00     0.120 A 
HETATM   11  C   UNL     1     -44.194  58.222 -57.274  1.00  0.00     0.028 A 
BRANCH   8  12
HETATM   12  O   UNL     1     -41.063  60.850 -57.654  1.00  0.00    -0.329 OA
BRANCH  12  13
HETATM   13  C   UNL     1     -41.201  61.905 -58.629  1.00  0.00     0.130 C 
HETATM   14  C   UNL     1     -39.895  62.590 -59.114  1.00  0.00     0.032 C 
HETATM   15  C   UNL     1     -40.496  62.597 -60.530  1.00  0.00     0.005 C 
HETATM   16  C   UNL     1     -41.375  61.413 -60.090  1.00  0.00     0.032 C 
ENDBRANCH  12  13
ENDBRANCH   8  12
ENDBRANCH   5   6
ENDBRANCH   2   5
BRANCH   1  17
HETATM   17  C   UNL     1     -41.837  54.411 -54.110  1.00  0.00     0.157 A 
HETATM   18  C   UNL     1     -41.069  53.256 -53.777  1.00  0.00     0.029 A 
HETATM   19  C   UNL     1     -40.732  52.045 -54.413  1.00  0.00     0.023 A 
HETATM   20  C   UNL     1     -40.579  53.503 -52.502  1.00  0.00     0.063 A 
HETATM   21  C   UNL     1     -39.912  51.119 -53.746  1.00  0.00    -0.061 A 
HETATM   22  C   UNL     1     -39.537  49.824 -54.407  1.00  0.00     0.048 C 
HETATM   23  C   UNL     1     -39.439  51.408 -52.459  1.00  0.00     0.009 A 
HETATM   24  C   UNL     1     -39.762  52.605 -51.811  1.00  0.00     0.032 A 
HETATM   25  N   UNL     1     -41.065  54.735 -52.161  1.00  0.00    -0.277 N 
HETATM   26  H   UNL     1     -40.907  55.238 -51.295  1.00  0.00     0.189 HD
HETATM   27  N   UNL     1     -41.829  55.316 -53.104  1.00  0.00    -0.168 NA
ENDBRANCH   1  17
TORSDOF 5
ENDMDL
MODEL 4
REMARK VINA RESULT:      -7.8      2.440      4.844
REMARK  5 active torsions:
REMARK  status: ('A' for Active; 'I' for Inactive)
REMARK    1  A    between atoms: C_9  and  C_10 
REMARK       I    between atoms: C_10  and  N_11 
REMARK    2  A    between atoms: N_11  and  C_12 
REMARK    3  A    between atoms: C_12  and  C_13 
REMARK    4  A    between atoms: C_15  and  O_16 
REMARK    5  A    between atoms: O_16  and  C_17 
ROOT
HETATM    1  C   UNL     1     -42.622  54.517 -54.696  1.00  0.00     0.273 C 
HETATM    2  N   UNL     1     -42.049  55.257 -55.704  1.00  0.00    -0.351 N 
HETATM    3  O   UNL     1     -43.812  54.575 -54.406  1.00  0.00    -0.266 OA
HETATM    4  H   UNL     1     -41.048  55.132 -55.832  1.00  0.00     0.163 HD
ENDROOT
BRANCH   2   5
HETATM    5  C   UNL     1     -42.796  56.138 -56.562  1.00  0.00     0.161 C 
BRANCH   5   6
HETATM    6  C   UNL     1     -42.456  57.585 -56.320  1.00  0.00    -0.035 A 
HETATM    7  C   UNL     1     -42.095  58.049 -55.050  1.00  0.00     0.066 A 
HETATM    8  C   UNL     1     -41.777  59.388 -54.894  1.00  0.00     0.164 A 
HETATM    9  N   UNL     1     -41.762  60.284 -55.901  1.00  0.00    -0.237 NA
HETATM   10  C   UNL     1     -42.081  59.812 -57.124  1.00  0.00     0.120 A 
HETATM   11  C   UNL     1     -42.429  58.494 -57.381  1.00  0.00     0.028 A 
BRANCH   8  12
HETATM   12  O   UNL     1     -41.466  59.803 -53.612  1.00  0.00    -0.329 OA
BRANCH  12  13
HETATM   13  C   UNL     1     -41.068  58.767 -52.689  1.00  0.00     0.130 C 
HETATM   14  C   UNL     1     -39.969  59.131 -51.654  1.00  0.00     0.032 C 
HETATM   15  C   UNL     1     -40.771  58.331 -50.612  1.00  0.00     0.005 C 
HETATM   16  C   UNL     1     -42.019  58.586 -51.476  1.00  0.00     0.032 C 
ENDBRANCH  12  13
ENDBRANCH   8  12
ENDBRANCH   5   6
ENDBRANCH   2   5
BRANCH   1  17
HETATM   17  C   UNL     1     -41.661  53.635 -54.012  1.00  0.00     0.157 A 
HETATM   18  C   UNL     1     -41.255  53.695 -52.646  1.00  0.00     0.029 A 
HETATM   19  C   UNL     1     -41.549  54.511 -51.534  1.00  0.00     0.023 A 
HETATM   20  C   UNL     1     -40.360  52.645 -52.488  1.00  0.00     0.063 A 
HETATM   21  C   UNL     1     -40.935  54.244 -50.299  1.00  0.00    -0.061 A 
HETATM   22  C   UNL     1     -41.239  55.097 -49.101  1.00  0.00     0.048 C 
HETATM   23  C   UNL     1     -40.039  53.174 -50.183  1.00  0.00     0.009 A 
HETATM   24  C   UNL     1     -39.733  52.352 -51.274  1.00  0.00     0.032 A 
HETATM   25  N   UNL     1     -40.285  52.048 -53.715  1.00  0.00    -0.277 N 
HETATM   26  H   UNL     1     -39.726  51.242 -53.971  1.00  0.00     0.189 HD
HETATM   27  N   UNL     1     -41.055  52.616 -54.662  1.00  0.00    -0.168 NA
ENDBRANCH   1  17
TORSDOF 5
ENDMDL
MODEL 5
REMARK VINA RESULT:      -7.8      3.122      5.436
REMARK  5 active torsions:
REMARK  status: ('A' for Active; 'I' for Inactive)
REMARK    1  A    between atoms: C_9  and  C_10 
REMARK       I    between atoms: C_10  and  N_11 
REMARK    2  A    between atoms: N_11  and  C_12 
REMARK    3  A    between atoms: C_12  and  C_13 
REMARK    4  A    between atoms: C_15  and  O_16 
REMARK    5  A    between atoms: O_16  and  C_17 
ROOT
HETATM    1  C   UNL     1     -42.732  54.428 -55.484  1.00  0.00     0.273 C 
HETATM    2  N   UNL     1     -42.309  55.518 -56.210  1.00  0.00    -0.351 N 
HETATM    3  O   UNL     1     -43.601  53.654 -55.870  1.00  0.00    -0.266 OA
HETATM    4  H   UNL     1     -41.595  56.093 -55.769  1.00  0.00     0.163 HD
ENDROOT
BRANCH   2   5
HETATM    5  C   UNL     1     -42.804  55.834 -57.523  1.00  0.00     0.161 C 
BRANCH   5   6
HETATM    6  C   UNL     1     -42.524  57.264 -57.903  1.00  0.00    -0.035 A 
HETATM    7  C   UNL     1     -42.260  58.240 -56.935  1.00  0.00     0.066 A 
HETATM    8  C   UNL     1     -41.993  59.534 -57.348  1.00  0.00     0.164 A 
HETATM    9  N   UNL     1     -41.941  59.922 -58.639  1.00  0.00    -0.237 NA
HETATM   10  C   UNL     1     -42.167  58.962 -59.558  1.00  0.00     0.120 A 
HETATM   11  C   UNL     1     -42.457  57.641 -59.248  1.00  0.00     0.028 A 
BRANCH   8  12
HETATM   12  O   UNL     1     -41.777  60.468 -56.350  1.00  0.00    -0.329 OA
BRANCH  12  13
HETATM   13  C   UNL     1     -42.672  60.407 -55.220  1.00  0.00     0.130 C 
HETATM   14  C   UNL     1     -42.026  60.216 -53.821  1.00  0.00     0.032 C 
HETATM   15  C   UNL     1     -43.051  61.225 -53.276  1.00  0.00     0.005 C 
HETATM   16  C   UNL     1     -43.155  61.789 -54.705  1.00  0.00     0.032 C 
ENDBRANCH  12  13
ENDBRANCH   8  12
ENDBRANCH   5   6
ENDBRANCH   2   5
BRANCH   1  17
HETATM   17  C   UNL     1     -42.022  54.278 -54.203  1.00  0.00     0.157 A 
HETATM   18  C   UNL     1     -41.188  53.193 -53.800  1.00  0.00     0.029 A 
HETATM   19  C   UNL     1     -40.759  51.977 -54.369  1.00  0.00     0.023 A 
HETATM   20  C   UNL     1     -40.742  53.532 -52.530  1.00  0.00     0.063 A 
HETATM   21  C   UNL     1     -39.895  51.141 -53.643  1.00  0.00    -0.061 A 
HETATM   22  C   UNL     1     -39.422  49.843 -54.233  1.00  0.00     0.048 C 
HETATM   23  C   UNL     1     -39.469  51.521 -52.364  1.00  0.00     0.009 A 
HETATM   24  C   UNL     1     -39.883  52.724 -51.781  1.00  0.00     0.032 A 
HETATM   25  N   UNL     1     -41.314  54.744 -52.259  1.00  0.00    -0.277 N 
HETATM   26  H   UNL     1     -41.207  55.297 -51.415  1.00  0.00     0.189 HD
HETATM   27  N   UNL     1     -42.093  55.227 -53.243  1.00  0.00    -0.168 NA
ENDBRANCH   1  17
TORSDOF 5
ENDMDL
MODEL 6
REMARK VINA RESULT:      -7.6      2.813      4.513
REMARK  5 active torsions:
REMARK  status: ('A' for Active; 'I' for Inactive)
REMARK    1  A    between atoms: C_9  and  C_10 
REMARK       I    between atoms: C_10  and  N_11 
REMARK    2  A    between atoms: N_11  and  C_12 
REMARK    3  A    between atoms: C_12  and  C_13 
REMARK    4  A    between atoms: C_15  and  O_16 
REMARK    5  A    between atoms: O_16  and  C_17 
ROOT
HETATM    1  C   UNL     1     -43.244  55.356 -53.486  1.00  0.00     0.273 C 
HETATM    2  N   UNL     1     -43.388  56.723 -53.436  1.00  0.00    -0.351 N 
HETATM    3  O   UNL     1     -43.851  54.640 -54.276  1.00  0.00    -0.266 OA
HETATM    4  H   UNL     1     -42.843  57.200 -52.722  1.00  0.00     0.163 HD
ENDROOT
BRANCH   2   5
HETATM    5  C   UNL     1     -44.227  57.464 -54.340  1.00  0.00     0.161 C 
BRANCH   5   6
HETATM    6  C   UNL     1     -43.481  57.901 -55.572  1.00  0.00    -0.035 A 
HETATM    7  C   UNL     1     -43.532  57.163 -56.759  1.00  0.00     0.066 A 
HETATM    8  C   UNL     1     -42.837  57.625 -57.864  1.00  0.00     0.164 A 
HETATM    9  N   UNL     1     -42.125  58.770 -57.886  1.00  0.00    -0.237 NA
HETATM   10  C   UNL     1     -42.113  59.485 -56.742  1.00  0.00     0.120 A 
HETATM   11  C   UNL     1     -42.763  59.101 -55.579  1.00  0.00     0.028 A 
BRANCH   8  12
HETATM   12  O   UNL     1     -42.890  56.837 -59.000  1.00  0.00    -0.329 OA
BRANCH  12  13
HETATM   13  C   UNL     1     -44.146  56.176 -59.256  1.00  0.00     0.130 C 
HETATM   14  C   UNL     1     -44.669  56.201 -60.718  1.00  0.00     0.032 C 
HETATM   15  C   UNL     1     -45.112  54.741 -60.521  1.00  0.00     0.005 C 
HETATM   16  C   UNL     1     -44.043  54.636 -59.419  1.00  0.00     0.032 C 
ENDBRANCH  12  13
ENDBRANCH   8  12
ENDBRANCH   5   6
ENDBRANCH   2   5
BRANCH   1  17
HETATM   17  C   UNL     1     -42.273  54.842 -52.506  1.00  0.00     0.157 A 
HETATM   18  C   UNL     1     -41.409  53.716 -52.654  1.00  0.00     0.029 A 
HETATM   19  C   UNL     1     -41.162  52.751 -53.651  1.00  0.00     0.023 A 
HETATM   20  C   UNL     1     -40.680  53.662 -51.473  1.00  0.00     0.063 A 
HETATM   21  C   UNL     1     -40.189  51.763 -53.430  1.00  0.00    -0.061 A 
HETATM   22  C   UNL     1     -39.906  50.728 -54.481  1.00  0.00     0.048 C 
HETATM   23  C   UNL     1     -39.476  51.744 -52.225  1.00  0.00     0.009 A 
HETATM   24  C   UNL     1     -39.706  52.692 -51.222  1.00  0.00     0.032 A 
HETATM   25  N   UNL     1     -41.134  54.710 -50.721  1.00  0.00    -0.277 N 
HETATM   26  H   UNL     1     -40.822  54.978 -49.795  1.00  0.00     0.189 HD
HETATM   27  N   UNL     1     -42.095  55.446 -51.309  1.00  0.00    -0.168 NA
ENDBRANCH   1  17
TORSDOF 5
ENDMDL
MODEL 7
REMARK VINA RESULT:      -7.6      2.126      3.212
REMARK  5 active torsions:
REMARK  status: ('A' for Active; 'I' for Inactive)
REMARK    1  A    between atoms: C_9  and  C_10 
REMARK       I    between atoms: C_10  and  N_11 
REMARK    2  A    between atoms: N_11  and  C_12 
REMARK    3  A    between atoms: C_12  and  C_13 
REMARK    4  A    between atoms: C_15  and  O_16 
REMARK    5  A    between atoms: O_16  and  C_17 
ROOT
HETATM    1  C   UNL     1     -42.537  55.931 -50.698  1.00  0.00     0.273 C 
HETATM    2  N   UNL     1     -41.779  56.897 -51.320  1.00  0.00    -0.351 N 
HETATM    3  O   UNL     1     -43.741  56.042 -50.495  1.00  0.00    -0.266 OA
HETATM    4  H   UNL     1     -40.787  56.691 -51.411  1.00  0.00     0.163 HD
ENDROOT
BRANCH   2   5
HETATM    5  C   UNL     1     -42.330  58.118 -51.845  1.00  0.00     0.161 C 
BRANCH   5   6
HETATM    6  C   UNL     1     -43.014  57.905 -53.169  1.00  0.00    -0.035 A 
HETATM    7  C   UNL     1     -42.295  57.556 -54.317  1.00  0.00     0.066 A 
HETATM    8  C   UNL     1     -42.983  57.358 -55.502  1.00  0.00     0.164 A 
HETATM    9  N   UNL     1     -44.323  57.451 -55.624  1.00  0.00    -0.237 NA
HETATM   10  C   UNL     1     -45.003  57.757 -54.500  1.00  0.00     0.120 A 
HETATM   11  C   UNL     1     -44.407  57.989 -53.270  1.00  0.00     0.028 A 
BRANCH   8  12
HETATM   12  O   UNL     1     -42.220  57.053 -56.615  1.00  0.00    -0.329 OA
BRANCH  12  13
HETATM   13  C   UNL     1     -42.859  57.247 -57.895  1.00  0.00     0.130 C 
HETATM   14  C   UNL     1     -42.003  57.892 -59.017  1.00  0.00     0.032 C 
HETATM   15  C   UNL     1     -42.647  56.896 -59.997  1.00  0.00     0.005 C 
HETATM   16  C   UNL     1     -42.909  55.980 -58.789  1.00  0.00     0.032 C 
ENDBRANCH  12  13
ENDBRANCH   8  12
ENDBRANCH   5   6
ENDBRANCH   2   5
BRANCH   1  17
HETATM   17  C   UNL     1     -41.755  54.742 -50.318  1.00  0.00     0.157 A 
HETATM   18  C   UNL     1     -41.147  53.793 -51.192  1.00  0.00     0.029 A 
HETATM   19  C   UNL     1     -41.056  53.610 -52.586  1.00  0.00     0.023 A 
HETATM   20  C   UNL     1     -40.515  52.883 -50.354  1.00  0.00     0.063 A 
HETATM   21  C   UNL     1     -40.333  52.518 -53.095  1.00  0.00    -0.061 A 
HETATM   22  C   UNL     1     -40.219  52.308 -54.577  1.00  0.00     0.048 C 
HETATM   23  C   UNL     1     -39.710  51.625 -52.214  1.00  0.00     0.009 A 
HETATM   24  C   UNL     1     -39.788  51.788 -50.827  1.00  0.00     0.032 A 
HETATM   25  N   UNL     1     -40.775  53.321 -49.085  1.00  0.00    -0.277 N 
HETATM   26  H   UNL     1     -40.466  52.899 -48.217  1.00  0.00     0.189 HD
HETATM   27  N   UNL     1     -41.520  54.439 -49.021  1.00  0.00    -0.168 NA
ENDBRANCH   1  17
TORSDOF 5
ENDMDL
MODEL 8
REMARK VINA RESULT:      -7.5      2.410      7.057
REMARK  5 active torsions:
REMARK  status: ('A' for Active; 'I' for Inactive)
REMARK    1  A    between atoms: C_9  and  C_10 
REMARK       I    between atoms: C_10  and  N_11 
REMARK    2  A    between atoms: N_11  and  C_12 
REMARK    3  A    between atoms: C_12  and  C_13 
REMARK    4  A    between atoms: C_15  and  O_16 
REMARK    5  A    between atoms: O_16  and  C_17 
ROOT
HETATM    1  C   UNL     1     -43.379  58.379 -54.995  1.00  0.00     0.273 C 
HETATM    2  N   UNL     1     -42.487  58.246 -53.956  1.00  0.00    -0.351 N 
HETATM    3  O   UNL     1     -44.596  58.343 -54.852  1.00  0.00    -0.266 OA
HETATM    4  H   UNL     1     -41.503  58.275 -54.210  1.00  0.00     0.163 HD
ENDROOT
BRANCH   2   5
HETATM    5  C   UNL     1     -42.890  58.105 -52.582  1.00  0.00     0.161 C 
BRANCH   5   6
HETATM    6  C   UNL     1     -42.650  56.711 -52.064  1.00  0.00    -0.035 A 
HETATM    7  C   UNL     1     -41.556  55.950 -52.490  1.00  0.00     0.066 A 
HETATM    8  C   UNL     1     -41.380  54.681 -51.965  1.00  0.00     0.164 A 
HETATM    9  N   UNL     1     -42.186  54.128 -51.035  1.00  0.00    -0.237 NA
HETATM   10  C   UNL     1     -43.217  54.889 -50.613  1.00  0.00     0.120 A 
HETATM   11  C   UNL     1     -43.487  56.164 -51.087  1.00  0.00     0.028 A 
BRANCH   8  12
HETATM   12  O   UNL     1     -40.306  53.957 -52.449  1.00  0.00    -0.329 OA
BRANCH  12  13
HETATM   13  C   UNL     1     -40.595  52.616 -52.897  1.00  0.00     0.130 C 
HETATM   14  C   UNL     1     -40.304  52.294 -54.387  1.00  0.00     0.032 C 
HETATM   15  C   UNL     1     -39.770  50.927 -53.925  1.00  0.00     0.005 C 
HETATM   16  C   UNL     1     -39.500  51.571 -52.554  1.00  0.00     0.032 C 
ENDBRANCH  12  13
ENDBRANCH   8  12
ENDBRANCH   5   6
ENDBRANCH   2   5
BRANCH   1  17
HETATM   17  C   UNL     1     -42.720  58.586 -56.296  1.00  0.00     0.157 A 
HETATM   18  C   UNL     1     -42.824  57.765 -57.457  1.00  0.00     0.029 A 
HETATM   19  C   UNL     1     -43.496  56.574 -57.801  1.00  0.00     0.023 A 
HETATM   20  C   UNL     1     -42.040  58.393 -58.416  1.00  0.00     0.063 A 
HETATM   21  C   UNL     1     -43.358  56.053 -59.098  1.00  0.00    -0.061 A 
HETATM   22  C   UNL     1     -44.069  54.789 -59.487  1.00  0.00     0.048 C 
HETATM   23  C   UNL     1     -42.558  56.719 -60.036  1.00  0.00     0.009 A 
HETATM   24  C   UNL     1     -41.883  57.902 -59.715  1.00  0.00     0.032 A 
HETATM   25  N   UNL     1     -41.533  59.502 -57.797  1.00  0.00    -0.277 N 
HETATM   26  H   UNL     1     -40.917  60.200 -58.199  1.00  0.00     0.189 HD
HETATM   27  N   UNL     1     -41.920  59.654 -56.517  1.00  0.00    -0.168 NA
ENDBRANCH   1  17
TORSDOF 5
ENDMDL
MODEL 9
REMARK VINA RESULT:      -7.4      1.844      3.009
REMARK  5 active torsions:
REMARK  status: ('A' for Active; 'I' for Inactive)
REMARK    1  A    between atoms: C_9  and  C_10 
REMARK       I    between atoms: C_10  and  N_11 
REMARK    2  A    between atoms: N_11  and  C_12 
REMARK    3  A    between atoms: C_12  and  C_13 
REMARK    4  A    between atoms: C_15  and  O_16 
REMARK    5  A    between atoms: O_16  and  C_17 
ROOT
HETATM    1  C   UNL     1     -41.495  57.075 -50.628  1.00  0.00     0.273 C 
HETATM    2  N   UNL     1     -40.400  57.770 -51.086  1.00  0.00    -0.351 N 
HETATM    3  O   UNL     1     -42.631  57.539 -50.608  1.00  0.00    -0.266 OA
HETATM    4  H   UNL     1     -39.510  57.280 -51.031  1.00  0.00     0.163 HD
ENDROOT
BRANCH   2   5
HETATM    5  C   UNL     1     -40.478  59.095 -51.640  1.00  0.00     0.161 C 
BRANCH   5   6
HETATM    6  C   UNL     1     -41.337  59.140 -52.876  1.00  0.00    -0.035 A 
HETATM    7  C   UNL     1     -41.345  58.091 -53.801  1.00  0.00     0.066 A 
HETATM    8  C   UNL     1     -42.169  58.183 -54.910  1.00  0.00     0.164 A 
HETATM    9  N   UNL     1     -42.999  59.218 -55.151  1.00  0.00    -0.237 NA
HETATM   10  C   UNL     1     -43.002  60.206 -54.232  1.00  0.00     0.120 A 
HETATM   11  C   UNL     1     -42.205  60.214 -53.098  1.00  0.00     0.028 A 
BRANCH   8  12
HETATM   12  O   UNL     1     -42.109  57.137 -55.812  1.00  0.00    -0.329 OA
BRANCH  12  13
HETATM   13  C   UNL     1     -43.149  56.143 -55.700  1.00  0.00     0.130 C 
HETATM   14  C   UNL     1     -42.721  54.658 -55.854  1.00  0.00     0.032 C 
HETATM   15  C   UNL     1     -43.693  54.323 -54.709  1.00  0.00     0.005 C 
HETATM   16  C   UNL     1     -43.541  55.782 -54.243  1.00  0.00     0.032 C 
ENDBRANCH  12  13
ENDBRANCH   8  12
ENDBRANCH   5   6
ENDBRANCH   2   5
BRANCH   1  17
HETATM   17  C   UNL     1     -41.167  55.711 -50.180  1.00  0.00     0.157 A 
HETATM   18  C   UNL     1     -40.845  54.588 -50.997  1.00  0.00     0.029 A 
HETATM   19  C   UNL     1     -40.730  54.338 -52.379  1.00  0.00     0.023 A 
HETATM   20  C   UNL     1     -40.596  53.552 -50.106  1.00  0.00     0.063 A 
HETATM   21  C   UNL     1     -40.368  53.055 -52.822  1.00  0.00    -0.061 A 
HETATM   22  C   UNL     1     -40.234  52.770 -54.291  1.00  0.00     0.048 C 
HETATM   23  C   UNL     1     -40.125  52.039 -51.890  1.00  0.00     0.009 A 
HETATM   24  C   UNL     1     -40.234  52.265 -50.513  1.00  0.00     0.032 A 
HETATM   25  N   UNL     1     -40.781  54.093 -48.864  1.00  0.00    -0.277 N 
HETATM   26  H   UNL     1     -40.681  53.623 -47.971  1.00  0.00     0.189 HD
HETATM   27  N   UNL     1     -41.126  55.393 -48.866  1.00  0.00    -0.168 NA
ENDBRANCH   1  17
TORSDOF 5
ENDMDL
MODEL 10
REMARK VINA RESULT:      -7.4      2.874      4.310
REMARK  5 active torsions:
REMARK  status: ('A' for Active; 'I' for Inactive)
REMARK    1  A    between atoms: C_9  and  C_10 
REMARK       I    between atoms: C_10  and  N_11 
REMARK    2  A    between atoms: N_11  and  C_12 
REMARK    3  A    between atoms: C_12  and  C_13 
REMARK    4  A    between atoms: C_15  and  O_16 
REMARK    5  A    between atoms: O_16  and  C_17 
ROOT
HETATM    1  C   UNL     1     -41.070  54.977 -52.679  1.00  0.00     0.273 C 
HETATM    2  N   UNL     1     -42.020  55.792 -52.110  1.00  0.00    -0.351 N 
HETATM    3  O   UNL     1     -40.574  55.183 -53.782  1.00  0.00    -0.266 OA
HETATM    4  H   UNL     1     -42.366  55.501 -51.199  1.00  0.00     0.163 HD
ENDROOT
BRANCH   2   5
HETATM    5  C   UNL     1     -42.495  57.003 -52.725  1.00  0.00     0.161 C 
BRANCH   5   6
HETATM    6  C   UNL     1     -42.180  58.219 -51.895  1.00  0.00    -0.035 A 
HETATM    7  C   UNL     1     -42.969  59.374 -51.959  1.00  0.00     0.066 A 
HETATM    8  C   UNL     1     -42.638  60.454 -51.158  1.00  0.00     0.164 A 
HETATM    9  N   UNL     1     -41.610  60.462 -50.286  1.00  0.00    -0.237 NA
HETATM   10  C   UNL     1     -40.880  59.330 -50.214  1.00  0.00     0.120 A 
HETATM   11  C   UNL     1     -41.120  58.201 -50.983  1.00  0.00     0.028 A 
BRANCH   8  12
HETATM   12  O   UNL     1     -43.426  61.583 -51.289  1.00  0.00    -0.329 OA
BRANCH  12  13
HETATM   13  C   UNL     1     -44.791  61.459 -50.838  1.00  0.00     0.130 C 
HETATM   14  C   UNL     1     -45.008  61.031 -49.362  1.00  0.00     0.032 C 
HETATM   15  C   UNL     1     -46.157  62.052 -49.297  1.00  0.00     0.005 C 
HETATM   16  C   UNL     1     -45.466  62.801 -50.449  1.00  0.00     0.032 C 
ENDBRANCH  12  13
ENDBRANCH   8  12
ENDBRANCH   5   6
ENDBRANCH   2   5
BRANCH   1  17
HETATM   17  C   UNL     1     -40.697  53.841 -51.820  1.00  0.00     0.157 A 
HETATM   18  C   UNL     1     -40.333  52.526 -52.236  1.00  0.00     0.029 A 
HETATM   19  C   UNL     1     -40.204  51.850 -53.467  1.00  0.00     0.023 A 
HETATM   20  C   UNL     1     -40.052  51.839 -51.062  1.00  0.00     0.063 A 
HETATM   21  C   UNL     1     -39.797  50.506 -53.478  1.00  0.00    -0.061 A 
HETATM   22  C   UNL     1     -39.649  49.769 -54.778  1.00  0.00     0.048 C 
HETATM   23  C   UNL     1     -39.523  49.851 -52.270  1.00  0.00     0.009 A 
HETATM   24  C   UNL     1     -39.645  50.503 -51.038  1.00  0.00     0.032 A 
HETATM   25  N   UNL     1     -40.259  52.744 -50.058  1.00  0.00    -0.277 N 
HETATM   26  H   UNL     1     -40.147  52.589 -49.062  1.00  0.00     0.189 HD
HETATM   27  N   UNL     1     -40.649  53.962 -50.474  1.00  0.00    -0.168 NA
ENDBRANCH   1  17
TORSDOF 5
ENDMDL
