MODEL 1
REMARK VINA RESULT:      -8.7      0.000      0.000
REMARK  5 active torsions:
REMARK  status: ('A' for Active; 'I' for Inactive)
REMARK    1  A    between atoms: C_7  and  C_8 
REMARK    2  A    between atoms: N_9  and  N_10 
REMARK       I    between atoms: N_10  and  C_11 
REMARK    3  A    between atoms: C_11  and  C_12 
REMARK    4  A    between atoms: C_12  and  N_13 
REMARK       I    between atoms: N_13  and  C_14 
REMARK    5  A    between atoms: C_14  and  C_15 
ROOT
HETATM    1  N   UNL     1     -42.447  56.033 -54.565  1.00  0.00    -0.246 N 
HETATM    2  C   UNL     1     -43.518  56.863 -54.275  1.00  0.00     0.255 C 
HETATM    3  O   UNL     1     -44.303  56.716 -53.339  1.00  0.00    -0.270 OA
HETATM    4  H   UNL     1     -41.944  56.165 -55.445  1.00  0.00     0.192 HD
ENDROOT
BRANCH   1   5
HETATM    5  N   UNL     1     -42.170  54.957 -53.774  1.00  0.00    -0.184 NA
HETATM    6  C   UNL     1     -40.948  54.878 -53.358  1.00  0.00     0.153 C 
BRANCH   6   7
HETATM    7  C   UNL     1     -40.523  53.762 -52.532  1.00  0.00     0.018 A 
HETATM    8  C   UNL     1     -40.308  53.771 -51.161  1.00  0.00     0.018 A 
HETATM    9  C   UNL     1     -40.430  54.864 -50.157  1.00  0.00     0.069 C 
HETATM   10  N   UNL     1     -39.933  52.504 -50.787  1.00  0.00    -0.358 N 
HETATM   11  H   UNL     1     -39.716  52.220 -49.842  1.00  0.00     0.166 HD
HETATM   12  C   UNL     1     -39.894  51.669 -51.876  1.00  0.00     0.043 A 
HETATM   13  C   UNL     1     -40.256  52.427 -52.989  1.00  0.00     0.004 A 
HETATM   14  C   UNL     1     -39.568  50.309 -51.956  1.00  0.00     0.030 A 
HETATM   15  C   UNL     1     -40.286  51.792 -54.249  1.00  0.00     0.014 A 
HETATM   16  C   UNL     1     -39.958  50.434 -54.348  1.00  0.00     0.001 A 
HETATM   17  C   UNL     1     -39.607  49.706 -53.215  1.00  0.00     0.002 A 
ENDBRANCH   6   7
ENDBRANCH   1   5
BRANCH   2  18
HETATM   18  C   UNL     1     -43.734  57.953 -55.328  1.00  0.00     0.227 C 
BRANCH  18  19
HETATM   19  N   UNL     1     -44.368  57.492 -56.559  1.00  0.00    -0.348 N 
HETATM   20  C   UNL     1     -43.632  57.056 -57.637  1.00  0.00     0.252 C 
HETATM   21  O   UNL     1     -42.411  57.190 -57.666  1.00  0.00    -0.268 OA
HETATM   22  H   UNL     1     -45.371  57.597 -56.619  1.00  0.00     0.163 HD
BRANCH  20  23
HETATM   23  C   UNL     1     -44.357  56.477 -58.805  1.00  0.00     0.035 A 
HETATM   24  C   UNL     1     -45.570  57.073 -59.175  1.00  0.00     0.059 A 
HETATM   25  C   UNL     1     -46.279  56.582 -60.264  1.00  0.00     0.117 A 
HETATM   26  F   UNL     1     -47.436  57.161 -60.612  1.00  0.00    -0.206 F 
HETATM   27  C   UNL     1     -45.808  55.502 -61.000  1.00  0.00     0.042 A 
HETATM   28  C   UNL     1     -44.599  54.907 -60.645  1.00  0.00     0.004 A 
HETATM   29  C   UNL     1     -43.871  55.394 -59.554  1.00  0.00     0.017 A 
ENDBRANCH  20  23
ENDBRANCH  18  19
ENDBRANCH   2  18
TORSDOF 5
ENDMDL
MODEL 2
REMARK VINA RESULT:      -8.5      1.900      2.269
REMARK  5 active torsions:
REMARK  status: ('A' for Active; 'I' for Inactive)
REMARK    1  A    between atoms: C_7  and  C_8 
REMARK    2  A    between atoms: N_9  and  N_10 
REMARK       I    between atoms: N_10  and  C_11 
REMARK    3  A    between atoms: C_11  and  C_12 
REMARK    4  A    between atoms: C_12  and  N_13 
REMARK       I    between atoms: N_13  and  C_14 
REMARK    5  A    between atoms: C_14  and  C_15 
ROOT
HETATM    1  N   UNL     1     -42.460  56.513 -53.445  1.00  0.00    -0.246 N 
HETATM    2  C   UNL     1     -42.935  57.669 -52.846  1.00  0.00     0.255 C 
HETATM    3  O   UNL     1     -43.099  57.832 -51.638  1.00  0.00    -0.270 OA
HETATM    4  H   UNL     1     -42.495  56.435 -54.463  1.00  0.00     0.192 HD
ENDROOT
BRANCH   1   5
HETATM    5  N   UNL     1     -42.106  55.435 -52.687  1.00  0.00    -0.184 NA
HETATM    6  C   UNL     1     -40.971  54.895 -52.993  1.00  0.00     0.153 C 
BRANCH   6   7
HETATM    7  C   UNL     1     -40.498  53.724 -52.278  1.00  0.00     0.018 A 
HETATM    8  C   UNL     1     -40.195  53.636 -50.926  1.00  0.00     0.018 A 
HETATM    9  C   UNL     1     -40.248  54.654 -49.841  1.00  0.00     0.069 C 
HETATM   10  N   UNL     1     -39.802  52.346 -50.668  1.00  0.00    -0.358 N 
HETATM   11  H   UNL     1     -39.525  51.995 -49.762  1.00  0.00     0.166 HD
HETATM   12  C   UNL     1     -39.836  51.590 -51.814  1.00  0.00     0.043 A 
HETATM   13  C   UNL     1     -40.266  52.425 -52.845  1.00  0.00     0.004 A 
HETATM   14  C   UNL     1     -39.520  50.240 -52.011  1.00  0.00     0.030 A 
HETATM   15  C   UNL     1     -40.379  51.881 -54.142  1.00  0.00     0.014 A 
HETATM   16  C   UNL     1     -40.063  50.534 -54.358  1.00  0.00     0.001 A 
HETATM   17  C   UNL     1     -39.643  49.727 -53.304  1.00  0.00     0.002 A 
ENDBRANCH   6   7
ENDBRANCH   1   5
BRANCH   2  18
HETATM   18  C   UNL     1     -43.377  58.730 -53.857  1.00  0.00     0.227 C 
BRANCH  18  19
HETATM   19  N   UNL     1     -43.379  58.283 -55.246  1.00  0.00    -0.348 N 
HETATM   20  C   UNL     1     -42.441  58.722 -56.152  1.00  0.00     0.252 C 
HETATM   21  O   UNL     1     -41.663  59.630 -55.870  1.00  0.00    -0.268 OA
HETATM   22  H   UNL     1     -44.158  57.710 -55.537  1.00  0.00     0.163 HD
BRANCH  20  23
HETATM   23  C   UNL     1     -42.432  58.114 -57.515  1.00  0.00     0.035 A 
HETATM   24  C   UNL     1     -42.997  56.841 -57.660  1.00  0.00     0.059 A 
HETATM   25  C   UNL     1     -43.028  56.235 -58.911  1.00  0.00     0.117 A 
HETATM   26  F   UNL     1     -43.573  55.018 -59.040  1.00  0.00    -0.206 F 
HETATM   27  C   UNL     1     -42.505  56.871 -60.029  1.00  0.00     0.042 A 
HETATM   28  C   UNL     1     -41.948  58.141 -59.898  1.00  0.00     0.004 A 
HETATM   29  C   UNL     1     -41.915  58.766 -58.646  1.00  0.00     0.017 A 
ENDBRANCH  20  23
ENDBRANCH  18  19
ENDBRANCH   2  18
TORSDOF 5
ENDMDL
MODEL 3
REMARK VINA RESULT:      -8.2      3.316      8.679
REMARK  5 active torsions:
REMARK  status: ('A' for Active; 'I' for Inactive)
REMARK    1  A    between atoms: C_7  and  C_8 
REMARK    2  A    between atoms: N_9  and  N_10 
REMARK       I    between atoms: N_10  and  C_11 
REMARK    3  A    between atoms: C_11  and  C_12 
REMARK    4  A    between atoms: C_12  and  N_13 
REMARK       I    between atoms: N_13  and  C_14 
REMARK    5  A    between atoms: C_14  and  C_15 
ROOT
HETATM    1  N   UNL     1     -42.336  55.913 -54.587  1.00  0.00    -0.246 N 
HETATM    2  C   UNL     1     -42.555  56.020 -53.223  1.00  0.00     0.255 C 
HETATM    3  O   UNL     1     -43.561  56.493 -52.696  1.00  0.00    -0.270 OA
HETATM    4  H   UNL     1     -41.409  55.637 -54.917  1.00  0.00     0.192 HD
ENDROOT
BRANCH   1   5
HETATM    5  N   UNL     1     -43.284  56.328 -55.476  1.00  0.00    -0.184 NA
HETATM    6  C   UNL     1     -42.833  56.691 -56.633  1.00  0.00     0.153 C 
BRANCH   6   7
HETATM    7  C   UNL     1     -43.741  57.180 -57.655  1.00  0.00     0.018 A 
HETATM    8  C   UNL     1     -44.261  58.463 -57.767  1.00  0.00     0.018 A 
HETATM    9  C   UNL     1     -44.070  59.674 -56.924  1.00  0.00     0.069 C 
HETATM   10  N   UNL     1     -45.059  58.494 -58.884  1.00  0.00    -0.358 N 
HETATM   11  H   UNL     1     -45.565  59.305 -59.211  1.00  0.00     0.166 HD
HETATM   12  C   UNL     1     -45.079  57.268 -59.502  1.00  0.00     0.043 A 
HETATM   13  C   UNL     1     -44.264  56.418 -58.754  1.00  0.00     0.004 A 
HETATM   14  C   UNL     1     -45.753  56.853 -60.657  1.00  0.00     0.030 A 
HETATM   15  C   UNL     1     -44.122  55.081 -59.183  1.00  0.00     0.014 A 
HETATM   16  C   UNL     1     -44.792  54.648 -60.333  1.00  0.00     0.001 A 
HETATM   17  C   UNL     1     -45.593  55.525 -61.059  1.00  0.00     0.002 A 
ENDBRANCH   6   7
ENDBRANCH   1   5
BRANCH   2  18
HETATM   18  C   UNL     1     -41.343  55.603 -52.386  1.00  0.00     0.227 C 
BRANCH  18  19
HETATM   19  N   UNL     1     -41.093  54.166 -52.352  1.00  0.00    -0.348 N 
HETATM   20  C   UNL     1     -40.404  53.524 -53.356  1.00  0.00     0.252 C 
HETATM   21  O   UNL     1     -40.112  54.107 -54.397  1.00  0.00    -0.268 OA
HETATM   22  H   UNL     1     -41.532  53.647 -51.605  1.00  0.00     0.163 HD
BRANCH  20  23
HETATM   23  C   UNL     1     -40.076  52.079 -53.180  1.00  0.00     0.035 A 
HETATM   24  C   UNL     1     -39.817  51.628 -51.880  1.00  0.00     0.059 A 
HETATM   25  C   UNL     1     -39.521  50.288 -51.659  1.00  0.00     0.117 A 
HETATM   26  F   UNL     1     -39.277  49.865 -50.411  1.00  0.00    -0.206 F 
HETATM   27  C   UNL     1     -39.475  49.380 -52.708  1.00  0.00     0.042 A 
HETATM   28  C   UNL     1     -39.738  49.817 -54.004  1.00  0.00     0.004 A 
HETATM   29  C   UNL     1     -40.044  51.162 -54.242  1.00  0.00     0.017 A 
ENDBRANCH  20  23
ENDBRANCH  18  19
ENDBRANCH   2  18
TORSDOF 5
ENDMDL
MODEL 4
REMARK VINA RESULT:      -8.2      3.014      3.348
REMARK  5 active torsions:
REMARK  status: ('A' for Active; 'I' for Inactive)
REMARK    1  A    between atoms: C_7  and  C_8 
REMARK    2  A    between atoms: N_9  and  N_10 
REMARK       I    between atoms: N_10  and  C_11 
REMARK    3  A    between atoms: C_11  and  C_12 
REMARK    4  A    between atoms: C_12  and  N_13 
REMARK       I    between atoms: N_13  and  C_14 
REMARK    5  A    between atoms: C_14  and  C_15 
ROOT
HETATM    1  N   UNL     1     -41.577  57.479 -53.990  1.00  0.00    -0.246 N 
HETATM    2  C   UNL     1     -41.163  58.799 -53.924  1.00  0.00     0.255 C 
HETATM    3  O   UNL     1     -40.187  59.212 -53.299  1.00  0.00    -0.270 OA
HETATM    4  H   UNL     1     -42.480  57.265 -54.420  1.00  0.00     0.192 HD
ENDROOT
BRANCH   1   5
HETATM    5  N   UNL     1     -40.877  56.500 -53.348  1.00  0.00    -0.184 NA
HETATM    6  C   UNL     1     -41.569  55.463 -53.002  1.00  0.00     0.153 C 
BRANCH   6   7
HETATM    7  C   UNL     1     -40.943  54.366 -52.286  1.00  0.00     0.018 A 
HETATM    8  C   UNL     1     -40.606  54.331 -50.940  1.00  0.00     0.018 A 
HETATM    9  C   UNL     1     -40.764  55.347 -49.863  1.00  0.00     0.069 C 
HETATM   10  N   UNL     1     -40.053  53.102 -50.679  1.00  0.00    -0.358 N 
HETATM   11  H   UNL     1     -39.719  52.797 -49.775  1.00  0.00     0.166 HD
HETATM   12  C   UNL     1     -40.016  52.335 -51.817  1.00  0.00     0.043 A 
HETATM   13  C   UNL     1     -40.564  53.100 -52.846  1.00  0.00     0.004 A 
HETATM   14  C   UNL     1     -39.540  51.032 -52.009  1.00  0.00     0.030 A 
HETATM   15  C   UNL     1     -40.634  52.531 -54.136  1.00  0.00     0.014 A 
HETATM   16  C   UNL     1     -40.159  51.232 -54.347  1.00  0.00     0.001 A 
HETATM   17  C   UNL     1     -39.623  50.494 -53.295  1.00  0.00     0.002 A 
ENDBRANCH   6   7
ENDBRANCH   1   5
BRANCH   2  18
HETATM   18  C   UNL     1     -42.127  59.766 -54.617  1.00  0.00     0.227 C 
BRANCH  18  19
HETATM   19  N   UNL     1     -41.875  59.960 -56.041  1.00  0.00    -0.348 N 
HETATM   20  C   UNL     1     -42.408  59.123 -56.994  1.00  0.00     0.252 C 
HETATM   21  O   UNL     1     -42.985  58.086 -56.677  1.00  0.00    -0.268 OA
HETATM   22  H   UNL     1     -41.213  60.681 -56.290  1.00  0.00     0.163 HD
BRANCH  20  23
HETATM   23  C   UNL     1     -42.212  59.469 -58.433  1.00  0.00     0.035 A 
HETATM   24  C   UNL     1     -42.017  60.818 -58.753  1.00  0.00     0.059 A 
HETATM   25  C   UNL     1     -41.815  61.193 -60.076  1.00  0.00     0.117 A 
HETATM   26  F   UNL     1     -41.627  62.487 -60.372  1.00  0.00    -0.206 F 
HETATM   27  C   UNL     1     -41.802  60.251 -61.096  1.00  0.00     0.042 A 
HETATM   28  C   UNL     1     -41.987  58.905 -60.787  1.00  0.00     0.004 A 
HETATM   29  C   UNL     1     -42.186  58.511 -59.459  1.00  0.00     0.017 A 
ENDBRANCH  20  23
ENDBRANCH  18  19
ENDBRANCH   2  18
TORSDOF 5
ENDMDL
MODEL 5
REMARK VINA RESULT:      -8.2      5.899      8.305
REMARK  5 active torsions:
REMARK  status: ('A' for Active; 'I' for Inactive)
REMARK    1  A    between atoms: C_7  and  C_8 
REMARK    2  A    between atoms: N_9  and  N_10 
REMARK       I    between atoms: N_10  and  C_11 
REMARK    3  A    between atoms: C_11  and  C_12 
REMARK    4  A    between atoms: C_12  and  N_13 
REMARK       I    between atoms: N_13  and  C_14 
REMARK    5  A    between atoms: C_14  and  C_15 
ROOT
HETATM    1  N   UNL     1     -43.001  57.605 -50.717  1.00  0.00    -0.246 N 
HETATM    2  C   UNL     1     -44.016  58.023 -51.564  1.00  0.00     0.255 C 
HETATM    3  O   UNL     1     -44.632  57.305 -52.350  1.00  0.00    -0.270 OA
HETATM    4  H   UNL     1     -42.461  58.308 -50.209  1.00  0.00     0.192 HD
ENDROOT
BRANCH   1   5
HETATM    5  N   UNL     1     -42.620  56.295 -50.687  1.00  0.00    -0.184 NA
HETATM    6  C   UNL     1     -41.385  56.074 -51.002  1.00  0.00     0.153 C 
BRANCH   6   7
HETATM    7  C   UNL     1     -40.867  54.718 -51.035  1.00  0.00     0.018 A 
HETATM    8  C   UNL     1     -40.528  53.927 -49.945  1.00  0.00     0.018 A 
HETATM    9  C   UNL     1     -40.578  54.199 -48.483  1.00  0.00     0.069 C 
HETATM   10  N   UNL     1     -40.098  52.715 -50.427  1.00  0.00    -0.358 N 
HETATM   11  H   UNL     1     -39.790  51.941 -49.854  1.00  0.00     0.166 HD
HETATM   12  C   UNL     1     -40.143  52.693 -51.799  1.00  0.00     0.043 A 
HETATM   13  C   UNL     1     -40.618  53.937 -52.214  1.00  0.00     0.004 A 
HETATM   14  C   UNL     1     -39.800  51.673 -52.694  1.00  0.00     0.030 A 
HETATM   15  C   UNL     1     -40.751  54.173 -53.599  1.00  0.00     0.014 A 
HETATM   16  C   UNL     1     -40.409  53.166 -54.509  1.00  0.00     0.001 A 
HETATM   17  C   UNL     1     -39.943  51.933 -54.059  1.00  0.00     0.002 A 
ENDBRANCH   6   7
ENDBRANCH   1   5
BRANCH   2  18
HETATM   18  C   UNL     1     -44.234  59.538 -51.536  1.00  0.00     0.227 C 
BRANCH  18  19
HETATM   19  N   UNL     1     -44.264  60.123 -50.200  1.00  0.00    -0.348 N 
HETATM   20  C   UNL     1     -45.248  61.006 -49.815  1.00  0.00     0.252 C 
HETATM   21  O   UNL     1     -46.046  61.461 -50.631  1.00  0.00    -0.268 OA
HETATM   22  H   UNL     1     -43.477  59.925 -49.599  1.00  0.00     0.163 HD
BRANCH  20  23
HETATM   23  C   UNL     1     -45.283  61.454 -48.392  1.00  0.00     0.035 A 
HETATM   24  C   UNL     1     -45.496  60.477 -47.411  1.00  0.00     0.059 A 
HETATM   25  C   UNL     1     -45.524  60.838 -46.069  1.00  0.00     0.117 A 
HETATM   26  F   UNL     1     -45.725  59.895 -45.138  1.00  0.00    -0.206 F 
HETATM   27  C   UNL     1     -45.343  62.157 -45.677  1.00  0.00     0.042 A 
HETATM   28  C   UNL     1     -45.123  63.136 -46.644  1.00  0.00     0.004 A 
HETATM   29  C   UNL     1     -45.087  62.787 -47.999  1.00  0.00     0.017 A 
ENDBRANCH  20  23
ENDBRANCH  18  19
ENDBRANCH   2  18
TORSDOF 5
ENDMDL
MODEL 6
REMARK VINA RESULT:      -8.2      1.266      1.268
REMARK  5 active torsions:
REMARK  status: ('A' for Active; 'I' for Inactive)
REMARK    1  A    between atoms: C_7  and  C_8 
REMARK    2  A    between atoms: N_9  and  N_10 
REMARK       I    between atoms: N_10  and  C_11 
REMARK    3  A    between atoms: C_11  and  C_12 
REMARK    4  A    between atoms: C_12  and  N_13 
REMARK       I    between atoms: N_13  and  C_14 
REMARK    5  A    between atoms: C_14  and  C_15 
ROOT
HETATM    1  N   UNL     1     -42.151  57.014 -54.776  1.00  0.00    -0.246 N 
HETATM    2  C   UNL     1     -41.933  58.378 -54.894  1.00  0.00     0.255 C 
HETATM    3  O   UNL     1     -41.082  59.021 -54.281  1.00  0.00    -0.270 OA
HETATM    4  H   UNL     1     -42.975  56.606 -55.223  1.00  0.00     0.192 HD
ENDROOT
BRANCH   1   5
HETATM    5  N   UNL     1     -41.378  56.258 -53.945  1.00  0.00    -0.184 NA
HETATM    6  C   UNL     1     -41.852  55.087 -53.665  1.00  0.00     0.153 C 
BRANCH   6   7
HETATM    7  C   UNL     1     -41.135  54.200 -52.767  1.00  0.00     0.018 A 
HETATM    8  C   UNL     1     -40.794  54.446 -51.444  1.00  0.00     0.018 A 
HETATM    9  C   UNL     1     -41.035  55.630 -50.574  1.00  0.00     0.069 C 
HETATM   10  N   UNL     1     -40.140  53.337 -50.967  1.00  0.00    -0.358 N 
HETATM   11  H   UNL     1     -39.780  53.236 -50.028  1.00  0.00     0.166 HD
HETATM   12  C   UNL     1     -40.039  52.375 -51.942  1.00  0.00     0.043 A 
HETATM   13  C   UNL     1     -40.652  52.886 -53.087  1.00  0.00     0.004 A 
HETATM   14  C   UNL     1     -39.456  51.103 -51.894  1.00  0.00     0.030 A 
HETATM   15  C   UNL     1     -40.674  52.082 -54.246  1.00  0.00     0.014 A 
HETATM   16  C   UNL     1     -40.093  50.809 -54.218  1.00  0.00     0.001 A 
HETATM   17  C   UNL     1     -39.495  50.328 -53.056  1.00  0.00     0.002 A 
ENDBRANCH   6   7
ENDBRANCH   1   5
BRANCH   2  18
HETATM   18  C   UNL     1     -42.961  59.074 -55.789  1.00  0.00     0.227 C 
BRANCH  18  19
HETATM   19  N   UNL     1     -43.699  58.181 -56.676  1.00  0.00    -0.348 N 
HETATM   20  C   UNL     1     -43.328  57.990 -57.988  1.00  0.00     0.252 C 
HETATM   21  O   UNL     1     -42.461  58.686 -58.510  1.00  0.00    -0.268 OA
HETATM   22  H   UNL     1     -44.551  57.781 -56.311  1.00  0.00     0.163 HD
BRANCH  20  23
HETATM   23  C   UNL     1     -44.053  56.960 -58.788  1.00  0.00     0.035 A 
HETATM   24  C   UNL     1     -45.271  57.333 -59.372  1.00  0.00     0.059 A 
HETATM   25  C   UNL     1     -45.980  56.417 -60.140  1.00  0.00     0.117 A 
HETATM   26  F   UNL     1     -47.142  56.784 -60.696  1.00  0.00    -0.206 F 
HETATM   27  C   UNL     1     -45.503  55.128 -60.341  1.00  0.00     0.042 A 
HETATM   28  C   UNL     1     -44.290  54.749 -59.771  1.00  0.00     0.004 A 
HETATM   29  C   UNL     1     -43.561  55.663 -59.001  1.00  0.00     0.017 A 
ENDBRANCH  20  23
ENDBRANCH  18  19
ENDBRANCH   2  18
TORSDOF 5
ENDMDL
MODEL 7
REMARK VINA RESULT:      -8.0     15.307     17.869
REMARK  5 active torsions:
REMARK  status: ('A' for Active; 'I' for Inactive)
REMARK    1  A    between atoms: C_7  and  C_8 
REMARK    2  A    between atoms: N_9  and  N_10 
REMARK       I    between atoms: N_10  and  C_11 
REMARK    3  A    between atoms: C_11  and  C_12 
REMARK    4  A    between atoms: C_12  and  N_13 
REMARK       I    between atoms: N_13  and  C_14 
REMARK    5  A    between atoms: C_14  and  C_15 
ROOT
HETATM    1  N   UNL     1     -38.979  39.575 -51.281  1.00  0.00    -0.246 N 
HETATM    2  C   UNL     1     -39.069  38.335 -50.669  1.00  0.00     0.255 C 
HETATM    3  O   UNL     1     -38.271  37.409 -50.810  1.00  0.00    -0.270 OA
HETATM    4  H   UNL     1     -39.768  40.221 -51.206  1.00  0.00     0.192 HD
ENDROOT
BRANCH   1   5
HETATM    5  N   UNL     1     -37.932  39.867 -52.105  1.00  0.00    -0.184 NA
HETATM    6  C   UNL     1     -37.854  41.103 -52.481  1.00  0.00     0.153 C 
BRANCH   6   7
HETATM    7  C   UNL     1     -36.799  41.531 -53.382  1.00  0.00     0.018 A 
HETATM    8  C   UNL     1     -35.515  41.930 -53.036  1.00  0.00     0.018 A 
HETATM    9  C   UNL     1     -34.848  42.044 -51.710  1.00  0.00     0.069 C 
HETATM   10  N   UNL     1     -34.845  42.234 -54.195  1.00  0.00    -0.358 N 
HETATM   11  H   UNL     1     -33.887  42.550 -54.244  1.00  0.00     0.166 HD
HETATM   12  C   UNL     1     -35.657  42.050 -55.288  1.00  0.00     0.043 A 
HETATM   13  C   UNL     1     -36.892  41.612 -54.812  1.00  0.00     0.004 A 
HETATM   14  C   UNL     1     -35.389  42.238 -56.649  1.00  0.00     0.030 A 
HETATM   15  C   UNL     1     -37.915  41.355 -55.750  1.00  0.00     0.014 A 
HETATM   16  C   UNL     1     -37.667  41.541 -57.115  1.00  0.00     0.001 A 
HETATM   17  C   UNL     1     -36.419  41.974 -57.555  1.00  0.00     0.002 A 
ENDBRANCH   6   7
ENDBRANCH   1   5
BRANCH   2  18
HETATM   18  C   UNL     1     -40.360  38.154 -49.866  1.00  0.00     0.227 C 
BRANCH  18  19
HETATM   19  N   UNL     1     -40.257  38.520 -48.458  1.00  0.00    -0.348 N 
HETATM   20  C   UNL     1     -41.370  38.778 -47.690  1.00  0.00     0.252 C 
HETATM   21  O   UNL     1     -42.484  38.867 -48.199  1.00  0.00    -0.268 OA
HETATM   22  H   UNL     1     -39.326  38.669 -48.095  1.00  0.00     0.163 HD
BRANCH  20  23
HETATM   23  C   UNL     1     -41.185  39.014 -46.228  1.00  0.00     0.035 A 
HETATM   24  C   UNL     1     -41.358  40.321 -45.757  1.00  0.00     0.059 A 
HETATM   25  C   UNL     1     -41.212  40.593 -44.402  1.00  0.00     0.117 A 
HETATM   26  F   UNL     1     -41.382  41.847 -43.960  1.00  0.00    -0.206 F 
HETATM   27  C   UNL     1     -40.896  39.588 -43.497  1.00  0.00     0.042 A 
HETATM   28  C   UNL     1     -40.729  38.283 -43.955  1.00  0.00     0.004 A 
HETATM   29  C   UNL     1     -40.879  37.992 -45.316  1.00  0.00     0.017 A 
ENDBRANCH  20  23
ENDBRANCH  18  19
ENDBRANCH   2  18
TORSDOF 5
ENDMDL
MODEL 8
REMARK VINA RESULT:      -7.8      4.964      6.748
REMARK  5 active torsions:
REMARK  status: ('A' for Active; 'I' for Inactive)
REMARK    1  A    between atoms: C_7  and  C_8 
REMARK    2  A    between atoms: N_9  and  N_10 
REMARK       I    between atoms: N_10  and  C_11 
REMARK    3  A    between atoms: C_11  and  C_12 
REMARK    4  A    between atoms: C_12  and  N_13 
REMARK       I    between atoms: N_13  and  C_14 
REMARK    5  A    between atoms: C_14  and  C_15 
ROOT
HETATM    1  N   UNL     1     -41.908  57.853 -53.001  1.00  0.00    -0.246 N 
HETATM    2  C   UNL     1     -41.295  59.053 -53.323  1.00  0.00     0.255 C 
HETATM    3  O   UNL     1     -40.087  59.279 -53.255  1.00  0.00    -0.270 OA
HETATM    4  H   UNL     1     -42.929  57.817 -52.957  1.00  0.00     0.192 HD
ENDROOT
BRANCH   1   5
HETATM    5  N   UNL     1     -41.167  56.784 -52.589  1.00  0.00    -0.184 NA
HETATM    6  C   UNL     1     -41.851  55.767 -52.173  1.00  0.00     0.153 C 
BRANCH   6   7
HETATM    7  C   UNL     1     -41.175  54.580 -51.681  1.00  0.00     0.018 A 
HETATM    8  C   UNL     1     -40.880  54.274 -50.359  1.00  0.00     0.018 A 
HETATM    9  C   UNL     1     -41.139  55.022 -49.098  1.00  0.00     0.069 C 
HETATM   10  N   UNL     1     -40.254  53.052 -50.343  1.00  0.00    -0.358 N 
HETATM   11  H   UNL     1     -39.929  52.579 -49.511  1.00  0.00     0.166 HD
HETATM   12  C   UNL     1     -40.130  52.553 -51.616  1.00  0.00     0.043 A 
HETATM   13  C   UNL     1     -40.695  53.489 -52.481  1.00  0.00     0.004 A 
HETATM   14  C   UNL     1     -39.562  51.352 -52.060  1.00  0.00     0.030 A 
HETATM   15  C   UNL     1     -40.686  53.211 -53.864  1.00  0.00     0.014 A 
HETATM   16  C   UNL     1     -40.119  52.017 -54.327  1.00  0.00     0.001 A 
HETATM   17  C   UNL     1     -39.568  51.102 -53.434  1.00  0.00     0.002 A 
ENDBRANCH   6   7
ENDBRANCH   1   5
BRANCH   2  18
HETATM   18  C   UNL     1     -42.292  60.164 -53.663  1.00  0.00     0.227 C 
BRANCH  18  19
HETATM   19  N   UNL     1     -42.895  60.815 -52.505  1.00  0.00    -0.348 N 
HETATM   20  C   UNL     1     -44.199  60.575 -52.134  1.00  0.00     0.252 C 
HETATM   21  O   UNL     1     -44.955  59.930 -52.856  1.00  0.00    -0.268 OA
HETATM   22  H   UNL     1     -42.342  61.522 -52.042  1.00  0.00     0.163 HD
BRANCH  20  23
HETATM   23  C   UNL     1     -44.697  61.176 -50.863  1.00  0.00     0.035 A 
HETATM   24  C   UNL     1     -45.939  61.824 -50.896  1.00  0.00     0.059 A 
HETATM   25  C   UNL     1     -46.456  62.389 -49.736  1.00  0.00     0.117 A 
HETATM   26  F   UNL     1     -47.646  63.005 -49.777  1.00  0.00    -0.206 F 
HETATM   27  C   UNL     1     -45.763  62.324 -48.534  1.00  0.00     0.042 A 
HETATM   28  C   UNL     1     -44.531  61.675 -48.489  1.00  0.00     0.004 A 
HETATM   29  C   UNL     1     -44.000  61.097 -49.647  1.00  0.00     0.017 A 
ENDBRANCH  20  23
ENDBRANCH  18  19
ENDBRANCH   2  18
TORSDOF 5
ENDMDL
MODEL 9
REMARK VINA RESULT:      -7.7      3.456      4.106
REMARK  5 active torsions:
REMARK  status: ('A' for Active; 'I' for Inactive)
REMARK    1  A    between atoms: C_7  and  C_8 
REMARK    2  A    between atoms: N_9  and  N_10 
REMARK       I    between atoms: N_10  and  C_11 
REMARK    3  A    between atoms: C_11  and  C_12 
REMARK    4  A    between atoms: C_12  and  N_13 
REMARK       I    between atoms: N_13  and  C_14 
REMARK    5  A    between atoms: C_14  and  C_15 
ROOT
HETATM    1  N   UNL     1     -42.631  56.938 -55.634  1.00  0.00    -0.246 N 
HETATM    2  C   UNL     1     -43.108  56.433 -56.833  1.00  0.00     0.255 C 
HETATM    3  O   UNL     1     -42.823  55.335 -57.310  1.00  0.00    -0.270 OA
HETATM    4  H   UNL     1     -42.819  57.915 -55.401  1.00  0.00     0.192 HD
ENDROOT
BRANCH   1   5
HETATM    5  N   UNL     1     -41.786  56.199 -54.858  1.00  0.00    -0.184 NA
HETATM    6  C   UNL     1     -42.337  55.624 -53.838  1.00  0.00     0.153 C 
BRANCH   6   7
HETATM    7  C   UNL     1     -41.536  54.834 -52.920  1.00  0.00     0.018 A 
HETATM    8  C   UNL     1     -41.194  55.161 -51.615  1.00  0.00     0.018 A 
HETATM    9  C   UNL     1     -41.513  56.358 -50.789  1.00  0.00     0.069 C 
HETATM   10  N   UNL     1     -40.446  54.128 -51.107  1.00  0.00    -0.358 N 
HETATM   11  H   UNL     1     -40.063  54.095 -50.173  1.00  0.00     0.166 HD
HETATM   12  C   UNL     1     -40.287  53.137 -52.044  1.00  0.00     0.043 A 
HETATM   13  C   UNL     1     -40.957  53.550 -53.196  1.00  0.00     0.004 A 
HETATM   14  C   UNL     1     -39.605  51.917 -51.957  1.00  0.00     0.030 A 
HETATM   15  C   UNL     1     -40.936  52.698 -54.321  1.00  0.00     0.014 A 
HETATM   16  C   UNL     1     -40.256  51.477 -54.253  1.00  0.00     0.001 A 
HETATM   17  C   UNL     1     -39.603  51.094 -53.085  1.00  0.00     0.002 A 
ENDBRANCH   6   7
ENDBRANCH   1   5
BRANCH   2  18
HETATM   18  C   UNL     1     -43.957  57.440 -57.613  1.00  0.00     0.227 C 
BRANCH  18  19
HETATM   19  N   UNL     1     -43.233  58.626 -58.061  1.00  0.00    -0.348 N 
HETATM   20  C   UNL     1     -42.596  58.670 -59.281  1.00  0.00     0.252 C 
HETATM   21  O   UNL     1     -42.474  57.661 -59.970  1.00  0.00    -0.268 OA
HETATM   22  H   UNL     1     -43.140  59.379 -57.396  1.00  0.00     0.163 HD
BRANCH  20  23
HETATM   23  C   UNL     1     -41.994  59.963 -59.721  1.00  0.00     0.035 A 
HETATM   24  C   UNL     1     -41.408  60.771 -58.738  1.00  0.00     0.059 A 
HETATM   25  C   UNL     1     -40.819  61.979 -59.096  1.00  0.00     0.117 A 
HETATM   26  F   UNL     1     -40.259  62.743 -58.149  1.00  0.00    -0.206 F 
HETATM   27  C   UNL     1     -40.801  62.405 -60.417  1.00  0.00     0.042 A 
HETATM   28  C   UNL     1     -41.375  61.605 -61.403  1.00  0.00     0.004 A 
HETATM   29  C   UNL     1     -41.965  60.384 -61.059  1.00  0.00     0.017 A 
ENDBRANCH  20  23
ENDBRANCH  18  19
ENDBRANCH   2  18
TORSDOF 5
ENDMDL
MODEL 10
REMARK VINA RESULT:      -7.4      6.443      8.919
REMARK  5 active torsions:
REMARK  status: ('A' for Active; 'I' for Inactive)
REMARK    1  A    between atoms: C_7  and  C_8 
REMARK    2  A    between atoms: N_9  and  N_10 
REMARK       I    between atoms: N_10  and  C_11 
REMARK    3  A    between atoms: C_11  and  C_12 
REMARK    4  A    between atoms: C_12  and  N_13 
REMARK       I    between atoms: N_13  and  C_14 
REMARK    5  A    between atoms: C_14  and  C_15 
ROOT
HETATM    1  N   UNL     1     -43.271  59.093 -51.465  1.00  0.00    -0.246 N 
HETATM    2  C   UNL     1     -42.427  60.192 -51.488  1.00  0.00     0.255 C 
HETATM    3  O   UNL     1     -41.198  60.150 -51.439  1.00  0.00    -0.270 OA
HETATM    4  H   UNL     1     -44.277  59.245 -51.368  1.00  0.00     0.192 HD
ENDROOT
BRANCH   1   5
HETATM    5  N   UNL     1     -42.761  57.829 -51.405  1.00  0.00    -0.184 NA
HETATM    6  C   UNL     1     -43.200  57.014 -52.309  1.00  0.00     0.153 C 
BRANCH   6   7
HETATM    7  C   UNL     1     -42.754  55.633 -52.332  1.00  0.00     0.018 A 
HETATM    8  C   UNL     1     -43.159  54.609 -51.485  1.00  0.00     0.018 A 
HETATM    9  C   UNL     1     -44.118  54.601 -50.346  1.00  0.00     0.069 C 
HETATM   10  N   UNL     1     -42.504  53.466 -51.869  1.00  0.00    -0.358 N 
HETATM   11  H   UNL     1     -42.610  52.562 -51.428  1.00  0.00     0.166 HD
HETATM   12  C   UNL     1     -41.680  53.713 -52.939  1.00  0.00     0.043 A 
HETATM   13  C   UNL     1     -41.811  55.066 -53.254  1.00  0.00     0.004 A 
HETATM   14  C   UNL     1     -40.836  52.846 -53.644  1.00  0.00     0.030 A 
HETATM   15  C   UNL     1     -41.051  55.577 -54.328  1.00  0.00     0.014 A 
HETATM   16  C   UNL     1     -40.199  54.726 -55.041  1.00  0.00     0.001 A 
HETATM   17  C   UNL     1     -40.098  53.379 -54.703  1.00  0.00     0.002 A 
ENDBRANCH   6   7
ENDBRANCH   1   5
BRANCH   2  18
HETATM   18  C   UNL     1     -43.178  61.526 -51.451  1.00  0.00     0.227 C 
BRANCH  18  19
HETATM   19  N   UNL     1     -43.511  61.998 -50.111  1.00  0.00    -0.348 N 
HETATM   20  C   UNL     1     -44.655  61.593 -49.462  1.00  0.00     0.252 C 
HETATM   21  O   UNL     1     -45.521  60.946 -50.046  1.00  0.00    -0.268 OA
HETATM   22  H   UNL     1     -42.912  62.710 -49.719  1.00  0.00     0.163 HD
BRANCH  20  23
HETATM   23  C   UNL     1     -44.855  62.016 -48.045  1.00  0.00     0.035 A 
HETATM   24  C   UNL     1     -44.801  61.022 -47.059  1.00  0.00     0.059 A 
HETATM   25  C   UNL     1     -44.966  61.364 -45.722  1.00  0.00     0.117 A 
HETATM   26  F   UNL     1     -44.910  60.407 -44.786  1.00  0.00    -0.206 F 
HETATM   27  C   UNL     1     -45.185  62.681 -45.339  1.00  0.00     0.042 A 
HETATM   28  C   UNL     1     -45.233  63.678 -46.311  1.00  0.00     0.004 A 
HETATM   29  C   UNL     1     -45.063  63.350 -47.661  1.00  0.00     0.017 A 
ENDBRANCH  20  23
ENDBRANCH  18  19
ENDBRANCH   2  18
TORSDOF 5
ENDMDL
