MODEL 1
REMARK VINA RESULT:      -7.6      0.000      0.000
REMARK  9 active torsions:
REMARK  status: ('A' for Active; 'I' for Inactive)
REMARK    1  A    between atoms: C_4  and  S_5 
REMARK    2  A    between atoms: S_5  and  C_6 
REMARK    3  A    between atoms: C_6  and  C_7 
REMARK       I    between atoms: C_7  and  N_8 
REMARK    4  A    between atoms: C_13  and  C_14 
REMARK    5  A    between atoms: C_14  and  C_15 
REMARK    6  A    between atoms: C_15  and  C_16 
REMARK       I    between atoms: C_16  and  N_17 
REMARK    7  A    between atoms: N_17  and  C_18 
REMARK    8  A    between atoms: C_19  and  O_20 
REMARK    9  A    between atoms: C_24  and  C_25 
ROOT
HETATM    1  C   UNL     1     -42.886  57.341 -51.684  1.00  0.00     0.108 C 
ENDROOT
BRANCH   1   2
HETATM    2  C   UNL     1     -43.719  58.162 -52.679  1.00  0.00     0.052 C 
BRANCH   2   3
HETATM    3  C   UNL     1     -43.333  58.124 -54.141  1.00  0.00    -0.009 A 
HETATM    4  C   UNL     1     -43.645  57.029 -54.954  1.00  0.00     0.042 A 
HETATM    5  C   UNL     1     -44.381  55.822 -54.445  1.00  0.00     0.071 C 
HETATM    6  N   UNL     1     -43.284  56.952 -56.253  1.00  0.00    -0.228 NA
HETATM    7  C   UNL     1     -42.615  57.987 -56.767  1.00  0.00     0.189 A 
HETATM    8  N   UNL     1     -42.245  59.070 -56.075  1.00  0.00    -0.228 NA
HETATM    9  C   UNL     1     -42.597  59.128 -54.771  1.00  0.00     0.042 A 
HETATM   10  C   UNL     1     -42.140  60.371 -54.065  1.00  0.00     0.071 C 
BRANCH   7  11
HETATM   11  S   UNL     1     -42.113  57.907 -58.466  1.00  0.00    -0.081 SA
BRANCH  11  12
HETATM   12  C   UNL     1     -43.747  57.664 -59.233  1.00  0.00     0.185 C 
BRANCH  12  13
HETATM   13  C   UNL     1     -43.883  56.240 -59.731  1.00  0.00     0.225 C 
HETATM   14  N   UNL     1     -43.989  55.276 -58.767  1.00  0.00    -0.370 N 
HETATM   15  H   UNL     1     -43.632  55.458 -57.837  1.00  0.00     0.159 HD
HETATM   16  H   UNL     1     -43.995  54.317 -59.090  1.00  0.00     0.159 HD
HETATM   17  O   UNL     1     -43.975  55.942 -60.919  1.00  0.00    -0.273 OA
ENDBRANCH  12  13
ENDBRANCH  11  12
ENDBRANCH   7  11
ENDBRANCH   2   3
ENDBRANCH   1   2
BRANCH   1  18
HETATM   18  C   UNL     1     -43.694  56.378 -50.835  1.00  0.00     0.222 C 
HETATM   19  N   UNL     1     -43.146  55.183 -50.471  1.00  0.00    -0.325 N 
HETATM   20  H   UNL     1     -43.599  54.772 -49.658  1.00  0.00     0.169 HD
HETATM   21  O   UNL     1     -44.812  56.672 -50.406  1.00  0.00    -0.273 OA
BRANCH  19  22
HETATM   22  C   UNL     1     -42.080  54.417 -50.984  1.00  0.00     0.069 A 
HETATM   23  C   UNL     1     -41.173  53.878 -50.053  1.00  0.00     0.095 A 
HETATM   24  C   UNL     1     -40.132  53.065 -50.500  1.00  0.00     0.039 A 
HETATM   25  C   UNL     1     -40.007  52.767 -51.860  1.00  0.00     0.011 A 
HETATM   26  C   UNL     1     -40.918  53.259 -52.811  1.00  0.00    -0.048 A 
HETATM   27  C   UNL     1     -41.952  54.092 -52.341  1.00  0.00     0.040 A 
BRANCH  23  28
HETATM   28  O   UNL     1     -41.400  54.209 -48.738  1.00  0.00    -0.354 OA
HETATM   29  C   UNL     1     -40.378  53.882 -47.804  1.00  0.00     0.210 C 
ENDBRANCH  23  28
BRANCH  26  30
HETATM   30  C   UNL     1     -40.791  52.845 -54.289  1.00  0.00    -0.024 C 
HETATM   31  C   UNL     1     -42.196  52.793 -54.930  1.00  0.00     0.019 C 
HETATM   32  C   UNL     1     -39.938  53.813 -55.142  1.00  0.00     0.019 C 
HETATM   33  C   UNL     1     -40.135  51.453 -54.390  1.00  0.00     0.019 C 
ENDBRANCH  26  30
ENDBRANCH  19  22
ENDBRANCH   1  18
TORSDOF 9
ENDMDL
MODEL 2
REMARK VINA RESULT:      -7.4      1.954      3.165
REMARK  9 active torsions:
REMARK  status: ('A' for Active; 'I' for Inactive)
REMARK    1  A    between atoms: C_4  and  S_5 
REMARK    2  A    between atoms: S_5  and  C_6 
REMARK    3  A    between atoms: C_6  and  C_7 
REMARK       I    between atoms: C_7  and  N_8 
REMARK    4  A    between atoms: C_13  and  C_14 
REMARK    5  A    between atoms: C_14  and  C_15 
REMARK    6  A    between atoms: C_15  and  C_16 
REMARK       I    between atoms: C_16  and  N_17 
REMARK    7  A    between atoms: N_17  and  C_18 
REMARK    8  A    between atoms: C_19  and  O_20 
REMARK    9  A    between atoms: C_24  and  C_25 
ROOT
HETATM    1  C   UNL     1     -41.152  58.673 -53.861  1.00  0.00     0.108 C 
ENDROOT
BRANCH   1   2
HETATM    2  C   UNL     1     -42.552  58.546 -54.478  1.00  0.00     0.052 C 
BRANCH   2   3
HETATM    3  C   UNL     1     -42.659  58.216 -55.950  1.00  0.00    -0.009 A 
HETATM    4  C   UNL     1     -42.501  59.196 -56.935  1.00  0.00     0.042 A 
HETATM    5  C   UNL     1     -42.215  60.636 -56.613  1.00  0.00     0.071 C 
HETATM    6  N   UNL     1     -42.623  58.939 -58.256  1.00  0.00    -0.228 NA
HETATM    7  C   UNL     1     -42.890  57.679 -58.613  1.00  0.00     0.189 A 
HETATM    8  N   UNL     1     -43.083  56.673 -57.755  1.00  0.00    -0.228 NA
HETATM    9  C   UNL     1     -42.976  56.947 -56.435  1.00  0.00     0.042 A 
HETATM   10  C   UNL     1     -43.212  55.766 -55.540  1.00  0.00     0.071 C 
BRANCH   7  11
HETATM   11  S   UNL     1     -43.073  57.314 -60.339  1.00  0.00    -0.081 SA
BRANCH  11  12
HETATM   12  C   UNL     1     -44.786  56.695 -60.318  1.00  0.00     0.185 C 
BRANCH  12  13
HETATM   13  C   UNL     1     -44.810  55.215 -60.643  1.00  0.00     0.225 C 
HETATM   14  N   UNL     1     -44.765  54.366 -59.573  1.00  0.00    -0.370 N 
HETATM   15  H   UNL     1     -44.374  54.688 -58.696  1.00  0.00     0.159 HD
HETATM   16  H   UNL     1     -44.694  53.380 -59.785  1.00  0.00     0.159 HD
HETATM   17  O   UNL     1     -44.940  54.773 -61.781  1.00  0.00    -0.273 OA
ENDBRANCH  12  13
ENDBRANCH  11  12
ENDBRANCH   7  11
ENDBRANCH   2   3
ENDBRANCH   1   2
BRANCH   1  18
HETATM   18  C   UNL     1     -41.141  58.787 -52.348  1.00  0.00     0.222 C 
HETATM   19  N   UNL     1     -41.213  57.655 -51.591  1.00  0.00    -0.325 N 
HETATM   20  H   UNL     1     -40.869  57.790 -50.643  1.00  0.00     0.169 HD
HETATM   21  O   UNL     1     -41.004  59.871 -51.780  1.00  0.00    -0.273 OA
BRANCH  19  22
HETATM   22  C   UNL     1     -41.654  56.343 -51.860  1.00  0.00     0.069 A 
HETATM   23  C   UNL     1     -42.929  55.985 -51.385  1.00  0.00     0.095 A 
HETATM   24  C   UNL     1     -43.438  54.719 -51.672  1.00  0.00     0.039 A 
HETATM   25  C   UNL     1     -42.698  53.822 -52.448  1.00  0.00     0.011 A 
HETATM   26  C   UNL     1     -41.438  54.162 -52.969  1.00  0.00    -0.048 A 
HETATM   27  C   UNL     1     -40.934  55.439 -52.653  1.00  0.00     0.040 A 
BRANCH  23  28
HETATM   28  O   UNL     1     -43.585  56.948 -50.656  1.00  0.00    -0.354 OA
HETATM   29  C   UNL     1     -44.748  57.520 -51.242  1.00  0.00     0.210 C 
ENDBRANCH  23  28
BRANCH  26  30
HETATM   30  C   UNL     1     -40.687  53.176 -53.883  1.00  0.00    -0.024 C 
HETATM   31  C   UNL     1     -39.889  53.965 -54.944  1.00  0.00     0.019 C 
HETATM   32  C   UNL     1     -39.681  52.269 -53.137  1.00  0.00     0.019 C 
HETATM   33  C   UNL     1     -41.695  52.248 -54.593  1.00  0.00     0.019 C 
ENDBRANCH  26  30
ENDBRANCH  19  22
ENDBRANCH   1  18
TORSDOF 9
ENDMDL
MODEL 3
REMARK VINA RESULT:      -7.2      1.985      2.855
REMARK  9 active torsions:
REMARK  status: ('A' for Active; 'I' for Inactive)
REMARK    1  A    between atoms: C_4  and  S_5 
REMARK    2  A    between atoms: S_5  and  C_6 
REMARK    3  A    between atoms: C_6  and  C_7 
REMARK       I    between atoms: C_7  and  N_8 
REMARK    4  A    between atoms: C_13  and  C_14 
REMARK    5  A    between atoms: C_14  and  C_15 
REMARK    6  A    between atoms: C_15  and  C_16 
REMARK       I    between atoms: C_16  and  N_17 
REMARK    7  A    between atoms: N_17  and  C_18 
REMARK    8  A    between atoms: C_19  and  O_20 
REMARK    9  A    between atoms: C_24  and  C_25 
ROOT
HETATM    1  C   UNL     1     -41.449  58.744 -53.989  1.00  0.00     0.108 C 
ENDROOT
BRANCH   1   2
HETATM    2  C   UNL     1     -42.921  58.653 -54.416  1.00  0.00     0.052 C 
BRANCH   2   3
HETATM    3  C   UNL     1     -43.231  58.454 -55.883  1.00  0.00    -0.009 A 
HETATM    4  C   UNL     1     -43.345  57.176 -56.442  1.00  0.00     0.042 A 
HETATM    5  C   UNL     1     -43.171  55.918 -55.639  1.00  0.00     0.071 C 
HETATM    6  N   UNL     1     -43.587  56.967 -57.754  1.00  0.00    -0.228 NA
HETATM    7  C   UNL     1     -43.739  58.044 -58.530  1.00  0.00     0.189 A 
HETATM    8  N   UNL     1     -43.628  59.306 -58.105  1.00  0.00    -0.228 NA
HETATM    9  C   UNL     1     -43.367  59.503 -56.792  1.00  0.00     0.042 A 
HETATM   10  C   UNL     1     -43.252  60.946 -56.397  1.00  0.00     0.071 C 
BRANCH   7  11
HETATM   11  S   UNL     1     -44.042  57.800 -60.260  1.00  0.00    -0.081 SA
BRANCH  11  12
HETATM   12  C   UNL     1     -43.520  56.061 -60.398  1.00  0.00     0.185 C 
BRANCH  12  13
HETATM   13  C   UNL     1     -44.709  55.183 -60.728  1.00  0.00     0.225 C 
HETATM   14  N   UNL     1     -45.502  54.826 -59.672  1.00  0.00    -0.370 N 
HETATM   15  H   UNL     1     -45.118  54.833 -58.735  1.00  0.00     0.159 HD
HETATM   16  H   UNL     1     -46.246  54.172 -59.871  1.00  0.00     0.159 HD
HETATM   17  O   UNL     1     -45.015  54.857 -61.871  1.00  0.00    -0.273 OA
ENDBRANCH  12  13
ENDBRANCH  11  12
ENDBRANCH   7  11
ENDBRANCH   2   3
ENDBRANCH   1   2
BRANCH   1  18
HETATM   18  C   UNL     1     -41.236  58.860 -52.492  1.00  0.00     0.222 C 
HETATM   19  N   UNL     1     -41.173  57.728 -51.734  1.00  0.00    -0.325 N 
HETATM   20  H   UNL     1     -40.707  57.875 -50.842  1.00  0.00     0.169 HD
HETATM   21  O   UNL     1     -41.053  59.949 -51.946  1.00  0.00    -0.273 OA
BRANCH  19  22
HETATM   22  C   UNL     1     -41.609  56.403 -51.944  1.00  0.00     0.069 A 
HETATM   23  C   UNL     1     -42.858  56.047 -51.403  1.00  0.00     0.095 A 
HETATM   24  C   UNL     1     -43.364  54.768 -51.629  1.00  0.00     0.039 A 
HETATM   25  C   UNL     1     -42.648  53.855 -52.409  1.00  0.00     0.011 A 
HETATM   26  C   UNL     1     -41.416  54.192 -52.994  1.00  0.00    -0.048 A 
HETATM   27  C   UNL     1     -40.913  55.484 -52.740  1.00  0.00     0.040 A 
BRANCH  23  28
HETATM   28  O   UNL     1     -43.494  57.025 -50.675  1.00  0.00    -0.354 OA
HETATM   29  C   UNL     1     -44.740  57.494 -51.175  1.00  0.00     0.210 C 
ENDBRANCH  23  28
BRANCH  26  30
HETATM   30  C   UNL     1     -40.694  53.186 -53.910  1.00  0.00    -0.024 C 
HETATM   31  C   UNL     1     -39.691  52.360 -53.074  1.00  0.00     0.019 C 
HETATM   32  C   UNL     1     -41.639  52.182 -54.609  1.00  0.00     0.019 C 
HETATM   33  C   UNL     1     -39.930  53.939 -55.019  1.00  0.00     0.019 C 
ENDBRANCH  26  30
ENDBRANCH  19  22
ENDBRANCH   1  18
TORSDOF 9
ENDMDL
MODEL 4
REMARK VINA RESULT:      -7.1      4.047      5.998
REMARK  9 active torsions:
REMARK  status: ('A' for Active; 'I' for Inactive)
REMARK    1  A    between atoms: C_4  and  S_5 
REMARK    2  A    between atoms: S_5  and  C_6 
REMARK    3  A    between atoms: C_6  and  C_7 
REMARK       I    between atoms: C_7  and  N_8 
REMARK    4  A    between atoms: C_13  and  C_14 
REMARK    5  A    between atoms: C_14  and  C_15 
REMARK    6  A    between atoms: C_15  and  C_16 
REMARK       I    between atoms: C_16  and  N_17 
REMARK    7  A    between atoms: N_17  and  C_18 
REMARK    8  A    between atoms: C_19  and  O_20 
REMARK    9  A    between atoms: C_24  and  C_25 
ROOT
HETATM    1  C   UNL     1     -43.877  57.095 -52.572  1.00  0.00     0.108 C 
ENDROOT
BRANCH   1   2
HETATM    2  C   UNL     1     -43.214  58.466 -52.770  1.00  0.00     0.052 C 
BRANCH   2   3
HETATM    3  C   UNL     1     -43.518  59.559 -51.770  1.00  0.00    -0.009 A 
HETATM    4  C   UNL     1     -44.693  60.315 -51.845  1.00  0.00     0.042 A 
HETATM    5  C   UNL     1     -45.732  60.102 -52.910  1.00  0.00     0.071 C 
HETATM    6  N   UNL     1     -44.977  61.320 -50.988  1.00  0.00    -0.228 NA
HETATM    7  C   UNL     1     -44.088  61.573 -50.023  1.00  0.00     0.189 A 
HETATM    8  N   UNL     1     -42.926  60.929 -49.875  1.00  0.00    -0.228 NA
HETATM    9  C   UNL     1     -42.645  59.937 -50.750  1.00  0.00     0.042 A 
HETATM   10  C   UNL     1     -41.321  59.269 -50.519  1.00  0.00     0.071 C 
BRANCH   7  11
HETATM   11  S   UNL     1     -44.425  62.897 -48.892  1.00  0.00    -0.081 SA
BRANCH  11  12
HETATM   12  C   UNL     1     -45.884  62.195 -48.059  1.00  0.00     0.185 C 
BRANCH  12  13
HETATM   13  C   UNL     1     -45.549  60.838 -47.474  1.00  0.00     0.225 C 
HETATM   14  N   UNL     1     -44.536  60.816 -46.556  1.00  0.00    -0.370 N 
HETATM   15  H   UNL     1     -43.843  61.554 -46.559  1.00  0.00     0.159 HD
HETATM   16  H   UNL     1     -44.250  59.904 -46.226  1.00  0.00     0.159 HD
HETATM   17  O   UNL     1     -46.179  59.815 -47.728  1.00  0.00    -0.273 OA
ENDBRANCH  12  13
ENDBRANCH  11  12
ENDBRANCH   7  11
ENDBRANCH   2   3
ENDBRANCH   1   2
BRANCH   1  18
HETATM   18  C   UNL     1     -44.045  56.683 -51.122  1.00  0.00     0.222 C 
HETATM   19  N   UNL     1     -43.099  55.893 -50.536  1.00  0.00    -0.325 N 
HETATM   20  H   UNL     1     -43.112  55.949 -49.520  1.00  0.00     0.169 HD
HETATM   21  O   UNL     1     -44.981  57.095 -50.435  1.00  0.00    -0.273 OA
BRANCH  19  22
HETATM   22  C   UNL     1     -42.108  55.033 -51.052  1.00  0.00     0.069 A 
HETATM   23  C   UNL     1     -41.246  54.420 -50.125  1.00  0.00     0.095 A 
HETATM   24  C   UNL     1     -40.285  53.516 -50.575  1.00  0.00     0.039 A 
HETATM   25  C   UNL     1     -40.196  53.202 -51.934  1.00  0.00     0.011 A 
HETATM   26  C   UNL     1     -41.067  53.768 -52.881  1.00  0.00    -0.048 A 
HETATM   27  C   UNL     1     -42.020  54.692 -52.408  1.00  0.00     0.040 A 
BRANCH  23  28
HETATM   28  O   UNL     1     -41.433  54.777 -48.810  1.00  0.00    -0.354 OA
HETATM   29  C   UNL     1     -40.562  54.188 -47.852  1.00  0.00     0.210 C 
ENDBRANCH  23  28
BRANCH  26  30
HETATM   30  C   UNL     1     -40.988  53.338 -54.358  1.00  0.00    -0.024 C 
HETATM   31  C   UNL     1     -40.532  51.865 -54.440  1.00  0.00     0.019 C 
HETATM   32  C   UNL     1     -42.333  53.440 -55.115  1.00  0.00     0.019 C 
HETATM   33  C   UNL     1     -39.975  54.226 -55.110  1.00  0.00     0.019 C 
ENDBRANCH  26  30
ENDBRANCH  19  22
ENDBRANCH   1  18
TORSDOF 9
ENDMDL
MODEL 5
REMARK VINA RESULT:      -7.1      3.955      5.627
REMARK  9 active torsions:
REMARK  status: ('A' for Active; 'I' for Inactive)
REMARK    1  A    between atoms: C_4  and  S_5 
REMARK    2  A    between atoms: S_5  and  C_6 
REMARK    3  A    between atoms: C_6  and  C_7 
REMARK       I    between atoms: C_7  and  N_8 
REMARK    4  A    between atoms: C_13  and  C_14 
REMARK    5  A    between atoms: C_14  and  C_15 
REMARK    6  A    between atoms: C_15  and  C_16 
REMARK       I    between atoms: C_16  and  N_17 
REMARK    7  A    between atoms: N_17  and  C_18 
REMARK    8  A    between atoms: C_19  and  O_20 
REMARK    9  A    between atoms: C_24  and  C_25 
ROOT
HETATM    1  C   UNL     1     -43.803  56.859 -52.536  1.00  0.00     0.108 C 
ENDROOT
BRANCH   1   2
HETATM    2  C   UNL     1     -42.835  58.027 -52.778  1.00  0.00     0.052 C 
BRANCH   2   3
HETATM    3  C   UNL     1     -43.111  59.342 -52.084  1.00  0.00    -0.009 A 
HETATM    4  C   UNL     1     -42.321  59.790 -51.020  1.00  0.00     0.042 A 
HETATM    5  C   UNL     1     -41.151  59.010 -50.490  1.00  0.00     0.071 C 
HETATM    6  N   UNL     1     -42.563  60.943 -50.358  1.00  0.00    -0.228 NA
HETATM    7  C   UNL     1     -43.599  61.680 -50.769  1.00  0.00     0.189 A 
HETATM    8  N   UNL     1     -44.430  61.336 -51.758  1.00  0.00    -0.228 NA
HETATM    9  C   UNL     1     -44.188  60.170 -52.400  1.00  0.00     0.042 A 
HETATM   10  C   UNL     1     -45.169  59.854 -53.491  1.00  0.00     0.071 C 
BRANCH   7  11
HETATM   11  S   UNL     1     -43.951  63.191 -49.909  1.00  0.00    -0.081 SA
BRANCH  11  12
HETATM   12  C   UNL     1     -44.524  62.491 -48.329  1.00  0.00     0.185 C 
BRANCH  12  13
HETATM   13  C   UNL     1     -45.707  61.575 -48.561  1.00  0.00     0.225 C 
HETATM   14  N   UNL     1     -45.426  60.237 -48.621  1.00  0.00    -0.370 N 
HETATM   15  H   UNL     1     -44.492  59.934 -48.865  1.00  0.00     0.159 HD
HETATM   16  H   UNL     1     -46.197  59.628 -48.861  1.00  0.00     0.159 HD
HETATM   17  O   UNL     1     -46.869  61.968 -48.619  1.00  0.00    -0.273 OA
ENDBRANCH  12  13
ENDBRANCH  11  12
ENDBRANCH   7  11
ENDBRANCH   2   3
ENDBRANCH   1   2
BRANCH   1  18
HETATM   18  C   UNL     1     -43.964  56.471 -51.079  1.00  0.00     0.222 C 
HETATM   19  N   UNL     1     -43.019  55.686 -50.486  1.00  0.00    -0.325 N 
HETATM   20  H   UNL     1     -43.026  55.758 -49.471  1.00  0.00     0.169 HD
HETATM   21  O   UNL     1     -44.894  56.898 -50.393  1.00  0.00    -0.273 OA
BRANCH  19  22
HETATM   22  C   UNL     1     -42.035  54.813 -50.994  1.00  0.00     0.069 A 
HETATM   23  C   UNL     1     -41.213  54.160 -50.057  1.00  0.00     0.095 A 
HETATM   24  C   UNL     1     -40.262  53.243 -50.501  1.00  0.00     0.039 A 
HETATM   25  C   UNL     1     -40.144  52.955 -51.864  1.00  0.00     0.011 A 
HETATM   26  C   UNL     1     -40.975  53.562 -52.821  1.00  0.00    -0.048 A 
HETATM   27  C   UNL     1     -41.918  54.498 -52.354  1.00  0.00     0.040 A 
BRANCH  23  28
HETATM   28  O   UNL     1     -41.427  54.493 -48.741  1.00  0.00    -0.354 OA
HETATM   29  C   UNL     1     -40.445  54.074 -47.801  1.00  0.00     0.210 C 
ENDBRANCH  23  28
BRANCH  26  30
HETATM   30  C   UNL     1     -40.867  53.161 -54.305  1.00  0.00    -0.024 C 
HETATM   31  C   UNL     1     -42.273  53.168 -54.942  1.00  0.00     0.019 C 
HETATM   32  C   UNL     1     -39.980  54.107 -55.148  1.00  0.00     0.019 C 
HETATM   33  C   UNL     1     -40.262  51.747 -54.424  1.00  0.00     0.019 C 
ENDBRANCH  26  30
ENDBRANCH  19  22
ENDBRANCH   1  18
TORSDOF 9
ENDMDL
MODEL 6
REMARK VINA RESULT:      -7.0      2.484      4.129
REMARK  9 active torsions:
REMARK  status: ('A' for Active; 'I' for Inactive)
REMARK    1  A    between atoms: C_4  and  S_5 
REMARK    2  A    between atoms: S_5  and  C_6 
REMARK    3  A    between atoms: C_6  and  C_7 
REMARK       I    between atoms: C_7  and  N_8 
REMARK    4  A    between atoms: C_13  and  C_14 
REMARK    5  A    between atoms: C_14  and  C_15 
REMARK    6  A    between atoms: C_15  and  C_16 
REMARK       I    between atoms: C_16  and  N_17 
REMARK    7  A    between atoms: N_17  and  C_18 
REMARK    8  A    between atoms: C_19  and  O_20 
REMARK    9  A    between atoms: C_24  and  C_25 
ROOT
HETATM    1  C   UNL     1     -43.104  58.027 -50.982  1.00  0.00     0.108 C 
ENDROOT
BRANCH   1   2
HETATM    2  C   UNL     1     -42.569  59.416 -51.364  1.00  0.00     0.052 C 
BRANCH   2   3
HETATM    3  C   UNL     1     -42.489  59.774 -52.831  1.00  0.00    -0.009 A 
HETATM    4  C   UNL     1     -43.407  60.649 -53.424  1.00  0.00     0.042 A 
HETATM    5  C   UNL     1     -44.529  61.292 -52.659  1.00  0.00     0.071 C 
HETATM    6  N   UNL     1     -43.381  60.962 -54.737  1.00  0.00    -0.228 NA
HETATM    7  C   UNL     1     -42.416  60.413 -55.481  1.00  0.00     0.189 A 
HETATM    8  N   UNL     1     -41.505  59.549 -55.022  1.00  0.00    -0.228 NA
HETATM    9  C   UNL     1     -41.552  59.230 -53.709  1.00  0.00     0.042 A 
HETATM   10  C   UNL     1     -40.500  58.251 -53.276  1.00  0.00     0.071 C 
BRANCH   7  11
HETATM   11  S   UNL     1     -42.368  60.792 -57.212  1.00  0.00    -0.081 SA
BRANCH  11  12
HETATM   12  C   UNL     1     -42.084  59.115 -57.863  1.00  0.00     0.185 C 
BRANCH  12  13
HETATM   13  C   UNL     1     -42.762  58.955 -59.208  1.00  0.00     0.225 C 
HETATM   14  N   UNL     1     -41.930  58.805 -60.283  1.00  0.00    -0.370 N 
HETATM   15  H   UNL     1     -40.978  59.146 -60.230  1.00  0.00     0.159 HD
HETATM   16  H   UNL     1     -42.371  58.784 -61.192  1.00  0.00     0.159 HD
HETATM   17  O   UNL     1     -43.979  58.883 -59.351  1.00  0.00    -0.273 OA
ENDBRANCH  12  13
ENDBRANCH  11  12
ENDBRANCH   7  11
ENDBRANCH   2   3
ENDBRANCH   1   2
BRANCH   1  18
HETATM   18  C   UNL     1     -44.542  57.775 -51.393  1.00  0.00     0.222 C 
HETATM   19  N   UNL     1     -44.806  56.900 -52.405  1.00  0.00    -0.325 N 
HETATM   20  H   UNL     1     -45.760  56.547 -52.384  1.00  0.00     0.169 HD
HETATM   21  O   UNL     1     -45.487  58.290 -50.793  1.00  0.00    -0.273 OA
BRANCH  19  22
HETATM   22  C   UNL     1     -44.025  56.382 -53.459  1.00  0.00     0.069 A 
HETATM   23  C   UNL     1     -44.204  56.956 -54.731  1.00  0.00     0.095 A 
HETATM   24  C   UNL     1     -43.417  56.522 -55.797  1.00  0.00     0.039 A 
HETATM   25  C   UNL     1     -42.440  55.542 -55.597  1.00  0.00     0.011 A 
HETATM   26  C   UNL     1     -42.211  54.976 -54.330  1.00  0.00    -0.048 A 
HETATM   27  C   UNL     1     -43.028  55.416 -53.271  1.00  0.00     0.040 A 
BRANCH  23  28
HETATM   28  O   UNL     1     -45.171  57.930 -54.815  1.00  0.00    -0.354 OA
HETATM   29  C   UNL     1     -45.557  58.344 -56.120  1.00  0.00     0.210 C 
ENDBRANCH  23  28
BRANCH  26  30
HETATM   30  C   UNL     1     -41.074  53.956 -54.134  1.00  0.00    -0.024 C 
HETATM   31  C   UNL     1     -39.894  54.318 -55.063  1.00  0.00     0.019 C 
HETATM   32  C   UNL     1     -40.518  53.903 -52.693  1.00  0.00     0.019 C 
HETATM   33  C   UNL     1     -41.575  52.538 -54.480  1.00  0.00     0.019 C 
ENDBRANCH  26  30
ENDBRANCH  19  22
ENDBRANCH   1  18
TORSDOF 9
ENDMDL
MODEL 7
REMARK VINA RESULT:      -7.0      2.200      3.129
REMARK  9 active torsions:
REMARK  status: ('A' for Active; 'I' for Inactive)
REMARK    1  A    between atoms: C_4  and  S_5 
REMARK    2  A    between atoms: S_5  and  C_6 
REMARK    3  A    between atoms: C_6  and  C_7 
REMARK       I    between atoms: C_7  and  N_8 
REMARK    4  A    between atoms: C_13  and  C_14 
REMARK    5  A    between atoms: C_14  and  C_15 
REMARK    6  A    between atoms: C_15  and  C_16 
REMARK       I    between atoms: C_16  and  N_17 
REMARK    7  A    between atoms: N_17  and  C_18 
REMARK    8  A    between atoms: C_19  and  O_20 
REMARK    9  A    between atoms: C_24  and  C_25 
ROOT
HETATM    1  C   UNL     1     -43.840  59.433 -53.264  1.00  0.00     0.108 C 
ENDROOT
BRANCH   1   2
HETATM    2  C   UNL     1     -44.702  59.550 -54.530  1.00  0.00     0.052 C 
BRANCH   2   3
HETATM    3  C   UNL     1     -44.207  58.888 -55.797  1.00  0.00    -0.009 A 
HETATM    4  C   UNL     1     -44.150  57.497 -55.924  1.00  0.00     0.042 A 
HETATM    5  C   UNL     1     -44.570  56.561 -54.826  1.00  0.00     0.071 C 
HETATM    6  N   UNL     1     -43.682  56.878 -57.030  1.00  0.00    -0.228 NA
HETATM    7  C   UNL     1     -43.278  57.651 -58.042  1.00  0.00     0.189 A 
HETATM    8  N   UNL     1     -43.269  58.988 -58.017  1.00  0.00    -0.228 NA
HETATM    9  C   UNL     1     -43.723  59.595 -56.898  1.00  0.00     0.042 A 
HETATM   10  C   UNL     1     -43.673  61.094 -56.948  1.00  0.00     0.071 C 
BRANCH   7  11
HETATM   11  S   UNL     1     -42.644  56.867 -59.501  1.00  0.00    -0.081 SA
BRANCH  11  12
HETATM   12  C   UNL     1     -44.194  56.726 -60.445  1.00  0.00     0.185 C 
BRANCH  12  13
HETATM   13  C   UNL     1     -44.594  55.271 -60.578  1.00  0.00     0.225 C 
HETATM   14  N   UNL     1     -44.604  54.544 -59.419  1.00  0.00    -0.370 N 
HETATM   15  H   UNL     1     -44.041  54.848 -58.634  1.00  0.00     0.159 HD
HETATM   16  H   UNL     1     -44.786  53.554 -59.513  1.00  0.00     0.159 HD
HETATM   17  O   UNL     1     -44.966  54.763 -61.632  1.00  0.00    -0.273 OA
ENDBRANCH  12  13
ENDBRANCH  11  12
ENDBRANCH   7  11
ENDBRANCH   2   3
ENDBRANCH   1   2
BRANCH   1  18
HETATM   18  C   UNL     1     -42.426  59.960 -53.418  1.00  0.00     0.222 C 
HETATM   19  N   UNL     1     -41.377  59.091 -53.359  1.00  0.00    -0.325 N 
HETATM   20  H   UNL     1     -40.534  59.459 -53.794  1.00  0.00     0.169 HD
HETATM   21  O   UNL     1     -42.199  61.147 -53.661  1.00  0.00    -0.273 OA
BRANCH  19  22
HETATM   22  C   UNL     1     -41.231  57.792 -52.830  1.00  0.00     0.069 A 
HETATM   23  C   UNL     1     -41.303  57.658 -51.431  1.00  0.00     0.095 A 
HETATM   24  C   UNL     1     -41.222  56.389 -50.859  1.00  0.00     0.039 A 
HETATM   25  C   UNL     1     -41.098  55.257 -51.670  1.00  0.00     0.011 A 
HETATM   26  C   UNL     1     -41.062  55.354 -53.071  1.00  0.00    -0.048 A 
HETATM   27  C   UNL     1     -41.127  56.646 -53.630  1.00  0.00     0.040 A 
BRANCH  23  28
HETATM   28  O   UNL     1     -41.452  58.829 -50.727  1.00  0.00    -0.354 OA
HETATM   29  C   UNL     1     -40.265  59.449 -50.247  1.00  0.00     0.210 C 
ENDBRANCH  23  28
BRANCH  26  30
HETATM   30  C   UNL     1     -41.002  54.079 -53.933  1.00  0.00    -0.024 C 
HETATM   31  C   UNL     1     -39.997  54.287 -55.088  1.00  0.00     0.019 C 
HETATM   32  C   UNL     1     -40.552  52.818 -53.159  1.00  0.00     0.019 C 
HETATM   33  C   UNL     1     -42.396  53.777 -54.521  1.00  0.00     0.019 C 
ENDBRANCH  26  30
ENDBRANCH  19  22
ENDBRANCH   1  18
TORSDOF 9
ENDMDL
MODEL 8
REMARK VINA RESULT:      -7.0      2.232      3.377
REMARK  9 active torsions:
REMARK  status: ('A' for Active; 'I' for Inactive)
REMARK    1  A    between atoms: C_4  and  S_5 
REMARK    2  A    between atoms: S_5  and  C_6 
REMARK    3  A    between atoms: C_6  and  C_7 
REMARK       I    between atoms: C_7  and  N_8 
REMARK    4  A    between atoms: C_13  and  C_14 
REMARK    5  A    between atoms: C_14  and  C_15 
REMARK    6  A    between atoms: C_15  and  C_16 
REMARK       I    between atoms: C_16  and  N_17 
REMARK    7  A    between atoms: N_17  and  C_18 
REMARK    8  A    between atoms: C_19  and  O_20 
REMARK    9  A    between atoms: C_24  and  C_25 
ROOT
HETATM    1  C   UNL     1     -43.771  59.308 -53.419  1.00  0.00     0.108 C 
ENDROOT
BRANCH   1   2
HETATM    2  C   UNL     1     -44.555  59.453 -54.731  1.00  0.00     0.052 C 
BRANCH   2   3
HETATM    3  C   UNL     1     -44.088  58.667 -55.936  1.00  0.00    -0.009 A 
HETATM    4  C   UNL     1     -43.739  59.299 -57.134  1.00  0.00     0.042 A 
HETATM    5  C   UNL     1     -43.801  60.789 -57.316  1.00  0.00     0.071 C 
HETATM    6  N   UNL     1     -43.350  58.622 -58.237  1.00  0.00    -0.228 NA
HETATM    7  C   UNL     1     -43.286  57.290 -58.149  1.00  0.00     0.189 A 
HETATM    8  N   UNL     1     -43.618  56.586 -57.062  1.00  0.00    -0.228 NA
HETATM    9  C   UNL     1     -44.023  57.274 -55.971  1.00  0.00     0.042 A 
HETATM   10  C   UNL     1     -44.382  56.410 -54.797  1.00  0.00     0.071 C 
BRANCH   7  11
HETATM   11  S   UNL     1     -42.795  56.373 -59.585  1.00  0.00    -0.081 SA
BRANCH  11  12
HETATM   12  C   UNL     1     -43.940  54.966 -59.429  1.00  0.00     0.185 C 
BRANCH  12  13
HETATM   13  C   UNL     1     -45.077  55.106 -60.420  1.00  0.00     0.225 C 
HETATM   14  N   UNL     1     -46.242  55.625 -59.925  1.00  0.00    -0.370 N 
HETATM   15  H   UNL     1     -46.435  55.562 -58.933  1.00  0.00     0.159 HD
HETATM   16  H   UNL     1     -47.030  55.641 -60.557  1.00  0.00     0.159 HD
HETATM   17  O   UNL     1     -44.971  54.851 -61.616  1.00  0.00    -0.273 OA
ENDBRANCH  12  13
ENDBRANCH  11  12
ENDBRANCH   7  11
ENDBRANCH   2   3
ENDBRANCH   1   2
BRANCH   1  18
HETATM   18  C   UNL     1     -42.350  59.837 -53.476  1.00  0.00     0.222 C 
HETATM   19  N   UNL     1     -41.306  58.968 -53.347  1.00  0.00    -0.325 N 
HETATM   20  H   UNL     1     -40.436  59.337 -53.724  1.00  0.00     0.169 HD
HETATM   21  O   UNL     1     -42.109  61.024 -53.702  1.00  0.00    -0.273 OA
BRANCH  19  22
HETATM   22  C   UNL     1     -41.196  57.669 -52.811  1.00  0.00     0.069 A 
HETATM   23  C   UNL     1     -41.348  57.535 -51.419  1.00  0.00     0.095 A 
HETATM   24  C   UNL     1     -41.305  56.266 -50.843  1.00  0.00     0.039 A 
HETATM   25  C   UNL     1     -41.138  55.134 -51.646  1.00  0.00     0.011 A 
HETATM   26  C   UNL     1     -41.021  55.231 -53.043  1.00  0.00    -0.048 A 
HETATM   27  C   UNL     1     -41.050  56.523 -53.604  1.00  0.00     0.040 A 
BRANCH  23  28
HETATM   28  O   UNL     1     -41.534  58.706 -50.724  1.00  0.00    -0.354 OA
HETATM   29  C   UNL     1     -40.374  59.322 -50.176  1.00  0.00     0.210 C 
ENDBRANCH  23  28
BRANCH  26  30
HETATM   30  C   UNL     1     -40.916  53.955 -53.900  1.00  0.00    -0.024 C 
HETATM   31  C   UNL     1     -42.322  53.553 -54.396  1.00  0.00     0.019 C 
HETATM   32  C   UNL     1     -40.019  54.110 -55.150  1.00  0.00     0.019 C 
HETATM   33  C   UNL     1     -40.326  52.804 -53.058  1.00  0.00     0.019 C 
ENDBRANCH  26  30
ENDBRANCH  19  22
ENDBRANCH   1  18
TORSDOF 9
ENDMDL
MODEL 9
REMARK VINA RESULT:      -6.8      3.979      6.853
REMARK  9 active torsions:
REMARK  status: ('A' for Active; 'I' for Inactive)
REMARK    1  A    between atoms: C_4  and  S_5 
REMARK    2  A    between atoms: S_5  and  C_6 
REMARK    3  A    between atoms: C_6  and  C_7 
REMARK       I    between atoms: C_7  and  N_8 
REMARK    4  A    between atoms: C_13  and  C_14 
REMARK    5  A    between atoms: C_14  and  C_15 
REMARK    6  A    between atoms: C_15  and  C_16 
REMARK       I    between atoms: C_16  and  N_17 
REMARK    7  A    between atoms: N_17  and  C_18 
REMARK    8  A    between atoms: C_19  and  O_20 
REMARK    9  A    between atoms: C_24  and  C_25 
ROOT
HETATM    1  C   UNL     1     -43.296  58.320 -54.958  1.00  0.00     0.108 C 
ENDROOT
BRANCH   1   2
HETATM    2  C   UNL     1     -44.510  59.139 -54.497  1.00  0.00     0.052 C 
BRANCH   2   3
HETATM    3  C   UNL     1     -44.459  59.791 -53.133  1.00  0.00    -0.009 A 
HETATM    4  C   UNL     1     -44.282  61.170 -52.984  1.00  0.00     0.042 A 
HETATM    5  C   UNL     1     -44.131  62.102 -54.154  1.00  0.00     0.071 C 
HETATM    6  N   UNL     1     -44.198  61.776 -51.780  1.00  0.00    -0.228 NA
HETATM    7  C   UNL     1     -44.311  61.004 -50.695  1.00  0.00     0.189 A 
HETATM    8  N   UNL     1     -44.459  59.675 -50.723  1.00  0.00    -0.228 NA
HETATM    9  C   UNL     1     -44.523  59.079 -51.935  1.00  0.00     0.042 A 
HETATM   10  C   UNL     1     -44.683  57.588 -51.878  1.00  0.00     0.071 C 
BRANCH   7  11
HETATM   11  S   UNL     1     -44.189  61.769 -49.100  1.00  0.00    -0.081 SA
BRANCH  11  12
HETATM   12  C   UNL     1     -45.895  61.500 -48.525  1.00  0.00     0.185 C 
BRANCH  12  13
HETATM   13  C   UNL     1     -45.890  60.884 -47.141  1.00  0.00     0.225 C 
HETATM   14  N   UNL     1     -44.658  60.655 -46.593  1.00  0.00    -0.370 N 
HETATM   15  H   UNL     1     -43.852  60.556 -47.198  1.00  0.00     0.159 HD
HETATM   16  H   UNL     1     -44.645  60.167 -45.708  1.00  0.00     0.159 HD
HETATM   17  O   UNL     1     -46.908  60.661 -46.493  1.00  0.00    -0.273 OA
ENDBRANCH  12  13
ENDBRANCH  11  12
ENDBRANCH   7  11
ENDBRANCH   2   3
ENDBRANCH   1   2
BRANCH   1  18
HETATM   18  C   UNL     1     -41.969  59.044 -54.838  1.00  0.00     0.222 C 
HETATM   19  N   UNL     1     -41.019  58.566 -53.983  1.00  0.00    -0.325 N 
HETATM   20  H   UNL     1     -40.083  58.892 -54.210  1.00  0.00     0.169 HD
HETATM   21  O   UNL     1     -41.696  60.018 -55.541  1.00  0.00    -0.273 OA
BRANCH  19  22
HETATM   22  C   UNL     1     -41.074  57.708 -52.866  1.00  0.00     0.069 A 
HETATM   23  C   UNL     1     -40.957  58.302 -51.596  1.00  0.00     0.095 A 
HETATM   24  C   UNL     1     -41.061  57.508 -50.454  1.00  0.00     0.039 A 
HETATM   25  C   UNL     1     -41.307  56.136 -50.571  1.00  0.00     0.011 A 
HETATM   26  C   UNL     1     -41.467  55.519 -51.824  1.00  0.00    -0.048 A 
HETATM   27  C   UNL     1     -41.341  56.336 -52.965  1.00  0.00     0.040 A 
BRANCH  23  28
HETATM   28  O   UNL     1     -40.743  59.660 -51.590  1.00  0.00    -0.354 OA
HETATM   29  C   UNL     1     -40.772  60.312 -50.326  1.00  0.00     0.210 C 
ENDBRANCH  23  28
BRANCH  26  30
HETATM   30  C   UNL     1     -41.813  54.021 -51.909  1.00  0.00    -0.024 C 
HETATM   31  C   UNL     1     -41.565  53.517 -53.347  1.00  0.00     0.019 C 
HETATM   32  C   UNL     1     -40.977  53.128 -50.963  1.00  0.00     0.019 C 
HETATM   33  C   UNL     1     -43.297  53.803 -51.544  1.00  0.00     0.019 C 
ENDBRANCH  26  30
ENDBRANCH  19  22
ENDBRANCH   1  18
TORSDOF 9
ENDMDL
MODEL 10
REMARK VINA RESULT:      -6.7      4.308      7.317
REMARK  9 active torsions:
REMARK  status: ('A' for Active; 'I' for Inactive)
REMARK    1  A    between atoms: C_4  and  S_5 
REMARK    2  A    between atoms: S_5  and  C_6 
REMARK    3  A    between atoms: C_6  and  C_7 
REMARK       I    between atoms: C_7  and  N_8 
REMARK    4  A    between atoms: C_13  and  C_14 
REMARK    5  A    between atoms: C_14  and  C_15 
REMARK    6  A    between atoms: C_15  and  C_16 
REMARK       I    between atoms: C_16  and  N_17 
REMARK    7  A    between atoms: N_17  and  C_18 
REMARK    8  A    between atoms: C_19  and  O_20 
REMARK    9  A    between atoms: C_24  and  C_25 
ROOT
HETATM    1  C   UNL     1     -43.443  57.866 -52.465  1.00  0.00     0.108 C 
ENDROOT
BRANCH   1   2
HETATM    2  C   UNL     1     -43.717  59.377 -52.466  1.00  0.00     0.052 C 
BRANCH   2   3
HETATM    3  C   UNL     1     -44.142  60.029 -51.169  1.00  0.00    -0.009 A 
HETATM    4  C   UNL     1     -45.490  60.259 -50.871  1.00  0.00     0.042 A 
HETATM    5  C   UNL     1     -46.606  59.881 -51.803  1.00  0.00     0.071 C 
HETATM    6  N   UNL     1     -45.898  60.869 -49.737  1.00  0.00    -0.228 NA
HETATM    7  C   UNL     1     -44.955  61.244 -48.868  1.00  0.00     0.189 A 
HETATM    8  N   UNL     1     -43.641  61.094 -49.063  1.00  0.00    -0.228 NA
HETATM    9  C   UNL     1     -43.244  60.499 -50.211  1.00  0.00     0.042 A 
HETATM   10  C   UNL     1     -41.756  60.374 -50.355  1.00  0.00     0.071 C 
BRANCH   7  11
HETATM   11  S   UNL     1     -45.461  62.062 -47.378  1.00  0.00    -0.081 SA
BRANCH  11  12
HETATM   12  C   UNL     1     -45.158  60.711 -46.195  1.00  0.00     0.185 C 
BRANCH  12  13
HETATM   13  C   UNL     1     -46.420  59.897 -45.998  1.00  0.00     0.225 C 
HETATM   14  N   UNL     1     -46.278  58.733 -45.293  1.00  0.00    -0.370 N 
HETATM   15  H   UNL     1     -45.370  58.286 -45.245  1.00  0.00     0.159 HD
HETATM   16  H   UNL     1     -47.097  58.144 -45.231  1.00  0.00     0.159 HD
HETATM   17  O   UNL     1     -47.531  60.267 -46.367  1.00  0.00    -0.273 OA
ENDBRANCH  12  13
ENDBRANCH  11  12
ENDBRANCH   7  11
ENDBRANCH   2   3
ENDBRANCH   1   2
BRANCH   1  18
HETATM   18  C   UNL     1     -44.336  57.066 -53.393  1.00  0.00     0.222 C 
HETATM   19  N   UNL     1     -44.137  55.723 -53.522  1.00  0.00    -0.325 N 
HETATM   20  H   UNL     1     -44.955  55.234 -53.877  1.00  0.00     0.169 HD
HETATM   21  O   UNL     1     -45.283  57.584 -53.987  1.00  0.00    -0.273 OA
BRANCH  19  22
HETATM   22  C   UNL     1     -43.037  54.883 -53.253  1.00  0.00     0.069 A 
HETATM   23  C   UNL     1     -42.399  54.290 -54.358  1.00  0.00     0.095 A 
HETATM   24  C   UNL     1     -41.271  53.495 -54.154  1.00  0.00     0.039 A 
HETATM   25  C   UNL     1     -40.764  53.311 -52.864  1.00  0.00     0.011 A 
HETATM   26  C   UNL     1     -41.356  53.921 -51.744  1.00  0.00    -0.048 A 
HETATM   27  C   UNL     1     -42.504  54.705 -51.970  1.00  0.00     0.040 A 
BRANCH  23  28
HETATM   28  O   UNL     1     -42.960  54.555 -55.584  1.00  0.00    -0.354 OA
HETATM   29  C   UNL     1     -42.247  55.437 -56.443  1.00  0.00     0.210 C 
ENDBRANCH  23  28
BRANCH  26  30
HETATM   30  C   UNL     1     -40.722  53.756 -50.350  1.00  0.00    -0.024 C 
HETATM   31  C   UNL     1     -40.547  52.254 -50.040  1.00  0.00     0.019 C 
HETATM   32  C   UNL     1     -39.331  54.416 -50.210  1.00  0.00     0.019 C 
HETATM   33  C   UNL     1     -41.635  54.392 -49.280  1.00  0.00     0.019 C 
ENDBRANCH  26  30
ENDBRANCH  19  22
ENDBRANCH   1  18
TORSDOF 9
ENDMDL
