MODEL 1
REMARK VINA RESULT:      -9.1      0.000      0.000
REMARK  3 active torsions:
REMARK  status: ('A' for Active; 'I' for Inactive)
REMARK    1  A    between atoms: C_2  and  N_3 
REMARK    2  A    between atoms: C_8  and  C_9 
REMARK       I    between atoms: C_9  and  N_10 
REMARK    3  A    between atoms: N_10  and  C_11 
ROOT
HETATM    1  C   UNL     1     -42.399  54.768 -55.020  1.00  0.00     0.036 A 
HETATM    2  C   UNL     1     -41.685  53.620 -54.680  1.00  0.00     0.049 A 
HETATM    3  C   UNL     1     -40.963  53.535 -53.474  1.00  0.00     0.061 A 
HETATM    4  C   UNL     1     -40.977  54.611 -52.579  1.00  0.00     0.050 A 
HETATM    5  N   UNL     1     -40.409  54.624 -51.292  1.00  0.00    -0.324 N 
HETATM    6  C   UNL     1     -40.239  53.573 -50.430  1.00  0.00     0.245 C 
HETATM    7  O   UNL     1     -39.902  53.825 -49.270  1.00  0.00    -0.271 OA
HETATM    8  C   UNL     1     -40.665  52.177 -50.886  1.00  0.00     0.180 C 
HETATM    9  N   UNL     1     -39.932  51.791 -52.080  1.00  0.00    -0.334 N 
HETATM   10  C   UNL     1     -40.104  52.333 -53.329  1.00  0.00     0.256 C 
HETATM   11  O   UNL     1     -39.572  51.857 -54.330  1.00  0.00    -0.267 OA
HETATM   12  C   UNL     1     -40.325  51.085 -49.863  1.00  0.00     0.037 C 
HETATM   13  C   UNL     1     -39.955  49.887 -50.728  1.00  0.00     0.022 C 
HETATM   14  C   UNL     1     -39.229  50.535 -51.896  1.00  0.00     0.127 C 
HETATM   15  C   UNL     1     -41.617  55.798 -52.969  1.00  0.00     0.033 A 
HETATM   16  C   UNL     1     -42.320  55.877 -54.178  1.00  0.00     0.032 A 
HETATM   17  H   UNL     1     -40.296  55.516 -50.825  1.00  0.00     0.169 HD
ENDROOT
BRANCH   1  18
HETATM   18  N   UNL     1     -43.181  54.880 -56.190  1.00  0.00    -0.323 N 
HETATM   19  C   UNL     1     -42.997  55.814 -57.198  1.00  0.00     0.256 C 
HETATM   20  O   UNL     1     -42.087  56.635 -57.251  1.00  0.00    -0.267 OA
HETATM   21  H   UNL     1     -43.905  54.187 -56.308  1.00  0.00     0.169 HD
BRANCH  19  22
HETATM   22  C   UNL     1     -43.992  55.808 -58.313  1.00  0.00     0.034 A 
HETATM   23  C   UNL     1     -44.166  54.729 -59.183  1.00  0.00     0.018 A 
HETATM   24  C   UNL     1     -45.121  54.790 -60.210  1.00  0.00     0.015 A 
HETATM   25  C   UNL     1     -45.901  55.952 -60.375  1.00  0.00    -0.008 A 
HETATM   26  C   UNL     1     -45.700  57.032 -59.514  1.00  0.00     0.045 A 
HETATM   27  C   UNL     1     -46.929  56.324 -61.281  1.00  0.00     0.031 A 
HETATM   28  N   UNL     1     -46.575  58.034 -59.898  1.00  0.00    -0.352 N 
HETATM   29  C   UNL     1     -44.753  56.978 -58.479  1.00  0.00     0.047 A 
HETATM   30  C   UNL     1     -47.334  57.598 -60.956  1.00  0.00     0.092 A 
BRANCH  28  31
HETATM   31  C   UNL     1     -46.706  59.333 -59.234  1.00  0.00     0.081 C 
HETATM   32  C   UNL     1     -47.658  59.233 -58.044  1.00  0.00     0.032 C 
HETATM   33  C   UNL     1     -47.120  60.462 -60.182  1.00  0.00     0.032 C 
ENDBRANCH  28  31
ENDBRANCH  19  22
ENDBRANCH   1  18
TORSDOF 3
ENDMDL
MODEL 2
REMARK VINA RESULT:      -9.1      5.460      9.776
REMARK  3 active torsions:
REMARK  status: ('A' for Active; 'I' for Inactive)
REMARK    1  A    between atoms: C_2  and  N_3 
REMARK    2  A    between atoms: C_8  and  C_9 
REMARK       I    between atoms: C_9  and  N_10 
REMARK    3  A    between atoms: N_10  and  C_11 
ROOT
HETATM    1  C   UNL     1     -43.523  58.058 -51.871  1.00  0.00     0.036 A 
HETATM    2  C   UNL     1     -43.127  59.393 -51.924  1.00  0.00     0.049 A 
HETATM    3  C   UNL     1     -43.944  60.422 -51.420  1.00  0.00     0.061 A 
HETATM    4  C   UNL     1     -45.172  60.107 -50.825  1.00  0.00     0.050 A 
HETATM    5  N   UNL     1     -46.031  61.008 -50.173  1.00  0.00    -0.324 N 
HETATM    6  C   UNL     1     -45.703  62.153 -49.495  1.00  0.00     0.245 C 
HETATM    7  O   UNL     1     -46.582  62.700 -48.824  1.00  0.00    -0.271 OA
HETATM    8  C   UNL     1     -44.234  62.575 -49.442  1.00  0.00     0.180 C 
HETATM    9  N   UNL     1     -43.722  62.788 -50.785  1.00  0.00    -0.334 N 
HETATM   10  C   UNL     1     -43.483  61.803 -51.710  1.00  0.00     0.256 C 
HETATM   11  O   UNL     1     -42.899  62.026 -52.769  1.00  0.00    -0.267 OA
HETATM   12  C   UNL     1     -44.025  63.922 -48.738  1.00  0.00     0.037 C 
HETATM   13  C   UNL     1     -42.881  64.559 -49.516  1.00  0.00     0.022 C 
HETATM   14  C   UNL     1     -43.165  64.119 -50.942  1.00  0.00     0.127 C 
HETATM   15  C   UNL     1     -45.608  58.773 -50.860  1.00  0.00     0.033 A 
HETATM   16  C   UNL     1     -44.794  57.759 -51.378  1.00  0.00     0.032 A 
HETATM   17  H   UNL     1     -46.979  60.711 -49.972  1.00  0.00     0.169 HD
ENDROOT
BRANCH   1  18
HETATM   18  N   UNL     1     -42.716  56.988 -52.313  1.00  0.00    -0.323 N 
HETATM   19  C   UNL     1     -42.737  56.431 -53.582  1.00  0.00     0.256 C 
HETATM   20  O   UNL     1     -43.412  56.832 -54.525  1.00  0.00    -0.267 OA
HETATM   21  H   UNL     1     -42.041  56.637 -51.649  1.00  0.00     0.169 HD
BRANCH  19  22
HETATM   22  C   UNL     1     -41.854  55.248 -53.816  1.00  0.00     0.034 A 
HETATM   23  C   UNL     1     -41.338  54.908 -55.068  1.00  0.00     0.018 A 
HETATM   24  C   UNL     1     -40.513  53.782 -55.216  1.00  0.00     0.015 A 
HETATM   25  C   UNL     1     -40.211  52.981 -54.097  1.00  0.00    -0.008 A 
HETATM   26  C   UNL     1     -40.752  53.320 -52.855  1.00  0.00     0.045 A 
HETATM   27  C   UNL     1     -39.425  51.815 -53.908  1.00  0.00     0.031 A 
HETATM   28  N   UNL     1     -40.314  52.374 -51.943  1.00  0.00    -0.352 N 
HETATM   29  C   UNL     1     -41.572  54.447 -52.695  1.00  0.00     0.047 A 
HETATM   30  C   UNL     1     -39.492  51.474 -52.576  1.00  0.00     0.092 A 
BRANCH  28  31
HETATM   31  C   UNL     1     -40.631  52.378 -50.513  1.00  0.00     0.081 C 
HETATM   32  C   UNL     1     -39.906  53.520 -49.805  1.00  0.00     0.032 C 
HETATM   33  C   UNL     1     -40.357  51.037 -49.826  1.00  0.00     0.032 C 
ENDBRANCH  28  31
ENDBRANCH  19  22
ENDBRANCH   1  18
TORSDOF 3
ENDMDL
MODEL 3
REMARK VINA RESULT:      -8.9      2.463     10.075
REMARK  3 active torsions:
REMARK  status: ('A' for Active; 'I' for Inactive)
REMARK    1  A    between atoms: C_2  and  N_3 
REMARK    2  A    between atoms: C_8  and  C_9 
REMARK       I    between atoms: C_9  and  N_10 
REMARK    3  A    between atoms: N_10  and  C_11 
ROOT
HETATM    1  C   UNL     1     -42.792  56.167 -57.802  1.00  0.00     0.036 A 
HETATM    2  C   UNL     1     -42.613  57.548 -57.868  1.00  0.00     0.049 A 
HETATM    3  C   UNL     1     -43.267  58.327 -58.841  1.00  0.00     0.061 A 
HETATM    4  C   UNL     1     -44.139  57.716 -59.750  1.00  0.00     0.050 A 
HETATM    5  N   UNL     1     -44.950  58.376 -60.690  1.00  0.00    -0.324 N 
HETATM    6  C   UNL     1     -45.503  59.626 -60.604  1.00  0.00     0.245 C 
HETATM    7  O   UNL     1     -46.346  59.945 -61.446  1.00  0.00    -0.271 OA
HETATM    8  C   UNL     1     -45.202  60.474 -59.368  1.00  0.00     0.180 C 
HETATM    9  N   UNL     1     -43.771  60.700 -59.248  1.00  0.00    -0.334 N 
HETATM   10  C   UNL     1     -42.842  59.747 -58.913  1.00  0.00     0.256 C 
HETATM   11  O   UNL     1     -41.671  60.031 -58.669  1.00  0.00    -0.267 OA
HETATM   12  C   UNL     1     -45.802  61.884 -59.450  1.00  0.00     0.037 C 
HETATM   13  C   UNL     1     -44.763  62.756 -58.758  1.00  0.00     0.022 C 
HETATM   14  C   UNL     1     -43.454  62.115 -59.187  1.00  0.00     0.127 C 
HETATM   15  C   UNL     1     -44.242  56.316 -59.740  1.00  0.00     0.033 A 
HETATM   16  C   UNL     1     -43.575  55.549 -58.777  1.00  0.00     0.032 A 
HETATM   17  H   UNL     1     -45.374  57.827 -61.430  1.00  0.00     0.169 HD
ENDROOT
BRANCH   1  18
HETATM   18  N   UNL     1     -42.202  55.352 -56.812  1.00  0.00    -0.323 N 
HETATM   19  C   UNL     1     -42.611  55.263 -55.490  1.00  0.00     0.256 C 
HETATM   20  O   UNL     1     -43.586  55.828 -55.007  1.00  0.00    -0.267 OA
HETATM   21  H   UNL     1     -41.446  54.759 -57.118  1.00  0.00     0.169 HD
BRANCH  19  22
HETATM   22  C   UNL     1     -41.793  54.398 -54.587  1.00  0.00     0.034 A 
HETATM   23  C   UNL     1     -40.876  53.451 -55.052  1.00  0.00     0.018 A 
HETATM   24  C   UNL     1     -40.140  52.671 -54.147  1.00  0.00     0.015 A 
HETATM   25  C   UNL     1     -40.333  52.832 -52.760  1.00  0.00    -0.008 A 
HETATM   26  C   UNL     1     -41.269  53.765 -52.311  1.00  0.00     0.045 A 
HETATM   27  C   UNL     1     -39.760  52.226 -51.612  1.00  0.00     0.031 A 
HETATM   28  N   UNL     1     -41.270  53.714 -50.927  1.00  0.00    -0.352 N 
HETATM   29  C   UNL     1     -42.006  54.556 -53.207  1.00  0.00     0.047 A 
HETATM   30  C   UNL     1     -40.341  52.797 -50.502  1.00  0.00     0.092 A 
BRANCH  28  31
HETATM   31  C   UNL     1     -42.094  54.558 -50.057  1.00  0.00     0.081 C 
HETATM   32  C   UNL     1     -43.560  54.491 -50.476  1.00  0.00     0.032 C 
HETATM   33  C   UNL     1     -41.605  56.007 -49.976  1.00  0.00     0.032 C 
ENDBRANCH  28  31
ENDBRANCH  19  22
ENDBRANCH   1  18
TORSDOF 3
ENDMDL
MODEL 4
REMARK VINA RESULT:      -8.6      3.282     10.249
REMARK  3 active torsions:
REMARK  status: ('A' for Active; 'I' for Inactive)
REMARK    1  A    between atoms: C_2  and  N_3 
REMARK    2  A    between atoms: C_8  and  C_9 
REMARK       I    between atoms: C_9  and  N_10 
REMARK    3  A    between atoms: N_10  and  C_11 
ROOT
HETATM    1  C   UNL     1     -42.986  57.380 -56.915  1.00  0.00     0.036 A 
HETATM    2  C   UNL     1     -42.365  57.935 -58.032  1.00  0.00     0.049 A 
HETATM    3  C   UNL     1     -42.916  59.041 -58.707  1.00  0.00     0.061 A 
HETATM    4  C   UNL     1     -44.101  59.620 -58.237  1.00  0.00     0.050 A 
HETATM    5  N   UNL     1     -44.699  60.794 -58.729  1.00  0.00    -0.324 N 
HETATM    6  C   UNL     1     -44.092  61.879 -59.304  1.00  0.00     0.245 C 
HETATM    7  O   UNL     1     -44.771  62.892 -59.489  1.00  0.00    -0.271 OA
HETATM    8  C   UNL     1     -42.576  61.849 -59.498  1.00  0.00     0.180 C 
HETATM    9  N   UNL     1     -42.197  60.730 -60.343  1.00  0.00    -0.334 N 
HETATM   10  C   UNL     1     -42.251  59.407 -59.982  1.00  0.00     0.256 C 
HETATM   11  O   UNL     1     -41.767  58.517 -60.678  1.00  0.00    -0.267 OA
HETATM   12  C   UNL     1     -42.044  63.082 -60.240  1.00  0.00     0.037 C 
HETATM   13  C   UNL     1     -40.904  62.528 -61.085  1.00  0.00     0.022 C 
HETATM   14  C   UNL     1     -41.431  61.164 -61.497  1.00  0.00     0.127 C 
HETATM   15  C   UNL     1     -44.773  59.000 -57.172  1.00  0.00     0.033 A 
HETATM   16  C   UNL     1     -44.222  57.891 -56.518  1.00  0.00     0.032 A 
HETATM   17  H   UNL     1     -45.655  60.997 -58.458  1.00  0.00     0.169 HD
ENDROOT
BRANCH   1  18
HETATM   18  N   UNL     1     -42.444  56.308 -56.174  1.00  0.00    -0.323 N 
HETATM   19  C   UNL     1     -41.722  56.424 -54.996  1.00  0.00     0.256 C 
HETATM   20  O   UNL     1     -41.508  57.470 -54.392  1.00  0.00    -0.267 OA
HETATM   21  H   UNL     1     -42.644  55.382 -56.523  1.00  0.00     0.169 HD
BRANCH  19  22
HETATM   22  C   UNL     1     -41.168  55.162 -54.418  1.00  0.00     0.034 A 
HETATM   23  C   UNL     1     -40.709  54.096 -55.194  1.00  0.00     0.018 A 
HETATM   24  C   UNL     1     -40.200  52.939 -54.584  1.00  0.00     0.015 A 
HETATM   25  C   UNL     1     -40.163  52.844 -53.178  1.00  0.00    -0.008 A 
HETATM   26  C   UNL     1     -40.647  53.908 -52.415  1.00  0.00     0.045 A 
HETATM   27  C   UNL     1     -39.716  51.847 -52.273  1.00  0.00     0.031 A 
HETATM   28  N   UNL     1     -40.508  53.556 -51.082  1.00  0.00    -0.352 N 
HETATM   29  C   UNL     1     -41.151  55.073 -53.015  1.00  0.00     0.047 A 
HETATM   30  C   UNL     1     -39.924  52.316 -50.995  1.00  0.00     0.092 A 
BRANCH  28  31
HETATM   31  C   UNL     1     -40.871  54.408 -49.947  1.00  0.00     0.081 C 
HETATM   32  C   UNL     1     -40.309  53.837 -48.647  1.00  0.00     0.032 C 
HETATM   33  C   UNL     1     -42.377  54.662 -49.837  1.00  0.00     0.032 C 
ENDBRANCH  28  31
ENDBRANCH  19  22
ENDBRANCH   1  18
TORSDOF 3
ENDMDL
MODEL 5
REMARK VINA RESULT:      -8.3      1.527      2.672
REMARK  3 active torsions:
REMARK  status: ('A' for Active; 'I' for Inactive)
REMARK    1  A    between atoms: C_2  and  N_3 
REMARK    2  A    between atoms: C_8  and  C_9 
REMARK       I    between atoms: C_9  and  N_10 
REMARK    3  A    between atoms: N_10  and  C_11 
ROOT
HETATM    1  C   UNL     1     -42.754  56.018 -53.279  1.00  0.00     0.036 A 
HETATM    2  C   UNL     1     -42.007  54.842 -53.324  1.00  0.00     0.049 A 
HETATM    3  C   UNL     1     -41.227  54.425 -52.229  1.00  0.00     0.061 A 
HETATM    4  C   UNL     1     -41.214  55.188 -51.055  1.00  0.00     0.050 A 
HETATM    5  N   UNL     1     -40.586  54.837 -49.847  1.00  0.00    -0.324 N 
HETATM    6  C   UNL     1     -40.358  53.583 -49.342  1.00  0.00     0.245 C 
HETATM    7  O   UNL     1     -39.970  53.491 -48.175  1.00  0.00    -0.271 OA
HETATM    8  C   UNL     1     -40.784  52.373 -50.174  1.00  0.00     0.180 C 
HETATM    9  N   UNL     1     -40.103  52.378 -51.458  1.00  0.00    -0.334 N 
HETATM   10  C   UNL     1     -40.343  53.259 -52.481  1.00  0.00     0.256 C 
HETATM   11  O   UNL     1     -39.853  53.115 -53.599  1.00  0.00    -0.267 OA
HETATM   12  C   UNL     1     -40.379  51.038 -49.535  1.00  0.00     0.037 C 
HETATM   13  C   UNL     1     -40.032  50.160 -50.730  1.00  0.00     0.022 C 
HETATM   14  C   UNL     1     -39.374  51.144 -51.683  1.00  0.00     0.127 C 
HETATM   15  C   UNL     1     -41.890  56.418 -51.049  1.00  0.00     0.033 A 
HETATM   16  C   UNL     1     -42.651  56.830 -52.150  1.00  0.00     0.032 A 
HETATM   17  H   UNL     1     -40.463  55.554 -49.141  1.00  0.00     0.169 HD
ENDROOT
BRANCH   1  18
HETATM   18  N   UNL     1     -43.593  56.447 -54.330  1.00  0.00    -0.323 N 
HETATM   19  C   UNL     1     -43.256  57.373 -55.306  1.00  0.00     0.256 C 
HETATM   20  O   UNL     1     -42.157  57.902 -55.436  1.00  0.00    -0.267 OA
HETATM   21  H   UNL     1     -44.497  56.002 -54.387  1.00  0.00     0.169 HD
BRANCH  19  22
HETATM   22  C   UNL     1     -44.325  57.746 -56.280  1.00  0.00     0.034 A 
HETATM   23  C   UNL     1     -45.406  58.571 -55.959  1.00  0.00     0.018 A 
HETATM   24  C   UNL     1     -46.376  58.881 -56.925  1.00  0.00     0.015 A 
HETATM   25  C   UNL     1     -46.268  58.348 -58.225  1.00  0.00    -0.008 A 
HETATM   26  C   UNL     1     -45.195  57.507 -58.526  1.00  0.00     0.045 A 
HETATM   27  C   UNL     1     -47.050  58.468 -59.404  1.00  0.00     0.031 A 
HETATM   28  N   UNL     1     -45.334  57.118 -59.848  1.00  0.00    -0.352 N 
HETATM   29  C   UNL     1     -44.216  57.195 -57.569  1.00  0.00     0.047 A 
HETATM   30  C   UNL     1     -46.446  57.717 -60.387  1.00  0.00     0.092 A 
BRANCH  28  31
HETATM   31  C   UNL     1     -44.399  56.252 -60.570  1.00  0.00     0.081 C 
HETATM   32  C   UNL     1     -44.682  54.783 -60.263  1.00  0.00     0.032 C 
HETATM   33  C   UNL     1     -42.930  56.599 -60.317  1.00  0.00     0.032 C 
ENDBRANCH  28  31
ENDBRANCH  19  22
ENDBRANCH   1  18
TORSDOF 3
ENDMDL
MODEL 6
REMARK VINA RESULT:      -8.3      4.920     10.239
REMARK  3 active torsions:
REMARK  status: ('A' for Active; 'I' for Inactive)
REMARK    1  A    between atoms: C_2  and  N_3 
REMARK    2  A    between atoms: C_8  and  C_9 
REMARK       I    between atoms: C_9  and  N_10 
REMARK    3  A    between atoms: N_10  and  C_11 
ROOT
HETATM    1  C   UNL     1     -41.974  57.694 -52.577  1.00  0.00     0.036 A 
HETATM    2  C   UNL     1     -43.032  58.495 -52.152  1.00  0.00     0.049 A 
HETATM    3  C   UNL     1     -43.284  59.751 -52.737  1.00  0.00     0.061 A 
HETATM    4  C   UNL     1     -42.476  60.203 -53.787  1.00  0.00     0.050 A 
HETATM    5  N   UNL     1     -42.679  61.369 -54.544  1.00  0.00    -0.324 N 
HETATM    6  C   UNL     1     -43.864  61.990 -54.846  1.00  0.00     0.245 C 
HETATM    7  O   UNL     1     -43.847  62.890 -55.689  1.00  0.00    -0.271 OA
HETATM    8  C   UNL     1     -45.158  61.405 -54.280  1.00  0.00     0.180 C 
HETATM    9  N   UNL     1     -45.113  61.392 -52.827  1.00  0.00    -0.334 N 
HETATM   10  C   UNL     1     -44.321  60.572 -52.064  1.00  0.00     0.256 C 
HETATM   11  O   UNL     1     -44.444  60.493 -50.843  1.00  0.00    -0.267 OA
HETATM   12  C   UNL     1     -46.392  62.254 -54.613  1.00  0.00     0.037 C 
HETATM   13  C   UNL     1     -47.263  62.122 -53.371  1.00  0.00     0.022 C 
HETATM   14  C   UNL     1     -46.239  62.102 -52.249  1.00  0.00     0.127 C 
HETATM   15  C   UNL     1     -41.355  59.436 -54.146  1.00  0.00     0.033 A 
HETATM   16  C   UNL     1     -41.106  58.195 -53.547  1.00  0.00     0.032 A 
HETATM   17  H   UNL     1     -41.921  61.702 -55.129  1.00  0.00     0.169 HD
ENDROOT
BRANCH   1  18
HETATM   18  N   UNL     1     -41.716  56.406 -52.060  1.00  0.00    -0.323 N 
HETATM   19  C   UNL     1     -41.074  56.131 -50.862  1.00  0.00     0.256 C 
HETATM   20  O   UNL     1     -40.698  56.967 -50.047  1.00  0.00    -0.267 OA
HETATM   21  H   UNL     1     -42.073  55.631 -52.599  1.00  0.00     0.169 HD
BRANCH  19  22
HETATM   22  C   UNL     1     -40.831  54.691 -50.542  1.00  0.00     0.034 A 
HETATM   23  C   UNL     1     -40.915  54.166 -49.250  1.00  0.00     0.018 A 
HETATM   24  C   UNL     1     -40.674  52.802 -49.020  1.00  0.00     0.015 A 
HETATM   25  C   UNL     1     -40.335  51.958 -50.096  1.00  0.00    -0.008 A 
HETATM   26  C   UNL     1     -40.232  52.501 -51.378  1.00  0.00     0.045 A 
HETATM   27  C   UNL     1     -40.046  50.572 -50.204  1.00  0.00     0.031 A 
HETATM   28  N   UNL     1     -39.878  51.472 -52.235  1.00  0.00    -0.352 N 
HETATM   29  C   UNL     1     -40.477  53.862 -51.620  1.00  0.00     0.047 A 
HETATM   30  C   UNL     1     -39.786  50.298 -51.527  1.00  0.00     0.092 A 
BRANCH  28  31
HETATM   31  C   UNL     1     -39.694  51.611 -53.682  1.00  0.00     0.081 C 
HETATM   32  C   UNL     1     -40.900  52.302 -54.312  1.00  0.00     0.032 C 
HETATM   33  C   UNL     1     -39.384  50.286 -54.384  1.00  0.00     0.032 C 
ENDBRANCH  28  31
ENDBRANCH  19  22
ENDBRANCH   1  18
TORSDOF 3
ENDMDL
MODEL 7
REMARK VINA RESULT:      -8.3      6.406     10.857
REMARK  3 active torsions:
REMARK  status: ('A' for Active; 'I' for Inactive)
REMARK    1  A    between atoms: C_2  and  N_3 
REMARK    2  A    between atoms: C_8  and  C_9 
REMARK       I    between atoms: C_9  and  N_10 
REMARK    3  A    between atoms: N_10  and  C_11 
ROOT
HETATM    1  C   UNL     1     -44.283  59.312 -51.235  1.00  0.00     0.036 A 
HETATM    2  C   UNL     1     -44.284  60.476 -50.468  1.00  0.00     0.049 A 
HETATM    3  C   UNL     1     -45.134  61.555 -50.772  1.00  0.00     0.061 A 
HETATM    4  C   UNL     1     -46.021  61.458 -51.851  1.00  0.00     0.050 A 
HETATM    5  N   UNL     1     -47.008  62.398 -52.197  1.00  0.00    -0.324 N 
HETATM    6  C   UNL     1     -47.697  63.248 -51.372  1.00  0.00     0.245 C 
HETATM    7  O   UNL     1     -48.663  63.855 -51.843  1.00  0.00    -0.271 OA
HETATM    8  C   UNL     1     -47.365  63.246 -49.880  1.00  0.00     0.180 C 
HETATM    9  N   UNL     1     -45.968  63.592 -49.674  1.00  0.00    -0.334 N 
HETATM   10  C   UNL     1     -44.897  62.794 -49.990  1.00  0.00     0.256 C 
HETATM   11  O   UNL     1     -43.750  63.071 -49.645  1.00  0.00    -0.267 OA
HETATM   12  C   UNL     1     -48.139  64.313 -49.095  1.00  0.00     0.037 C 
HETATM   13  C   UNL     1     -47.144  64.772 -48.037  1.00  0.00     0.022 C 
HETATM   14  C   UNL     1     -45.822  64.731 -48.787  1.00  0.00     0.127 C 
HETATM   15  C   UNL     1     -45.949  60.325 -52.676  1.00  0.00     0.033 A 
HETATM   16  C   UNL     1     -45.089  59.263 -52.372  1.00  0.00     0.032 A 
HETATM   17  H   UNL     1     -47.442  62.326 -53.111  1.00  0.00     0.169 HD
ENDROOT
BRANCH   1  18
HETATM   18  N   UNL     1     -43.490  58.183 -50.937  1.00  0.00    -0.323 N 
HETATM   19  C   UNL     1     -42.351  57.792 -51.624  1.00  0.00     0.256 C 
HETATM   20  O   UNL     1     -41.831  58.409 -52.548  1.00  0.00    -0.267 OA
HETATM   21  H   UNL     1     -43.764  57.650 -50.125  1.00  0.00     0.169 HD
BRANCH  19  22
HETATM   22  C   UNL     1     -41.705  56.516 -51.190  1.00  0.00     0.034 A 
HETATM   23  C   UNL     1     -41.287  56.272 -49.880  1.00  0.00     0.018 A 
HETATM   24  C   UNL     1     -40.687  55.049 -49.541  1.00  0.00     0.015 A 
HETATM   25  C   UNL     1     -40.493  54.064 -50.530  1.00  0.00    -0.008 A 
HETATM   26  C   UNL     1     -40.895  54.330 -51.840  1.00  0.00     0.045 A 
HETATM   27  C   UNL     1     -39.943  52.756 -50.518  1.00  0.00     0.031 A 
HETATM   28  N   UNL     1     -40.583  53.217 -52.602  1.00  0.00    -0.352 N 
HETATM   29  C   UNL     1     -41.503  55.547 -52.189  1.00  0.00     0.047 A 
HETATM   30  C   UNL     1     -40.025  52.254 -51.797  1.00  0.00     0.092 A 
BRANCH  28  31
HETATM   31  C   UNL     1     -40.866  53.072 -54.032  1.00  0.00     0.081 C 
HETATM   32  C   UNL     1     -40.599  51.640 -54.490  1.00  0.00     0.032 C 
HETATM   33  C   UNL     1     -40.115  54.082 -54.904  1.00  0.00     0.032 C 
ENDBRANCH  28  31
ENDBRANCH  19  22
ENDBRANCH   1  18
TORSDOF 3
ENDMDL
MODEL 8
REMARK VINA RESULT:      -8.3     15.676     19.076
REMARK  3 active torsions:
REMARK  status: ('A' for Active; 'I' for Inactive)
REMARK    1  A    between atoms: C_2  and  N_3 
REMARK    2  A    between atoms: C_8  and  C_9 
REMARK       I    between atoms: C_9  and  N_10 
REMARK    3  A    between atoms: N_10  and  C_11 
ROOT
HETATM    1  C   UNL     1     -36.802  39.662 -50.435  1.00  0.00     0.036 A 
HETATM    2  C   UNL     1     -36.786  40.449 -51.586  1.00  0.00     0.049 A 
HETATM    3  C   UNL     1     -35.585  40.735 -52.263  1.00  0.00     0.061 A 
HETATM    4  C   UNL     1     -34.379  40.202 -51.793  1.00  0.00     0.050 A 
HETATM    5  N   UNL     1     -33.128  40.300 -52.428  1.00  0.00    -0.324 N 
HETATM    6  C   UNL     1     -32.863  40.394 -53.769  1.00  0.00     0.245 C 
HETATM    7  O   UNL     1     -31.692  40.270 -54.137  1.00  0.00    -0.271 OA
HETATM    8  C   UNL     1     -34.039  40.445 -54.744  1.00  0.00     0.180 C 
HETATM    9  N   UNL     1     -34.883  41.593 -54.458  1.00  0.00    -0.334 N 
HETATM   10  C   UNL     1     -35.692  41.731 -53.358  1.00  0.00     0.256 C 
HETATM   11  O   UNL     1     -36.502  42.649 -53.252  1.00  0.00    -0.267 OA
HETATM   12  C   UNL     1     -33.600  40.650 -56.199  1.00  0.00     0.037 C 
HETATM   13  C   UNL     1     -34.699  41.527 -56.785  1.00  0.00     0.022 C 
HETATM   14  C   UNL     1     -35.046  42.443 -55.623  1.00  0.00     0.127 C 
HETATM   15  C   UNL     1     -34.388  39.493 -50.581  1.00  0.00     0.033 A 
HETATM   16  C   UNL     1     -35.587  39.226 -49.909  1.00  0.00     0.032 A 
HETATM   17  H   UNL     1     -32.298  40.064 -51.896  1.00  0.00     0.169 HD
ENDROOT
BRANCH   1  18
HETATM   18  N   UNL     1     -37.986  39.303 -49.755  1.00  0.00    -0.323 N 
HETATM   19  C   UNL     1     -38.796  38.220 -50.061  1.00  0.00     0.256 C 
HETATM   20  O   UNL     1     -38.564  37.379 -50.923  1.00  0.00    -0.267 OA
HETATM   21  H   UNL     1     -38.227  39.868 -48.954  1.00  0.00     0.169 HD
BRANCH  19  22
HETATM   22  C   UNL     1     -40.049  38.068 -49.262  1.00  0.00     0.034 A 
HETATM   23  C   UNL     1     -41.302  37.832 -49.832  1.00  0.00     0.018 A 
HETATM   24  C   UNL     1     -42.440  37.699 -49.021  1.00  0.00     0.015 A 
HETATM   25  C   UNL     1     -42.323  37.816 -47.622  1.00  0.00    -0.008 A 
HETATM   26  C   UNL     1     -41.068  38.075 -47.066  1.00  0.00     0.045 A 
HETATM   27  C   UNL     1     -43.246  37.728 -46.548  1.00  0.00     0.031 A 
HETATM   28  N   UNL     1     -41.233  38.154 -45.694  1.00  0.00    -0.352 N 
HETATM   29  C   UNL     1     -39.923  38.203 -47.868  1.00  0.00     0.047 A 
HETATM   30  C   UNL     1     -42.550  37.923 -45.377  1.00  0.00     0.092 A 
BRANCH  28  31
HETATM   31  C   UNL     1     -40.154  38.386 -44.731  1.00  0.00     0.081 C 
HETATM   32  C   UNL     1     -39.505  37.066 -44.324  1.00  0.00     0.032 C 
HETATM   33  C   UNL     1     -40.598  39.188 -43.504  1.00  0.00     0.032 C 
ENDBRANCH  28  31
ENDBRANCH  19  22
ENDBRANCH   1  18
TORSDOF 3
ENDMDL
MODEL 9
REMARK VINA RESULT:      -8.2      2.817      9.809
REMARK  3 active torsions:
REMARK  status: ('A' for Active; 'I' for Inactive)
REMARK    1  A    between atoms: C_2  and  N_3 
REMARK    2  A    between atoms: C_8  and  C_9 
REMARK       I    between atoms: C_9  and  N_10 
REMARK    3  A    between atoms: N_10  and  C_11 
ROOT
HETATM    1  C   UNL     1     -42.428  56.023 -55.862  1.00  0.00     0.036 A 
HETATM    2  C   UNL     1     -42.399  57.356 -55.457  1.00  0.00     0.049 A 
HETATM    3  C   UNL     1     -42.911  58.383 -56.273  1.00  0.00     0.061 A 
HETATM    4  C   UNL     1     -43.488  58.066 -57.509  1.00  0.00     0.050 A 
HETATM    5  N   UNL     1     -44.145  58.962 -58.370  1.00  0.00    -0.324 N 
HETATM    6  C   UNL     1     -44.844  60.095 -58.042  1.00  0.00     0.245 C 
HETATM    7  O   UNL     1     -45.514  60.636 -58.924  1.00  0.00    -0.271 OA
HETATM    8  C   UNL     1     -44.918  60.507 -56.572  1.00  0.00     0.180 C 
HETATM    9  N   UNL     1     -43.584  60.737 -56.044  1.00  0.00    -0.334 N 
HETATM   10  C   UNL     1     -42.646  59.765 -55.801  1.00  0.00     0.256 C 
HETATM   11  O   UNL     1     -41.598  60.000 -55.205  1.00  0.00    -0.267 OA
HETATM   12  C   UNL     1     -45.645  61.842 -56.362  1.00  0.00     0.037 C 
HETATM   13  C   UNL     1     -44.889  62.483 -55.205  1.00  0.00     0.022 C 
HETATM   14  C   UNL     1     -43.453  62.067 -55.478  1.00  0.00     0.127 C 
HETATM   15  C   UNL     1     -43.428  56.735 -57.953  1.00  0.00     0.033 A 
HETATM   16  C   UNL     1     -42.903  55.724 -57.139  1.00  0.00     0.032 A 
HETATM   17  H   UNL     1     -44.331  58.667 -59.321  1.00  0.00     0.169 HD
ENDROOT
BRANCH   1  18
HETATM   18  N   UNL     1     -41.978  54.955 -55.057  1.00  0.00    -0.323 N 
HETATM   19  C   UNL     1     -40.655  54.580 -54.877  1.00  0.00     0.256 C 
HETATM   20  O   UNL     1     -39.681  55.165 -55.339  1.00  0.00    -0.267 OA
HETATM   21  H   UNL     1     -42.688  54.458 -54.541  1.00  0.00     0.169 HD
BRANCH  19  22
HETATM   22  C   UNL     1     -40.404  53.366 -54.043  1.00  0.00     0.034 A 
HETATM   23  C   UNL     1     -40.065  52.121 -54.579  1.00  0.00     0.018 A 
HETATM   24  C   UNL     1     -39.842  51.021 -53.736  1.00  0.00     0.015 A 
HETATM   25  C   UNL     1     -39.975  51.167 -52.341  1.00  0.00    -0.008 A 
HETATM   26  C   UNL     1     -40.337  52.411 -51.821  1.00  0.00     0.045 A 
HETATM   27  C   UNL     1     -39.816  50.284 -51.241  1.00  0.00     0.031 A 
HETATM   28  N   UNL     1     -40.408  52.278 -50.444  1.00  0.00    -0.352 N 
HETATM   29  C   UNL     1     -40.555  53.520 -52.654  1.00  0.00     0.047 A 
HETATM   30  C   UNL     1     -40.072  50.994 -50.091  1.00  0.00     0.092 A 
BRANCH  28  31
HETATM   31  C   UNL     1     -40.732  53.360 -49.512  1.00  0.00     0.081 C 
HETATM   32  C   UNL     1     -42.014  54.071 -49.939  1.00  0.00     0.032 C 
HETATM   33  C   UNL     1     -39.585  54.355 -49.315  1.00  0.00     0.032 C 
ENDBRANCH  28  31
ENDBRANCH  19  22
ENDBRANCH   1  18
TORSDOF 3
ENDMDL
MODEL 10
REMARK VINA RESULT:      -8.2      2.746      9.937
REMARK  3 active torsions:
REMARK  status: ('A' for Active; 'I' for Inactive)
REMARK    1  A    between atoms: C_2  and  N_3 
REMARK    2  A    between atoms: C_8  and  C_9 
REMARK       I    between atoms: C_9  and  N_10 
REMARK    3  A    between atoms: N_10  and  C_11 
ROOT
HETATM    1  C   UNL     1     -43.777  56.804 -55.085  1.00  0.00     0.036 A 
HETATM    2  C   UNL     1     -43.213  56.935 -56.353  1.00  0.00     0.049 A 
HETATM    3  C   UNL     1     -43.759  57.807 -57.313  1.00  0.00     0.061 A 
HETATM    4  C   UNL     1     -44.878  58.584 -56.990  1.00  0.00     0.050 A 
HETATM    5  N   UNL     1     -45.454  59.581 -57.797  1.00  0.00    -0.324 N 
HETATM    6  C   UNL     1     -44.839  60.387 -58.719  1.00  0.00     0.245 C 
HETATM    7  O   UNL     1     -45.482  61.333 -59.180  1.00  0.00    -0.271 OA
HETATM    8  C   UNL     1     -43.344  60.195 -58.974  1.00  0.00     0.180 C 
HETATM    9  N   UNL     1     -43.081  58.843 -59.438  1.00  0.00    -0.334 N 
HETATM   10  C   UNL     1     -43.172  57.708 -58.673  1.00  0.00     0.256 C 
HETATM   11  O   UNL     1     -42.781  56.614 -59.074  1.00  0.00    -0.267 OA
HETATM   12  C   UNL     1     -42.811  61.092 -60.098  1.00  0.00     0.037 C 
HETATM   13  C   UNL     1     -41.762  60.225 -60.782  1.00  0.00     0.022 C 
HETATM   14  C   UNL     1     -42.382  58.839 -60.710  1.00  0.00     0.127 C 
HETATM   15  C   UNL     1     -45.499  58.378 -55.748  1.00  0.00     0.033 A 
HETATM   16  C   UNL     1     -44.955  57.496 -54.805  1.00  0.00     0.032 A 
HETATM   17  H   UNL     1     -46.377  59.923 -57.553  1.00  0.00     0.169 HD
ENDROOT
BRANCH   1  18
HETATM   18  N   UNL     1     -43.234  55.985 -54.072  1.00  0.00    -0.323 N 
HETATM   19  C   UNL     1     -42.256  56.364 -53.165  1.00  0.00     0.256 C 
HETATM   20  O   UNL     1     -41.771  57.487 -53.068  1.00  0.00    -0.267 OA
HETATM   21  H   UNL     1     -43.631  55.061 -53.987  1.00  0.00     0.169 HD
BRANCH  19  22
HETATM   22  C   UNL     1     -41.764  55.312 -52.224  1.00  0.00     0.034 A 
HETATM   23  C   UNL     1     -41.852  55.421 -50.834  1.00  0.00     0.018 A 
HETATM   24  C   UNL     1     -41.369  54.394 -50.008  1.00  0.00     0.015 A 
HETATM   25  C   UNL     1     -40.781  53.249 -50.582  1.00  0.00    -0.008 A 
HETATM   26  C   UNL     1     -40.679  53.164 -51.972  1.00  0.00     0.045 A 
HETATM   27  C   UNL     1     -40.219  52.061 -50.047  1.00  0.00     0.031 A 
HETATM   28  N   UNL     1     -40.059  51.961 -52.267  1.00  0.00    -0.352 N 
HETATM   29  C   UNL     1     -41.165  54.183 -52.807  1.00  0.00     0.047 A 
HETATM   30  C   UNL     1     -39.799  51.283 -51.102  1.00  0.00     0.092 A 
BRANCH  28  31
HETATM   31  C   UNL     1     -39.784  51.469 -53.619  1.00  0.00     0.081 C 
HETATM   32  C   UNL     1     -40.935  51.816 -54.561  1.00  0.00     0.032 C 
HETATM   33  C   UNL     1     -39.460  49.973 -53.666  1.00  0.00     0.032 C 
ENDBRANCH  28  31
ENDBRANCH  19  22
ENDBRANCH   1  18
TORSDOF 3
ENDMDL
