MODEL 1
REMARK VINA RESULT:      -8.2      0.000      0.000
REMARK  6 active torsions:
REMARK  status: ('A' for Active; 'I' for Inactive)
REMARK    1  A    between atoms: C_3  and  C_4 
REMARK    2  A    between atoms: C_5  and  C_6 
REMARK    3  A    between atoms: C_8  and  N_9 
REMARK       I    between atoms: N_9  and  C_10 
REMARK    4  A    between atoms: C_10  and  C_11 
REMARK    5  A    between atoms: C_11  and  C_12 
REMARK    6  A    between atoms: C_15  and  O_16 
ROOT
HETATM    1  C   UNL     1     -43.299  56.233 -53.449  1.00  0.00     0.020 A 
HETATM    2  C   UNL     1     -44.063  56.425 -54.607  1.00  0.00     0.050 A 
HETATM    3  C   UNL     1     -44.960  57.491 -54.692  1.00  0.00     0.036 A 
HETATM    4  C   UNL     1     -45.075  58.370 -53.608  1.00  0.00     0.029 A 
HETATM    5  C   UNL     1     -44.299  58.191 -52.458  1.00  0.00     0.004 A 
HETATM    6  C   UNL     1     -43.412  57.118 -52.378  1.00  0.00     0.021 A 
ENDROOT
BRANCH   3   7
HETATM    7  N   UNL     1     -45.804  57.714 -55.799  1.00  0.00    -0.327 N 
HETATM    8  C   UNL     1     -45.572  58.553 -56.877  1.00  0.00     0.226 C 
HETATM    9  O   UNL     1     -44.654  59.362 -56.988  1.00  0.00    -0.273 OA
HETATM   10  H   UNL     1     -46.664  57.179 -55.813  1.00  0.00     0.169 HD
BRANCH   8  11
HETATM   11  C   UNL     1     -46.587  58.371 -57.996  1.00  0.00     0.141 C 
BRANCH  11  12
HETATM   12  C   UNL     1     -46.133  57.333 -58.993  1.00  0.00    -0.049 A 
HETATM   13  C   UNL     1     -44.793  56.928 -59.051  1.00  0.00     0.010 A 
HETATM   14  C   UNL     1     -44.379  56.003 -60.012  1.00  0.00     0.037 A 
HETATM   15  C   UNL     1     -45.299  55.484 -60.914  1.00  0.00     0.065 A 
HETATM   16  C   UNL     1     -46.635  55.869 -60.869  1.00  0.00     0.037 A 
HETATM   17  C   UNL     1     -47.049  56.793 -59.909  1.00  0.00     0.010 A 
BRANCH  15  18
HETATM   18  O   UNL     1     -44.848  54.593 -61.841  1.00  0.00    -0.361 OA
HETATM   19  H   UNL     1     -43.912  54.786 -62.022  1.00  0.00     0.217 HD
ENDBRANCH  15  18
ENDBRANCH  11  12
ENDBRANCH   8  11
ENDBRANCH   3   7
BRANCH   1  20
HETATM   20  C   UNL     1     -42.433  55.098 -53.357  1.00  0.00    -0.060 C 
HETATM   21  C   UNL     1     -41.742  54.117 -53.311  1.00  0.00    -0.041 C 
BRANCH  21  22
HETATM   22  C   UNL     1     -40.956  52.927 -53.294  1.00  0.00     0.110 A 
HETATM   23  C   UNL     1     -40.955  52.057 -54.376  1.00  0.00     0.041 A 
HETATM   24  C   UNL     1     -40.189  50.898 -54.287  1.00  0.00     0.004 A 
HETATM   25  C   UNL     1     -39.460  50.654 -53.128  1.00  0.00     0.019 A 
HETATM   26  C   UNL     1     -39.525  51.584 -52.102  1.00  0.00     0.118 A 
HETATM   27  N   UNL     1     -40.257  52.718 -52.158  1.00  0.00    -0.252 NA
ENDBRANCH  21  22
ENDBRANCH   1  20
TORSDOF 6
ENDMDL
MODEL 2
REMARK VINA RESULT:      -7.9      1.969      2.351
REMARK  6 active torsions:
REMARK  status: ('A' for Active; 'I' for Inactive)
REMARK    1  A    between atoms: C_3  and  C_4 
REMARK    2  A    between atoms: C_5  and  C_6 
REMARK    3  A    between atoms: C_8  and  N_9 
REMARK       I    between atoms: N_9  and  C_10 
REMARK    4  A    between atoms: C_10  and  C_11 
REMARK    5  A    between atoms: C_11  and  C_12 
REMARK    6  A    between atoms: C_15  and  O_16 
ROOT
HETATM    1  C   UNL     1     -41.204  56.257 -53.934  1.00  0.00     0.020 A 
HETATM    2  C   UNL     1     -41.887  56.654 -55.090  1.00  0.00     0.050 A 
HETATM    3  C   UNL     1     -42.215  57.995 -55.292  1.00  0.00     0.036 A 
HETATM    4  C   UNL     1     -41.841  58.938 -54.326  1.00  0.00     0.029 A 
HETATM    5  C   UNL     1     -41.143  58.547 -53.180  1.00  0.00     0.004 A 
HETATM    6  C   UNL     1     -40.826  57.203 -52.983  1.00  0.00     0.021 A 
ENDROOT
BRANCH   3   7
HETATM    7  N   UNL     1     -42.952  58.461 -56.400  1.00  0.00    -0.327 N 
HETATM    8  C   UNL     1     -42.476  59.186 -57.481  1.00  0.00     0.226 C 
HETATM    9  O   UNL     1     -41.355  59.675 -57.595  1.00  0.00    -0.273 OA
HETATM   10  H   UNL     1     -43.934  58.214 -56.412  1.00  0.00     0.169 HD
BRANCH   8  11
HETATM   11  C   UNL     1     -43.499  59.317 -58.599  1.00  0.00     0.141 C 
BRANCH  11  12
HETATM   12  C   UNL     1     -43.853  57.973 -59.187  1.00  0.00    -0.049 A 
HETATM   13  C   UNL     1     -45.182  57.647 -59.491  1.00  0.00     0.010 A 
HETATM   14  C   UNL     1     -45.499  56.381 -59.988  1.00  0.00     0.037 A 
HETATM   15  C   UNL     1     -44.494  55.442 -60.180  1.00  0.00     0.065 A 
HETATM   16  C   UNL     1     -43.168  55.748 -59.891  1.00  0.00     0.037 A 
HETATM   17  C   UNL     1     -42.851  57.013 -59.395  1.00  0.00     0.010 A 
BRANCH  15  18
HETATM   18  O   UNL     1     -44.852  54.216 -60.657  1.00  0.00    -0.361 OA
HETATM   19  H   UNL     1     -45.800  54.085 -60.487  1.00  0.00     0.217 HD
ENDBRANCH  15  18
ENDBRANCH  11  12
ENDBRANCH   8  11
ENDBRANCH   3   7
BRANCH   1  20
HETATM   20  C   UNL     1     -40.934  54.869 -53.717  1.00  0.00    -0.060 C 
HETATM   21  C   UNL     1     -40.652  53.716 -53.537  1.00  0.00    -0.041 C 
BRANCH  21  22
HETATM   22  C   UNL     1     -40.264  52.361 -53.319  1.00  0.00     0.110 A 
HETATM   23  C   UNL     1     -40.348  51.421 -54.337  1.00  0.00     0.041 A 
HETATM   24  C   UNL     1     -39.981  50.109 -54.052  1.00  0.00     0.004 A 
HETATM   25  C   UNL     1     -39.549  49.788 -52.769  1.00  0.00     0.019 A 
HETATM   26  C   UNL     1     -39.498  50.798 -51.820  1.00  0.00     0.118 A 
HETATM   27  N   UNL     1     -39.846  52.080 -52.066  1.00  0.00    -0.252 NA
ENDBRANCH  21  22
ENDBRANCH   1  20
TORSDOF 6
ENDMDL
MODEL 3
REMARK VINA RESULT:      -7.8      3.535      8.331
REMARK  6 active torsions:
REMARK  status: ('A' for Active; 'I' for Inactive)
REMARK    1  A    between atoms: C_3  and  C_4 
REMARK    2  A    between atoms: C_5  and  C_6 
REMARK    3  A    between atoms: C_8  and  N_9 
REMARK       I    between atoms: N_9  and  C_10 
REMARK    4  A    between atoms: C_10  and  C_11 
REMARK    5  A    between atoms: C_11  and  C_12 
REMARK    6  A    between atoms: C_15  and  O_16 
ROOT
HETATM    1  C   UNL     1     -42.073  57.384 -53.802  1.00  0.00     0.020 A 
HETATM    2  C   UNL     1     -41.600  56.230 -53.165  1.00  0.00     0.050 A 
HETATM    3  C   UNL     1     -41.163  56.283 -51.840  1.00  0.00     0.036 A 
HETATM    4  C   UNL     1     -41.216  57.504 -51.156  1.00  0.00     0.029 A 
HETATM    5  C   UNL     1     -41.706  58.653 -51.784  1.00  0.00     0.004 A 
HETATM    6  C   UNL     1     -42.132  58.593 -53.111  1.00  0.00     0.021 A 
ENDROOT
BRANCH   3   7
HETATM    7  N   UNL     1     -40.620  55.178 -51.152  1.00  0.00    -0.327 N 
HETATM    8  C   UNL     1     -41.301  54.074 -50.664  1.00  0.00     0.226 C 
HETATM    9  O   UNL     1     -42.520  53.931 -50.617  1.00  0.00    -0.273 OA
HETATM   10  H   UNL     1     -39.615  55.189 -51.026  1.00  0.00     0.169 HD
BRANCH   8  11
HETATM   11  C   UNL     1     -40.369  52.972 -50.184  1.00  0.00     0.141 C 
BRANCH  11  12
HETATM   12  C   UNL     1     -40.079  51.975 -51.279  1.00  0.00    -0.049 A 
HETATM   13  C   UNL     1     -40.121  52.354 -52.627  1.00  0.00     0.010 A 
HETATM   14  C   UNL     1     -39.900  51.408 -53.631  1.00  0.00     0.037 A 
HETATM   15  C   UNL     1     -39.638  50.087 -53.290  1.00  0.00     0.065 A 
HETATM   16  C   UNL     1     -39.586  49.692 -51.958  1.00  0.00     0.037 A 
HETATM   17  C   UNL     1     -39.807  50.636 -50.955  1.00  0.00     0.010 A 
BRANCH  15  18
HETATM   18  O   UNL     1     -39.439  49.196 -54.303  1.00  0.00    -0.361 OA
HETATM   19  H   UNL     1     -40.299  48.818 -54.553  1.00  0.00     0.217 HD
ENDBRANCH  15  18
ENDBRANCH  11  12
ENDBRANCH   8  11
ENDBRANCH   3   7
BRANCH   1  20
HETATM   20  C   UNL     1     -42.456  57.321 -55.178  1.00  0.00    -0.060 C 
HETATM   21  C   UNL     1     -42.748  57.222 -56.339  1.00  0.00    -0.041 C 
BRANCH  21  22
HETATM   22  C   UNL     1     -43.071  57.052 -57.718  1.00  0.00     0.110 A 
HETATM   23  C   UNL     1     -43.033  55.797 -58.310  1.00  0.00     0.041 A 
HETATM   24  C   UNL     1     -43.332  55.702 -59.666  1.00  0.00     0.004 A 
HETATM   25  C   UNL     1     -43.652  56.856 -60.374  1.00  0.00     0.019 A 
HETATM   26  C   UNL     1     -43.664  58.063 -59.692  1.00  0.00     0.118 A 
HETATM   27  N   UNL     1     -43.381  58.189 -58.377  1.00  0.00    -0.252 NA
ENDBRANCH  21  22
ENDBRANCH   1  20
TORSDOF 6
ENDMDL
MODEL 4
REMARK VINA RESULT:      -7.5     15.738     18.993
REMARK  6 active torsions:
REMARK  status: ('A' for Active; 'I' for Inactive)
REMARK    1  A    between atoms: C_3  and  C_4 
REMARK    2  A    between atoms: C_5  and  C_6 
REMARK    3  A    between atoms: C_8  and  N_9 
REMARK       I    between atoms: N_9  and  C_10 
REMARK    4  A    between atoms: C_10  and  C_11 
REMARK    5  A    between atoms: C_11  and  C_12 
REMARK    6  A    between atoms: C_15  and  O_16 
ROOT
HETATM    1  C   UNL     1     -32.123  39.799 -54.366  1.00  0.00     0.020 A 
HETATM    2  C   UNL     1     -33.324  40.183 -54.977  1.00  0.00     0.050 A 
HETATM    3  C   UNL     1     -34.390  40.648 -54.206  1.00  0.00     0.036 A 
HETATM    4  C   UNL     1     -34.238  40.734 -52.817  1.00  0.00     0.029 A 
HETATM    5  C   UNL     1     -33.034  40.369 -52.207  1.00  0.00     0.004 A 
HETATM    6  C   UNL     1     -31.976  39.897 -52.984  1.00  0.00     0.021 A 
ENDROOT
BRANCH   3   7
HETATM    7  N   UNL     1     -35.648  40.997 -54.742  1.00  0.00    -0.327 N 
HETATM    8  C   UNL     1     -35.939  42.067 -55.574  1.00  0.00     0.226 C 
HETATM    9  O   UNL     1     -35.181  42.985 -55.874  1.00  0.00    -0.273 OA
HETATM   10  H   UNL     1     -36.413  40.377 -54.509  1.00  0.00     0.169 HD
BRANCH   8  11
HETATM   11  C   UNL     1     -37.348  42.004 -56.144  1.00  0.00     0.141 C 
BRANCH  11  12
HETATM   12  C   UNL     1     -37.353  41.452 -57.549  1.00  0.00    -0.049 A 
HETATM   13  C   UNL     1     -37.094  42.281 -58.649  1.00  0.00     0.010 A 
HETATM   14  C   UNL     1     -37.151  41.766 -59.946  1.00  0.00     0.037 A 
HETATM   15  C   UNL     1     -37.469  40.429 -60.145  1.00  0.00     0.065 A 
HETATM   16  C   UNL     1     -37.724  39.588 -59.067  1.00  0.00     0.037 A 
HETATM   17  C   UNL     1     -37.666  40.102 -57.771  1.00  0.00     0.010 A 
BRANCH  15  18
HETATM   18  O   UNL     1     -37.524  39.973 -61.429  1.00  0.00    -0.361 OA
HETATM   19  H   UNL     1     -36.622  39.962 -61.790  1.00  0.00     0.217 HD
ENDBRANCH  15  18
ENDBRANCH  11  12
ENDBRANCH   8  11
ENDBRANCH   3   7
BRANCH   1  20
HETATM   20  C   UNL     1     -31.065  39.266 -55.168  1.00  0.00    -0.060 C 
HETATM   21  C   UNL     1     -30.141  38.831 -55.800  1.00  0.00    -0.041 C 
BRANCH  21  22
HETATM   22  C   UNL     1     -29.011  38.320 -56.504  1.00  0.00     0.110 A 
HETATM   23  C   UNL     1     -27.883  37.884 -55.824  1.00  0.00     0.041 A 
HETATM   24  C   UNL     1     -26.802  37.423 -56.570  1.00  0.00     0.004 A 
HETATM   25  C   UNL     1     -26.889  37.418 -57.958  1.00  0.00     0.019 A 
HETATM   26  C   UNL     1     -28.060  37.873 -58.546  1.00  0.00     0.118 A 
HETATM   27  N   UNL     1     -29.126  38.325 -57.850  1.00  0.00    -0.252 NA
ENDBRANCH  21  22
ENDBRANCH   1  20
TORSDOF 6
ENDMDL
MODEL 5
REMARK VINA RESULT:      -7.5      2.281      2.756
REMARK  6 active torsions:
REMARK  status: ('A' for Active; 'I' for Inactive)
REMARK    1  A    between atoms: C_3  and  C_4 
REMARK    2  A    between atoms: C_5  and  C_6 
REMARK    3  A    between atoms: C_8  and  N_9 
REMARK       I    between atoms: N_9  and  C_10 
REMARK    4  A    between atoms: C_10  and  C_11 
REMARK    5  A    between atoms: C_11  and  C_12 
REMARK    6  A    between atoms: C_15  and  O_16 
ROOT
HETATM    1  C   UNL     1     -41.338  55.890 -52.207  1.00  0.00     0.020 A 
HETATM    2  C   UNL     1     -41.975  56.526 -53.280  1.00  0.00     0.050 A 
HETATM    3  C   UNL     1     -42.428  57.840 -53.154  1.00  0.00     0.036 A 
HETATM    4  C   UNL     1     -42.227  58.514 -51.942  1.00  0.00     0.029 A 
HETATM    5  C   UNL     1     -41.575  57.887 -50.876  1.00  0.00     0.004 A 
HETATM    6  C   UNL     1     -41.133  56.571 -51.008  1.00  0.00     0.021 A 
ENDROOT
BRANCH   3   7
HETATM    7  N   UNL     1     -43.128  58.526 -54.167  1.00  0.00    -0.327 N 
HETATM    8  C   UNL     1     -42.596  59.354 -55.143  1.00  0.00     0.226 C 
HETATM    9  O   UNL     1     -41.437  59.753 -55.209  1.00  0.00    -0.273 OA
HETATM   10  H   UNL     1     -44.129  58.371 -54.194  1.00  0.00     0.169 HD
BRANCH   8  11
HETATM   11  C   UNL     1     -43.612  59.737 -56.209  1.00  0.00     0.141 C 
BRANCH  11  12
HETATM   12  C   UNL     1     -43.532  58.822 -57.406  1.00  0.00    -0.049 A 
HETATM   13  C   UNL     1     -43.328  59.335 -58.694  1.00  0.00     0.010 A 
HETATM   14  C   UNL     1     -43.305  58.480 -59.797  1.00  0.00     0.037 A 
HETATM   15  C   UNL     1     -43.487  57.114 -59.616  1.00  0.00     0.065 A 
HETATM   16  C   UNL     1     -43.685  56.583 -58.347  1.00  0.00     0.037 A 
HETATM   17  C   UNL     1     -43.707  57.438 -57.244  1.00  0.00     0.010 A 
BRANCH  15  18
HETATM   18  O   UNL     1     -43.468  56.318 -60.723  1.00  0.00    -0.361 OA
HETATM   19  H   UNL     1     -42.580  56.359 -61.116  1.00  0.00     0.217 HD
ENDBRANCH  15  18
ENDBRANCH  11  12
ENDBRANCH   8  11
ENDBRANCH   3   7
BRANCH   1  20
HETATM   20  C   UNL     1     -40.939  54.523 -52.336  1.00  0.00    -0.060 C 
HETATM   21  C   UNL     1     -40.600  53.382 -52.499  1.00  0.00    -0.041 C 
BRANCH  21  22
HETATM   22  C   UNL     1     -40.187  52.040 -52.748  1.00  0.00     0.110 A 
HETATM   23  C   UNL     1     -40.219  51.509 -54.030  1.00  0.00     0.041 A 
HETATM   24  C   UNL     1     -39.830  50.184 -54.202  1.00  0.00     0.004 A 
HETATM   25  C   UNL     1     -39.430  49.444 -53.094  1.00  0.00     0.019 A 
HETATM   26  C   UNL     1     -39.432  50.064 -51.854  1.00  0.00     0.118 A 
HETATM   27  N   UNL     1     -39.802  51.348 -51.654  1.00  0.00    -0.252 NA
ENDBRANCH  21  22
ENDBRANCH   1  20
TORSDOF 6
ENDMDL
MODEL 6
REMARK VINA RESULT:      -7.5     16.048     19.039
REMARK  6 active torsions:
REMARK  status: ('A' for Active; 'I' for Inactive)
REMARK    1  A    between atoms: C_3  and  C_4 
REMARK    2  A    between atoms: C_5  and  C_6 
REMARK    3  A    between atoms: C_8  and  N_9 
REMARK       I    between atoms: N_9  and  C_10 
REMARK    4  A    between atoms: C_10  and  C_11 
REMARK    5  A    between atoms: C_11  and  C_12 
REMARK    6  A    between atoms: C_15  and  O_16 
ROOT
HETATM    1  C   UNL     1     -32.298  39.197 -50.791  1.00  0.00     0.020 A 
HETATM    2  C   UNL     1     -33.056  40.160 -51.469  1.00  0.00     0.050 A 
HETATM    3  C   UNL     1     -33.442  39.951 -52.794  1.00  0.00     0.036 A 
HETATM    4  C   UNL     1     -33.068  38.760 -53.430  1.00  0.00     0.029 A 
HETATM    5  C   UNL     1     -32.327  37.789 -52.749  1.00  0.00     0.004 A 
HETATM    6  C   UNL     1     -31.939  38.010 -51.428  1.00  0.00     0.021 A 
ENDROOT
BRANCH   3   7
HETATM    7  N   UNL     1     -34.153  40.897 -53.559  1.00  0.00    -0.327 N 
HETATM    8  C   UNL     1     -35.482  41.266 -53.415  1.00  0.00     0.226 C 
HETATM    9  O   UNL     1     -36.314  40.729 -52.690  1.00  0.00    -0.273 OA
HETATM   10  H   UNL     1     -33.621  41.375 -54.276  1.00  0.00     0.169 HD
BRANCH   8  11
HETATM   11  C   UNL     1     -35.851  42.479 -54.256  1.00  0.00     0.141 C 
BRANCH  11  12
HETATM   12  C   UNL     1     -36.426  42.073 -55.591  1.00  0.00    -0.049 A 
HETATM   13  C   UNL     1     -37.680  41.453 -55.677  1.00  0.00     0.010 A 
HETATM   14  C   UNL     1     -38.176  41.038 -56.914  1.00  0.00     0.037 A 
HETATM   15  C   UNL     1     -37.423  41.240 -58.064  1.00  0.00     0.065 A 
HETATM   16  C   UNL     1     -36.180  41.859 -58.002  1.00  0.00     0.037 A 
HETATM   17  C   UNL     1     -35.684  42.274 -56.765  1.00  0.00     0.010 A 
BRANCH  15  18
HETATM   18  O   UNL     1     -37.943  40.808 -59.248  1.00  0.00    -0.361 OA
HETATM   19  H   UNL     1     -37.654  41.416 -59.950  1.00  0.00     0.217 HD
ENDBRANCH  15  18
ENDBRANCH  11  12
ENDBRANCH   8  11
ENDBRANCH   3   7
BRANCH   1  20
HETATM   20  C   UNL     1     -31.859  39.459 -49.455  1.00  0.00    -0.060 C 
HETATM   21  C   UNL     1     -31.472  39.627 -48.331  1.00  0.00    -0.041 C 
BRANCH  21  22
HETATM   22  C   UNL     1     -30.987  39.775 -46.997  1.00  0.00     0.110 A 
HETATM   23  C   UNL     1     -31.310  38.851 -46.014  1.00  0.00     0.041 A 
HETATM   24  C   UNL     1     -30.829  39.067 -44.726  1.00  0.00     0.004 A 
HETATM   25  C   UNL     1     -30.052  40.192 -44.471  1.00  0.00     0.019 A 
HETATM   26  C   UNL     1     -29.782  41.057 -45.522  1.00  0.00     0.118 A 
HETATM   27  N   UNL     1     -30.233  40.874 -46.782  1.00  0.00    -0.252 NA
ENDBRANCH  21  22
ENDBRANCH   1  20
TORSDOF 6
ENDMDL
MODEL 7
REMARK VINA RESULT:      -7.4      4.738      6.284
REMARK  6 active torsions:
REMARK  status: ('A' for Active; 'I' for Inactive)
REMARK    1  A    between atoms: C_3  and  C_4 
REMARK    2  A    between atoms: C_5  and  C_6 
REMARK    3  A    between atoms: C_8  and  N_9 
REMARK       I    between atoms: N_9  and  C_10 
REMARK    4  A    between atoms: C_10  and  C_11 
REMARK    5  A    between atoms: C_11  and  C_12 
REMARK    6  A    between atoms: C_15  and  O_16 
ROOT
HETATM    1  C   UNL     1     -43.232  55.808 -58.003  1.00  0.00     0.020 A 
HETATM    2  C   UNL     1     -43.041  57.180 -58.214  1.00  0.00     0.050 A 
HETATM    3  C   UNL     1     -43.430  57.770 -59.417  1.00  0.00     0.036 A 
HETATM    4  C   UNL     1     -44.022  56.972 -60.405  1.00  0.00     0.029 A 
HETATM    5  C   UNL     1     -44.230  55.606 -60.189  1.00  0.00     0.004 A 
HETATM    6  C   UNL     1     -43.831  55.024 -58.986  1.00  0.00     0.021 A 
ENDROOT
BRANCH   3   7
HETATM    7  N   UNL     1     -43.217  59.129 -59.725  1.00  0.00    -0.327 N 
HETATM    8  C   UNL     1     -42.316  59.653 -60.640  1.00  0.00     0.226 C 
HETATM    9  O   UNL     1     -41.442  59.033 -61.239  1.00  0.00    -0.273 OA
HETATM   10  H   UNL     1     -43.810  59.790 -59.238  1.00  0.00     0.169 HD
BRANCH   8  11
HETATM   11  C   UNL     1     -42.520  61.141 -60.881  1.00  0.00     0.141 C 
BRANCH  11  12
HETATM   12  C   UNL     1     -41.272  61.929 -60.566  1.00  0.00    -0.049 A 
HETATM   13  C   UNL     1     -40.840  62.097 -59.244  1.00  0.00     0.010 A 
HETATM   14  C   UNL     1     -39.711  62.870 -58.965  1.00  0.00     0.037 A 
HETATM   15  C   UNL     1     -39.015  63.476 -60.003  1.00  0.00     0.065 A 
HETATM   16  C   UNL     1     -39.423  63.317 -61.323  1.00  0.00     0.037 A 
HETATM   17  C   UNL     1     -40.551  62.544 -61.602  1.00  0.00     0.010 A 
BRANCH  15  18
HETATM   18  O   UNL     1     -37.926  64.231 -59.683  1.00  0.00    -0.361 OA
HETATM   19  H   UNL     1     -37.271  64.144 -60.396  1.00  0.00     0.217 HD
ENDBRANCH  15  18
ENDBRANCH  11  12
ENDBRANCH   8  11
ENDBRANCH   3   7
BRANCH   1  20
HETATM   20  C   UNL     1     -42.769  55.212 -56.788  1.00  0.00    -0.060 C 
HETATM   21  C   UNL     1     -42.328  54.718 -55.786  1.00  0.00    -0.041 C 
BRANCH  21  22
HETATM   22  C   UNL     1     -41.752  54.146 -54.613  1.00  0.00     0.110 A 
HETATM   23  C   UNL     1     -40.643  53.315 -54.695  1.00  0.00     0.041 A 
HETATM   24  C   UNL     1     -40.145  52.765 -53.517  1.00  0.00     0.004 A 
HETATM   25  C   UNL     1     -40.772  53.062 -52.311  1.00  0.00     0.019 A 
HETATM   26  C   UNL     1     -41.874  53.905 -52.333  1.00  0.00     0.118 A 
HETATM   27  N   UNL     1     -42.379  54.455 -53.458  1.00  0.00    -0.252 NA
ENDBRANCH  21  22
ENDBRANCH   1  20
TORSDOF 6
ENDMDL
MODEL 8
REMARK VINA RESULT:      -7.3      3.377      6.313
REMARK  6 active torsions:
REMARK  status: ('A' for Active; 'I' for Inactive)
REMARK    1  A    between atoms: C_3  and  C_4 
REMARK    2  A    between atoms: C_5  and  C_6 
REMARK    3  A    between atoms: C_8  and  N_9 
REMARK       I    between atoms: N_9  and  C_10 
REMARK    4  A    between atoms: C_10  and  C_11 
REMARK    5  A    between atoms: C_11  and  C_12 
REMARK    6  A    between atoms: C_15  and  O_16 
ROOT
HETATM    1  C   UNL     1     -42.140  55.412 -55.456  1.00  0.00     0.020 A 
HETATM    2  C   UNL     1     -42.344  56.559 -54.678  1.00  0.00     0.050 A 
HETATM    3  C   UNL     1     -42.917  57.701 -55.241  1.00  0.00     0.036 A 
HETATM    4  C   UNL     1     -43.294  57.677 -56.590  1.00  0.00     0.029 A 
HETATM    5  C   UNL     1     -43.108  56.527 -57.363  1.00  0.00     0.004 A 
HETATM    6  C   UNL     1     -42.527  55.394 -56.795  1.00  0.00     0.021 A 
ENDROOT
BRANCH   3   7
HETATM    7  N   UNL     1     -43.099  58.910 -54.538  1.00  0.00    -0.327 N 
HETATM    8  C   UNL     1     -42.115  59.770 -54.077  1.00  0.00     0.226 C 
HETATM    9  O   UNL     1     -40.906  59.559 -54.070  1.00  0.00    -0.273 OA
HETATM   10  H   UNL     1     -44.060  59.187 -54.379  1.00  0.00     0.169 HD
BRANCH   8  11
HETATM   11  C   UNL     1     -42.677  61.090 -53.570  1.00  0.00     0.141 C 
BRANCH  11  12
HETATM   12  C   UNL     1     -43.477  60.902 -52.304  1.00  0.00    -0.049 A 
HETATM   13  C   UNL     1     -42.854  60.912 -51.049  1.00  0.00     0.010 A 
HETATM   14  C   UNL     1     -43.601  60.686 -49.891  1.00  0.00     0.037 A 
HETATM   15  C   UNL     1     -44.966  60.449 -49.985  1.00  0.00     0.065 A 
HETATM   16  C   UNL     1     -45.605  60.441 -51.219  1.00  0.00     0.037 A 
HETATM   17  C   UNL     1     -44.859  60.666 -52.377  1.00  0.00     0.010 A 
BRANCH  15  18
HETATM   18  O   UNL     1     -45.653  60.223 -48.829  1.00  0.00    -0.361 OA
HETATM   19  H   UNL     1     -45.039  60.326 -48.082  1.00  0.00     0.217 HD
ENDBRANCH  15  18
ENDBRANCH  11  12
ENDBRANCH   8  11
ENDBRANCH   3   7
BRANCH   1  20
HETATM   20  C   UNL     1     -41.494  54.275 -54.877  1.00  0.00    -0.060 C 
HETATM   21  C   UNL     1     -40.989  53.321 -54.351  1.00  0.00    -0.041 C 
BRANCH  21  22
HETATM   22  C   UNL     1     -40.433  52.186 -53.690  1.00  0.00     0.110 A 
HETATM   23  C   UNL     1     -40.283  50.976 -54.354  1.00  0.00     0.041 A 
HETATM   24  C   UNL     1     -39.761  49.898 -53.646  1.00  0.00     0.004 A 
HETATM   25  C   UNL     1     -39.413  50.068 -52.310  1.00  0.00     0.019 A 
HETATM   26  C   UNL     1     -39.599  51.316 -51.735  1.00  0.00     0.118 A 
HETATM   27  N   UNL     1     -40.102  52.382 -52.396  1.00  0.00    -0.252 NA
ENDBRANCH  21  22
ENDBRANCH   1  20
TORSDOF 6
ENDMDL
MODEL 9
REMARK VINA RESULT:      -7.2      2.861      8.474
REMARK  6 active torsions:
REMARK  status: ('A' for Active; 'I' for Inactive)
REMARK    1  A    between atoms: C_3  and  C_4 
REMARK    2  A    between atoms: C_5  and  C_6 
REMARK    3  A    between atoms: C_8  and  N_9 
REMARK       I    between atoms: N_9  and  C_10 
REMARK    4  A    between atoms: C_10  and  C_11 
REMARK    5  A    between atoms: C_11  and  C_12 
REMARK    6  A    between atoms: C_15  and  O_16 
ROOT
HETATM    1  C   UNL     1     -45.102  58.160 -55.190  1.00  0.00     0.020 A 
HETATM    2  C   UNL     1     -44.523  57.029 -54.599  1.00  0.00     0.050 A 
HETATM    3  C   UNL     1     -43.980  57.104 -53.315  1.00  0.00     0.036 A 
HETATM    4  C   UNL     1     -44.033  58.322 -52.626  1.00  0.00     0.029 A 
HETATM    5  C   UNL     1     -44.627  59.446 -53.207  1.00  0.00     0.004 A 
HETATM    6  C   UNL     1     -45.160  59.365 -54.493  1.00  0.00     0.021 A 
ENDROOT
BRANCH   3   7
HETATM    7  N   UNL     1     -43.329  56.027 -52.679  1.00  0.00    -0.327 N 
HETATM    8  C   UNL     1     -41.965  55.794 -52.607  1.00  0.00     0.226 C 
HETATM    9  O   UNL     1     -41.087  56.406 -53.211  1.00  0.00    -0.273 OA
HETATM   10  H   UNL     1     -43.931  55.368 -52.201  1.00  0.00     0.169 HD
BRANCH   8  11
HETATM   11  C   UNL     1     -41.608  54.669 -51.647  1.00  0.00     0.141 C 
BRANCH  11  12
HETATM   12  C   UNL     1     -40.977  53.504 -52.369  1.00  0.00    -0.049 A 
HETATM   13  C   UNL     1     -41.367  53.167 -53.672  1.00  0.00     0.010 A 
HETATM   14  C   UNL     1     -40.809  52.056 -54.308  1.00  0.00     0.037 A 
HETATM   15  C   UNL     1     -39.865  51.281 -53.645  1.00  0.00     0.065 A 
HETATM   16  C   UNL     1     -39.461  51.602 -52.354  1.00  0.00     0.037 A 
HETATM   17  C   UNL     1     -40.018  52.712 -51.718  1.00  0.00     0.010 A 
BRANCH  15  18
HETATM   18  O   UNL     1     -39.356  50.200 -54.301  1.00  0.00    -0.361 OA
HETATM   19  H   UNL     1     -38.420  50.106 -54.058  1.00  0.00     0.217 HD
ENDBRANCH  15  18
ENDBRANCH  11  12
ENDBRANCH   8  11
ENDBRANCH   3   7
BRANCH   1  20
HETATM   20  C   UNL     1     -45.596  58.078 -56.530  1.00  0.00    -0.060 C 
HETATM   21  C   UNL     1     -46.062  58.013 -57.635  1.00  0.00    -0.041 C 
BRANCH  21  22
HETATM   22  C   UNL     1     -46.666  57.947 -58.925  1.00  0.00     0.110 A 
HETATM   23  C   UNL     1     -46.735  56.748 -59.621  1.00  0.00     0.041 A 
HETATM   24  C   UNL     1     -47.311  56.755 -60.888  1.00  0.00     0.004 A 
HETATM   25  C   UNL     1     -47.792  57.952 -61.408  1.00  0.00     0.019 A 
HETATM   26  C   UNL     1     -47.679  59.098 -60.635  1.00  0.00     0.118 A 
HETATM   27  N   UNL     1     -47.127  59.123 -59.402  1.00  0.00    -0.252 NA
ENDBRANCH  21  22
ENDBRANCH   1  20
TORSDOF 6
ENDMDL
MODEL 10
REMARK VINA RESULT:      -7.2      2.757      3.232
REMARK  6 active torsions:
REMARK  status: ('A' for Active; 'I' for Inactive)
REMARK    1  A    between atoms: C_3  and  C_4 
REMARK    2  A    between atoms: C_5  and  C_6 
REMARK    3  A    between atoms: C_8  and  N_9 
REMARK       I    between atoms: N_9  and  C_10 
REMARK    4  A    between atoms: C_10  and  C_11 
REMARK    5  A    between atoms: C_11  and  C_12 
REMARK    6  A    between atoms: C_15  and  O_16 
ROOT
HETATM    1  C   UNL     1     -41.277  55.896 -54.248  1.00  0.00     0.020 A 
HETATM    2  C   UNL     1     -41.935  56.096 -55.468  1.00  0.00     0.050 A 
HETATM    3  C   UNL     1     -42.351  57.374 -55.844  1.00  0.00     0.036 A 
HETATM    4  C   UNL     1     -42.092  58.452 -54.989  1.00  0.00     0.029 A 
HETATM    5  C   UNL     1     -41.418  58.258 -53.779  1.00  0.00     0.004 A 
HETATM    6  C   UNL     1     -41.013  56.977 -53.407  1.00  0.00     0.021 A 
ENDROOT
BRANCH   3   7
HETATM    7  N   UNL     1     -43.070  57.644 -57.027  1.00  0.00    -0.327 N 
HETATM    8  C   UNL     1     -43.488  56.732 -57.983  1.00  0.00     0.226 C 
HETATM    9  O   UNL     1     -43.179  55.545 -58.043  1.00  0.00    -0.273 OA
HETATM   10  H   UNL     1     -43.328  58.612 -57.174  1.00  0.00     0.169 HD
BRANCH   8  11
HETATM   11  C   UNL     1     -44.436  57.342 -59.005  1.00  0.00     0.141 C 
BRANCH  11  12
HETATM   12  C   UNL     1     -43.724  58.320 -59.907  1.00  0.00    -0.049 A 
HETATM   13  C   UNL     1     -42.380  58.131 -60.257  1.00  0.00     0.010 A 
HETATM   14  C   UNL     1     -41.722  59.072 -61.052  1.00  0.00     0.037 A 
HETATM   15  C   UNL     1     -42.402  60.199 -61.496  1.00  0.00     0.065 A 
HETATM   16  C   UNL     1     -43.737  60.403 -61.165  1.00  0.00     0.037 A 
HETATM   17  C   UNL     1     -44.395  59.463 -60.371  1.00  0.00     0.010 A 
BRANCH  15  18
HETATM   18  O   UNL     1     -41.715  61.095 -62.260  1.00  0.00    -0.361 OA
HETATM   19  H   UNL     1     -40.769  60.875 -62.216  1.00  0.00     0.217 HD
ENDBRANCH  15  18
ENDBRANCH  11  12
ENDBRANCH   8  11
ENDBRANCH   3   7
BRANCH   1  20
HETATM   20  C   UNL     1     -40.915  54.570 -53.852  1.00  0.00    -0.060 C 
HETATM   21  C   UNL     1     -40.600  53.446 -53.573  1.00  0.00    -0.041 C 
BRANCH  21  22
HETATM   22  C   UNL     1     -40.207  52.103 -53.295  1.00  0.00     0.110 A 
HETATM   23  C   UNL     1     -40.242  51.130 -54.284  1.00  0.00     0.041 A 
HETATM   24  C   UNL     1     -39.873  49.832 -53.942  1.00  0.00     0.004 A 
HETATM   25  C   UNL     1     -39.489  49.558 -52.634  1.00  0.00     0.019 A 
HETATM   26  C   UNL     1     -39.485  50.599 -51.717  1.00  0.00     0.118 A 
HETATM   27  N   UNL     1     -39.836  51.868 -52.018  1.00  0.00    -0.252 NA
ENDBRANCH  21  22
ENDBRANCH   1  20
TORSDOF 6
ENDMDL
