MODEL 1
REMARK VINA RESULT:      -8.0      0.000      0.000
REMARK  7 active torsions:
REMARK  status: ('A' for Active; 'I' for Inactive)
REMARK    1  A    between atoms: O_2  and  C_3 
REMARK    2  A    between atoms: C_4  and  O_5 
REMARK    3  A    between atoms: C_7  and  C_8 
REMARK       I    between atoms: C_8  and  N_9 
REMARK    4  A    between atoms: N_9  and  C_10 
REMARK    5  A    between atoms: C_10  and  C_11 
REMARK    6  A    between atoms: C_11  and  N_12 
REMARK    7  A    between atoms: C_11  and  C_18 
ROOT
HETATM    1  C   UNL     1     -42.095  56.596 -52.103  1.00  0.00     0.239 C 
ENDROOT
BRANCH   1   2
HETATM    2  C   UNL     1     -41.168  57.468 -53.013  1.00  0.00     0.161 C 
BRANCH   2   3
HETATM    3  N   UNL     1     -41.642  57.646 -54.380  1.00  0.00    -0.354 N 
HETATM    4  C   UNL     1     -41.838  58.876 -54.958  1.00  0.00     0.254 C 
HETATM    5  O   UNL     1     -41.488  59.901 -54.381  1.00  0.00    -0.268 OA
HETATM    6  H   UNL     1     -41.938  56.826 -54.907  1.00  0.00     0.162 HD
BRANCH   4   7
HETATM    7  C   UNL     1     -42.445  58.935 -56.323  1.00  0.00     0.068 A 
HETATM    8  C   UNL     1     -43.491  58.100 -56.768  1.00  0.00     0.117 A 
HETATM    9  C   UNL     1     -43.912  58.169 -58.117  1.00  0.00     0.102 A 
HETATM   10  C   UNL     1     -43.350  59.131 -58.966  1.00  0.00     0.040 A 
HETATM   11  C   UNL     1     -42.351  59.988 -58.509  1.00  0.00     0.004 A 
HETATM   12  C   UNL     1     -41.890  59.879 -57.201  1.00  0.00     0.020 A 
BRANCH   8  13
HETATM   13  O   UNL     1     -43.996  57.183 -55.870  1.00  0.00    -0.352 OA
HETATM   14  C   UNL     1     -45.220  57.570 -55.236  1.00  0.00     0.210 C 
ENDBRANCH   8  13
BRANCH   9  15
HETATM   15  O   UNL     1     -44.843  57.251 -58.530  1.00  0.00    -0.353 OA
HETATM   16  C   UNL     1     -44.397  56.155 -59.321  1.00  0.00     0.210 C 
ENDBRANCH   9  15
ENDBRANCH   4   7
ENDBRANCH   2   3
ENDBRANCH   1   2
BRANCH   1  17
HETATM   17  N   UNL     1     -42.829  57.461 -51.061  1.00  0.00    -0.061 N 
HETATM   18  H   UNL     1     -42.605  57.042 -50.148  1.00  0.00     0.280 HD
HETATM   19  C   UNL     1     -44.329  57.549 -51.239  1.00  0.00     0.236 C 
HETATM   20  C   UNL     1     -44.516  58.808 -52.053  1.00  0.00     0.029 C 
HETATM   21  C   UNL     1     -43.539  59.765 -51.407  1.00  0.00     0.029 C 
HETATM   22  C   UNL     1     -42.344  58.909 -51.013  1.00  0.00     0.236 C 
ENDBRANCH   1  17
BRANCH   1  23
HETATM   23  C   UNL     1     -41.279  55.446 -51.506  1.00  0.00    -0.015 A 
HETATM   24  C   UNL     1     -40.935  54.286 -52.275  1.00  0.00    -0.018 A 
HETATM   25  C   UNL     1     -40.190  53.255 -51.643  1.00  0.00    -0.025 A 
HETATM   26  C   UNL     1     -41.279  54.080 -53.637  1.00  0.00     0.013 A 
HETATM   27  C   UNL     1     -39.840  52.092 -52.348  1.00  0.00     0.012 A 
HETATM   28  C   UNL     1     -39.788  53.387 -50.309  1.00  0.00     0.012 A 
HETATM   29  C   UNL     1     -40.206  51.920 -53.680  1.00  0.00     0.001 A 
HETATM   30  C   UNL     1     -40.922  52.915 -54.325  1.00  0.00     0.001 A 
HETATM   31  C   UNL     1     -40.104  54.523 -49.575  1.00  0.00     0.002 A 
HETATM   32  C   UNL     1     -40.841  55.541 -50.166  1.00  0.00     0.010 A 
ENDBRANCH   1  23
TORSDOF 7
ENDMDL
MODEL 2
REMARK VINA RESULT:      -7.7      1.784      2.929
REMARK  7 active torsions:
REMARK  status: ('A' for Active; 'I' for Inactive)
REMARK    1  A    between atoms: O_2  and  C_3 
REMARK    2  A    between atoms: C_4  and  O_5 
REMARK    3  A    between atoms: C_7  and  C_8 
REMARK       I    between atoms: C_8  and  N_9 
REMARK    4  A    between atoms: N_9  and  C_10 
REMARK    5  A    between atoms: C_10  and  C_11 
REMARK    6  A    between atoms: C_11  and  N_12 
REMARK    7  A    between atoms: C_11  and  C_18 
ROOT
HETATM    1  C   UNL     1     -42.064  55.622 -53.636  1.00  0.00     0.239 C 
ENDROOT
BRANCH   1   2
HETATM    2  C   UNL     1     -41.120  55.914 -54.848  1.00  0.00     0.161 C 
BRANCH   2   3
HETATM    3  N   UNL     1     -41.803  56.166 -56.111  1.00  0.00    -0.354 N 
HETATM    4  C   UNL     1     -42.795  55.357 -56.609  1.00  0.00     0.254 C 
HETATM    5  O   UNL     1     -43.252  54.440 -55.934  1.00  0.00    -0.268 OA
HETATM    6  H   UNL     1     -41.469  56.921 -56.708  1.00  0.00     0.162 HD
BRANCH   4   7
HETATM    7  C   UNL     1     -43.336  55.646 -57.972  1.00  0.00     0.068 A 
HETATM    8  C   UNL     1     -43.439  56.936 -58.533  1.00  0.00     0.117 A 
HETATM    9  C   UNL     1     -44.071  57.102 -59.788  1.00  0.00     0.102 A 
HETATM   10  C   UNL     1     -44.498  55.974 -60.500  1.00  0.00     0.040 A 
HETATM   11  C   UNL     1     -44.349  54.696 -59.964  1.00  0.00     0.004 A 
HETATM   12  C   UNL     1     -43.787  54.535 -58.701  1.00  0.00     0.020 A 
BRANCH   8  13
HETATM   13  O   UNL     1     -42.990  57.996 -57.773  1.00  0.00    -0.352 OA
HETATM   14  C   UNL     1     -41.844  58.673 -58.299  1.00  0.00     0.210 C 
ENDBRANCH   8  13
BRANCH   9  15
HETATM   15  O   UNL     1     -44.258  58.386 -60.230  1.00  0.00    -0.353 OA
HETATM   16  C   UNL     1     -45.557  58.954 -60.106  1.00  0.00     0.210 C 
ENDBRANCH   9  15
ENDBRANCH   4   7
ENDBRANCH   2   3
ENDBRANCH   1   2
BRANCH   1  17
HETATM   17  N   UNL     1     -42.697  56.918 -53.095  1.00  0.00    -0.061 N 
HETATM   18  H   UNL     1     -42.308  57.041 -52.151  1.00  0.00     0.280 HD
HETATM   19  C   UNL     1     -44.209  56.921 -53.040  1.00  0.00     0.236 C 
HETATM   20  C   UNL     1     -44.610  57.563 -54.348  1.00  0.00     0.029 C 
HETATM   21  C   UNL     1     -43.622  58.702 -54.471  1.00  0.00     0.029 C 
HETATM   22  C   UNL     1     -42.320  58.166 -53.893  1.00  0.00     0.236 C 
ENDBRANCH   1  17
BRANCH   1  23
HETATM   23  C   UNL     1     -41.302  54.807 -52.587  1.00  0.00    -0.015 A 
HETATM   24  C   UNL     1     -40.765  53.511 -52.883  1.00  0.00    -0.018 A 
HETATM   25  C   UNL     1     -40.085  52.811 -51.850  1.00  0.00    -0.025 A 
HETATM   26  C   UNL     1     -40.857  52.858 -54.140  1.00  0.00     0.013 A 
HETATM   27  C   UNL     1     -39.555  51.532 -52.083  1.00  0.00     0.012 A 
HETATM   28  C   UNL     1     -39.929  53.391 -50.586  1.00  0.00     0.012 A 
HETATM   29  C   UNL     1     -39.675  50.919 -53.327  1.00  0.00     0.001 A 
HETATM   30  C   UNL     1     -40.322  51.584 -54.356  1.00  0.00     0.001 A 
HETATM   31  C   UNL     1     -40.429  54.658 -50.312  1.00  0.00     0.002 A 
HETATM   32  C   UNL     1     -41.108  55.358 -51.301  1.00  0.00     0.010 A 
ENDBRANCH   1  23
TORSDOF 7
ENDMDL
MODEL 3
REMARK VINA RESULT:      -7.7      1.838      3.152
REMARK  7 active torsions:
REMARK  status: ('A' for Active; 'I' for Inactive)
REMARK    1  A    between atoms: O_2  and  C_3 
REMARK    2  A    between atoms: C_4  and  O_5 
REMARK    3  A    between atoms: C_7  and  C_8 
REMARK       I    between atoms: C_8  and  N_9 
REMARK    4  A    between atoms: N_9  and  C_10 
REMARK    5  A    between atoms: C_10  and  C_11 
REMARK    6  A    between atoms: C_11  and  N_12 
REMARK    7  A    between atoms: C_11  and  C_18 
ROOT
HETATM    1  C   UNL     1     -42.549  56.610 -53.216  1.00  0.00     0.239 C 
ENDROOT
BRANCH   1   2
HETATM    2  C   UNL     1     -43.948  56.494 -53.905  1.00  0.00     0.161 C 
BRANCH   2   3
HETATM    3  N   UNL     1     -43.908  56.346 -55.355  1.00  0.00    -0.354 N 
HETATM    4  C   UNL     1     -43.933  57.409 -56.225  1.00  0.00     0.254 C 
HETATM    5  O   UNL     1     -43.856  58.560 -55.808  1.00  0.00    -0.268 OA
HETATM    6  H   UNL     1     -43.961  55.411 -55.754  1.00  0.00     0.162 HD
BRANCH   4   7
HETATM    7  C   UNL     1     -44.013  57.130 -57.691  1.00  0.00     0.068 A 
HETATM    8  C   UNL     1     -45.103  57.485 -58.514  1.00  0.00     0.117 A 
HETATM    9  C   UNL     1     -45.120  57.071 -59.866  1.00  0.00     0.102 A 
HETATM   10  C   UNL     1     -44.012  56.397 -60.395  1.00  0.00     0.040 A 
HETATM   11  C   UNL     1     -42.915  56.091 -59.592  1.00  0.00     0.004 A 
HETATM   12  C   UNL     1     -42.923  56.440 -58.245  1.00  0.00     0.020 A 
BRANCH   8  13
HETATM   13  O   UNL     1     -46.153  58.153 -57.920  1.00  0.00    -0.352 OA
HETATM   14  C   UNL     1     -46.191  59.562 -58.170  1.00  0.00     0.210 C 
ENDBRANCH   8  13
BRANCH   9  15
HETATM   15  O   UNL     1     -46.256  57.333 -60.586  1.00  0.00    -0.353 OA
HETATM   16  C   UNL     1     -47.236  56.305 -60.689  1.00  0.00     0.210 C 
ENDBRANCH   9  15
ENDBRANCH   4   7
ENDBRANCH   2   3
ENDBRANCH   1   2
BRANCH   1  17
HETATM   17  N   UNL     1     -41.900  57.979 -53.495  1.00  0.00    -0.061 N 
HETATM   18  H   UNL     1     -42.032  58.147 -54.501  1.00  0.00     0.280 HD
HETATM   19  C   UNL     1     -40.432  58.079 -53.139  1.00  0.00     0.236 C 
HETATM   20  C   UNL     1     -40.446  58.647 -51.739  1.00  0.00     0.029 C 
HETATM   21  C   UNL     1     -41.518  59.710 -51.825  1.00  0.00     0.029 C 
HETATM   22  C   UNL     1     -42.572  59.139 -52.762  1.00  0.00     0.236 C 
ENDBRANCH   1  17
BRANCH   1  23
HETATM   23  C   UNL     1     -41.687  55.410 -53.619  1.00  0.00    -0.015 A 
HETATM   24  C   UNL     1     -41.255  54.436 -52.660  1.00  0.00    -0.018 A 
HETATM   25  C   UNL     1     -40.444  53.360 -53.109  1.00  0.00    -0.025 A 
HETATM   26  C   UNL     1     -41.578  54.455 -51.277  1.00  0.00     0.013 A 
HETATM   27  C   UNL     1     -39.982  52.388 -52.207  1.00  0.00     0.012 A 
HETATM   28  C   UNL     1     -40.097  53.251 -54.462  1.00  0.00     0.012 A 
HETATM   29  C   UNL     1     -40.309  52.446 -50.856  1.00  0.00     0.001 A 
HETATM   30  C   UNL     1     -41.110  53.477 -50.392  1.00  0.00     0.001 A 
HETATM   31  C   UNL     1     -40.538  54.185 -55.391  1.00  0.00     0.002 A 
HETATM   32  C   UNL     1     -41.323  55.252 -54.975  1.00  0.00     0.010 A 
ENDBRANCH   1  23
TORSDOF 7
ENDMDL
MODEL 4
REMARK VINA RESULT:      -7.7      2.374      7.356
REMARK  7 active torsions:
REMARK  status: ('A' for Active; 'I' for Inactive)
REMARK    1  A    between atoms: O_2  and  C_3 
REMARK    2  A    between atoms: C_4  and  O_5 
REMARK    3  A    between atoms: C_7  and  C_8 
REMARK       I    between atoms: C_8  and  N_9 
REMARK    4  A    between atoms: N_9  and  C_10 
REMARK    5  A    between atoms: C_10  and  C_11 
REMARK    6  A    between atoms: C_11  and  N_12 
REMARK    7  A    between atoms: C_11  and  C_18 
ROOT
HETATM    1  C   UNL     1     -43.669  57.850 -55.504  1.00  0.00     0.239 C 
ENDROOT
BRANCH   1   2
HETATM    2  C   UNL     1     -44.184  56.914 -54.362  1.00  0.00     0.161 C 
BRANCH   2   3
HETATM    3  N   UNL     1     -43.170  56.045 -53.777  1.00  0.00    -0.354 N 
HETATM    4  C   UNL     1     -42.970  54.744 -54.170  1.00  0.00     0.254 C 
HETATM    5  O   UNL     1     -43.560  54.287 -55.143  1.00  0.00    -0.268 OA
HETATM    6  H   UNL     1     -42.644  56.378 -52.970  1.00  0.00     0.162 HD
BRANCH   4   7
HETATM    7  C   UNL     1     -41.985  53.913 -53.412  1.00  0.00     0.068 A 
HETATM    8  C   UNL     1     -41.832  53.936 -52.010  1.00  0.00     0.117 A 
HETATM    9  C   UNL     1     -40.791  53.189 -51.410  1.00  0.00     0.102 A 
HETATM   10  C   UNL     1     -39.988  52.362 -52.206  1.00  0.00     0.040 A 
HETATM   11  C   UNL     1     -40.175  52.303 -53.586  1.00  0.00     0.004 A 
HETATM   12  C   UNL     1     -41.156  53.086 -54.187  1.00  0.00     0.020 A 
BRANCH   8  13
HETATM   13  O   UNL     1     -42.665  54.771 -51.295  1.00  0.00    -0.352 OA
HETATM   14  C   UNL     1     -43.825  54.140 -50.744  1.00  0.00     0.210 C 
ENDBRANCH   8  13
BRANCH   9  15
HETATM   15  O   UNL     1     -40.606  53.345 -50.061  1.00  0.00    -0.353 OA
HETATM   16  C   UNL     1     -39.629  54.282 -49.623  1.00  0.00     0.210 C 
ENDBRANCH   9  15
ENDBRANCH   4   7
ENDBRANCH   2   3
ENDBRANCH   1   2
BRANCH   1  17
HETATM   17  N   UNL     1     -43.388  59.270 -54.979  1.00  0.00    -0.061 N 
HETATM   18  H   UNL     1     -43.998  59.892 -55.526  1.00  0.00     0.280 HD
HETATM   19  C   UNL     1     -41.948  59.724 -55.088  1.00  0.00     0.236 C 
HETATM   20  C   UNL     1     -41.363  59.375 -53.739  1.00  0.00     0.029 C 
HETATM   21  C   UNL     1     -42.461  59.792 -52.787  1.00  0.00     0.029 C 
HETATM   22  C   UNL     1     -43.761  59.467 -53.510  1.00  0.00     0.236 C 
ENDBRANCH   1  17
BRANCH   1  23
HETATM   23  C   UNL     1     -44.646  57.795 -56.681  1.00  0.00    -0.015 A 
HETATM   24  C   UNL     1     -44.297  57.172 -57.924  1.00  0.00    -0.018 A 
HETATM   25  C   UNL     1     -45.254  57.178 -58.974  1.00  0.00    -0.025 A 
HETATM   26  C   UNL     1     -43.056  56.539 -58.197  1.00  0.00     0.013 A 
HETATM   27  C   UNL     1     -44.955  56.594 -60.216  1.00  0.00     0.012 A 
HETATM   28  C   UNL     1     -46.512  57.760 -58.782  1.00  0.00     0.012 A 
HETATM   29  C   UNL     1     -43.722  55.992 -60.451  1.00  0.00     0.001 A 
HETATM   30  C   UNL     1     -42.775  55.961 -59.440  1.00  0.00     0.001 A 
HETATM   31  C   UNL     1     -46.855  58.342 -57.568  1.00  0.00     0.002 A 
HETATM   32  C   UNL     1     -45.933  58.359 -56.529  1.00  0.00     0.010 A 
ENDBRANCH   1  23
TORSDOF 7
ENDMDL
MODEL 5
REMARK VINA RESULT:      -7.6      1.752      3.206
REMARK  7 active torsions:
REMARK  status: ('A' for Active; 'I' for Inactive)
REMARK    1  A    between atoms: O_2  and  C_3 
REMARK    2  A    between atoms: C_4  and  O_5 
REMARK    3  A    between atoms: C_7  and  C_8 
REMARK       I    between atoms: C_8  and  N_9 
REMARK    4  A    between atoms: N_9  and  C_10 
REMARK    5  A    between atoms: C_10  and  C_11 
REMARK    6  A    between atoms: C_11  and  N_12 
REMARK    7  A    between atoms: C_11  and  C_18 
ROOT
HETATM    1  C   UNL     1     -41.859  55.824 -53.794  1.00  0.00     0.239 C 
ENDROOT
BRANCH   1   2
HETATM    2  C   UNL     1     -41.565  56.226 -55.277  1.00  0.00     0.161 C 
BRANCH   2   3
HETATM    3  N   UNL     1     -42.746  56.371 -56.119  1.00  0.00    -0.354 N 
HETATM    4  C   UNL     1     -43.110  57.554 -56.715  1.00  0.00     0.254 C 
HETATM    5  O   UNL     1     -42.368  58.530 -56.672  1.00  0.00    -0.268 OA
HETATM    6  H   UNL     1     -43.392  55.588 -56.197  1.00  0.00     0.162 HD
BRANCH   4   7
HETATM    7  C   UNL     1     -44.408  57.612 -57.454  1.00  0.00     0.068 A 
HETATM    8  C   UNL     1     -44.659  56.960 -58.680  1.00  0.00     0.117 A 
HETATM    9  C   UNL     1     -45.888  57.176 -59.346  1.00  0.00     0.102 A 
HETATM   10  C   UNL     1     -46.876  57.958 -58.733  1.00  0.00     0.040 A 
HETATM   11  C   UNL     1     -46.643  58.560 -57.498  1.00  0.00     0.004 A 
HETATM   12  C   UNL     1     -45.411  58.402 -56.871  1.00  0.00     0.020 A 
BRANCH   8  13
HETATM   13  O   UNL     1     -43.638  56.203 -59.216  1.00  0.00    -0.352 OA
HETATM   14  C   UNL     1     -42.708  56.931 -60.025  1.00  0.00     0.210 C 
ENDBRANCH   8  13
BRANCH   9  15
HETATM   15  O   UNL     1     -46.031  56.622 -60.591  1.00  0.00    -0.353 OA
HETATM   16  C   UNL     1     -47.350  56.426 -61.089  1.00  0.00     0.210 C 
ENDBRANCH   9  15
ENDBRANCH   4   7
ENDBRANCH   2   3
ENDBRANCH   1   2
BRANCH   1  17
HETATM   17  N   UNL     1     -41.487  56.960 -52.823  1.00  0.00    -0.061 N 
HETATM   18  H   UNL     1     -40.940  56.514 -52.075  1.00  0.00     0.280 HD
HETATM   19  C   UNL     1     -42.660  57.713 -52.233  1.00  0.00     0.236 C 
HETATM   20  C   UNL     1     -42.826  58.894 -53.161  1.00  0.00     0.029 C 
HETATM   21  C   UNL     1     -41.397  59.324 -53.404  1.00  0.00     0.029 C 
HETATM   22  C   UNL     1     -40.593  58.032 -53.444  1.00  0.00     0.236 C 
ENDBRANCH   1  17
BRANCH   1  23
HETATM   23  C   UNL     1     -41.181  54.486 -53.490  1.00  0.00    -0.015 A 
HETATM   24  C   UNL     1     -40.986  54.027 -52.145  1.00  0.00    -0.018 A 
HETATM   25  C   UNL     1     -40.333  52.782 -51.946  1.00  0.00    -0.025 A 
HETATM   26  C   UNL     1     -41.401  54.723 -50.979  1.00  0.00     0.013 A 
HETATM   27  C   UNL     1     -40.105  52.294 -50.648  1.00  0.00     0.012 A 
HETATM   28  C   UNL     1     -39.912  52.019 -53.042  1.00  0.00     0.012 A 
HETATM   29  C   UNL     1     -40.515  53.011 -49.528  1.00  0.00     0.001 A 
HETATM   30  C   UNL     1     -41.166  54.223 -49.694  1.00  0.00     0.001 A 
HETATM   31  C   UNL     1     -40.124  52.457 -54.343  1.00  0.00     0.002 A 
HETATM   32  C   UNL     1     -40.751  53.676 -54.565  1.00  0.00     0.010 A 
ENDBRANCH   1  23
TORSDOF 7
ENDMDL
MODEL 6
REMARK VINA RESULT:      -7.6      2.482      7.806
REMARK  7 active torsions:
REMARK  status: ('A' for Active; 'I' for Inactive)
REMARK    1  A    between atoms: O_2  and  C_3 
REMARK    2  A    between atoms: C_4  and  O_5 
REMARK    3  A    between atoms: C_7  and  C_8 
REMARK       I    between atoms: C_8  and  N_9 
REMARK    4  A    between atoms: N_9  and  C_10 
REMARK    5  A    between atoms: C_10  and  C_11 
REMARK    6  A    between atoms: C_11  and  N_12 
REMARK    7  A    between atoms: C_11  and  C_18 
ROOT
HETATM    1  C   UNL     1     -43.081  56.493 -56.222  1.00  0.00     0.239 C 
ENDROOT
BRANCH   1   2
HETATM    2  C   UNL     1     -42.630  54.997 -56.149  1.00  0.00     0.161 C 
BRANCH   2   3
HETATM    3  N   UNL     1     -42.318  54.515 -54.810  1.00  0.00    -0.354 N 
HETATM    4  C   UNL     1     -41.037  54.302 -54.362  1.00  0.00     0.254 C 
HETATM    5  O   UNL     1     -40.073  54.642 -55.040  1.00  0.00    -0.268 OA
HETATM    6  H   UNL     1     -43.083  54.226 -54.202  1.00  0.00     0.162 HD
BRANCH   4   7
HETATM    7  C   UNL     1     -40.845  53.688 -53.012  1.00  0.00     0.068 A 
HETATM    8  C   UNL     1     -41.361  54.220 -51.812  1.00  0.00     0.117 A 
HETATM    9  C   UNL     1     -41.022  53.615 -50.579  1.00  0.00     0.102 A 
HETATM   10  C   UNL     1     -40.258  52.441 -50.574  1.00  0.00     0.040 A 
HETATM   11  C   UNL     1     -39.791  51.890 -51.766  1.00  0.00     0.004 A 
HETATM   12  C   UNL     1     -40.069  52.519 -52.976  1.00  0.00     0.020 A 
BRANCH   8  13
HETATM   13  O   UNL     1     -42.109  55.375 -51.901  1.00  0.00    -0.352 OA
HETATM   14  C   UNL     1     -41.369  56.588 -51.734  1.00  0.00     0.210 C 
ENDBRANCH   8  13
BRANCH   9  15
HETATM   15  O   UNL     1     -41.445  54.243 -49.437  1.00  0.00    -0.353 OA
HETATM   16  C   UNL     1     -40.581  54.227 -48.305  1.00  0.00     0.210 C 
ENDBRANCH   9  15
ENDBRANCH   4   7
ENDBRANCH   2   3
ENDBRANCH   1   2
BRANCH   1  17
HETATM   17  N   UNL     1     -44.437  56.703 -55.522  1.00  0.00    -0.061 N 
HETATM   18  H   UNL     1     -44.924  55.799 -55.587  1.00  0.00     0.280 HD
HETATM   19  C   UNL     1     -45.299  57.802 -56.104  1.00  0.00     0.236 C 
HETATM   20  C   UNL     1     -44.955  59.007 -55.259  1.00  0.00     0.029 C 
HETATM   21  C   UNL     1     -44.902  58.426 -53.864  1.00  0.00     0.029 C 
HETATM   22  C   UNL     1     -44.316  57.032 -54.034  1.00  0.00     0.236 C 
ENDBRANCH   1  17
BRANCH   1  23
HETATM   23  C   UNL     1     -43.046  56.961 -57.679  1.00  0.00    -0.015 A 
HETATM   24  C   UNL     1     -42.554  58.258 -58.043  1.00  0.00    -0.018 A 
HETATM   25  C   UNL     1     -42.569  58.624 -59.416  1.00  0.00    -0.025 A 
HETATM   26  C   UNL     1     -42.043  59.221 -57.134  1.00  0.00     0.013 A 
HETATM   27  C   UNL     1     -42.113  59.888 -59.824  1.00  0.00     0.012 A 
HETATM   28  C   UNL     1     -43.035  57.725 -60.384  1.00  0.00     0.012 A 
HETATM   29  C   UNL     1     -41.630  60.811 -58.900  1.00  0.00     0.001 A 
HETATM   30  C   UNL     1     -41.591  60.475 -57.556  1.00  0.00     0.001 A 
HETATM   31  C   UNL     1     -43.488  56.462 -60.028  1.00  0.00     0.002 A 
HETATM   32  C   UNL     1     -43.494  56.083 -58.691  1.00  0.00     0.010 A 
ENDBRANCH   1  23
TORSDOF 7
ENDMDL
MODEL 7
REMARK VINA RESULT:      -7.4      2.480      4.647
REMARK  7 active torsions:
REMARK  status: ('A' for Active; 'I' for Inactive)
REMARK    1  A    between atoms: O_2  and  C_3 
REMARK    2  A    between atoms: C_4  and  O_5 
REMARK    3  A    between atoms: C_7  and  C_8 
REMARK       I    between atoms: C_8  and  N_9 
REMARK    4  A    between atoms: N_9  and  C_10 
REMARK    5  A    between atoms: C_10  and  C_11 
REMARK    6  A    between atoms: C_11  and  N_12 
REMARK    7  A    between atoms: C_11  and  C_18 
ROOT
HETATM    1  C   UNL     1     -41.073  55.709 -53.944  1.00  0.00     0.239 C 
ENDROOT
BRANCH   1   2
HETATM    2  C   UNL     1     -40.428  57.109 -53.678  1.00  0.00     0.161 C 
BRANCH   2   3
HETATM    3  N   UNL     1     -41.365  58.148 -53.266  1.00  0.00    -0.354 N 
HETATM    4  C   UNL     1     -41.015  59.207 -52.465  1.00  0.00     0.254 C 
HETATM    5  O   UNL     1     -39.842  59.402 -52.162  1.00  0.00    -0.268 OA
HETATM    6  H   UNL     1     -42.350  58.039 -53.498  1.00  0.00     0.162 HD
BRANCH   4   7
HETATM    7  C   UNL     1     -42.089  60.141 -52.007  1.00  0.00     0.068 A 
HETATM    8  C   UNL     1     -42.812  61.005 -52.856  1.00  0.00     0.117 A 
HETATM    9  C   UNL     1     -43.728  61.926 -52.297  1.00  0.00     0.102 A 
HETATM   10  C   UNL     1     -43.974  61.903 -50.919  1.00  0.00     0.040 A 
HETATM   11  C   UNL     1     -43.295  61.014 -50.089  1.00  0.00     0.004 A 
HETATM   12  C   UNL     1     -42.346  60.150 -50.627  1.00  0.00     0.020 A 
BRANCH   8  13
HETATM   13  O   UNL     1     -42.515  60.964 -54.203  1.00  0.00    -0.352 OA
HETATM   14  C   UNL     1     -43.477  60.280 -55.012  1.00  0.00     0.210 C 
ENDBRANCH   8  13
BRANCH   9  15
HETATM   15  O   UNL     1     -44.309  62.827 -53.151  1.00  0.00    -0.353 OA
HETATM   16  C   UNL     1     -45.727  62.811 -53.277  1.00  0.00     0.210 C 
ENDBRANCH   9  15
ENDBRANCH   4   7
ENDBRANCH   2   3
ENDBRANCH   1   2
BRANCH   1  17
HETATM   17  N   UNL     1     -42.517  55.848 -54.462  1.00  0.00    -0.061 N 
HETATM   18  H   UNL     1     -42.924  56.633 -53.937  1.00  0.00     0.280 HD
HETATM   19  C   UNL     1     -43.378  54.613 -54.306  1.00  0.00     0.236 C 
HETATM   20  C   UNL     1     -43.231  53.908 -55.634  1.00  0.00     0.029 C 
HETATM   21  C   UNL     1     -43.309  55.050 -56.623  1.00  0.00     0.029 C 
HETATM   22  C   UNL     1     -42.606  56.216 -55.943  1.00  0.00     0.236 C 
ENDBRANCH   1  17
BRANCH   1  23
HETATM   23  C   UNL     1     -40.934  54.842 -52.690  1.00  0.00    -0.015 A 
HETATM   24  C   UNL     1     -40.469  53.487 -52.757  1.00  0.00    -0.018 A 
HETATM   25  C   UNL     1     -40.384  52.743 -51.550  1.00  0.00    -0.025 A 
HETATM   26  C   UNL     1     -40.079  52.818 -53.947  1.00  0.00     0.013 A 
HETATM   27  C   UNL     1     -39.949  51.408 -51.563  1.00  0.00     0.012 A 
HETATM   28  C   UNL     1     -40.726  53.334 -50.328  1.00  0.00     0.012 A 
HETATM   29  C   UNL     1     -39.586  50.781 -52.751  1.00  0.00     0.001 A 
HETATM   30  C   UNL     1     -39.647  51.487 -53.942  1.00  0.00     0.001 A 
HETATM   31  C   UNL     1     -41.154  54.654 -50.266  1.00  0.00     0.002 A 
HETATM   32  C   UNL     1     -41.256  55.400 -51.433  1.00  0.00     0.010 A 
ENDBRANCH   1  23
TORSDOF 7
ENDMDL
MODEL 8
REMARK VINA RESULT:      -7.4      2.359      4.957
REMARK  7 active torsions:
REMARK  status: ('A' for Active; 'I' for Inactive)
REMARK    1  A    between atoms: O_2  and  C_3 
REMARK    2  A    between atoms: C_4  and  O_5 
REMARK    3  A    between atoms: C_7  and  C_8 
REMARK       I    between atoms: C_8  and  N_9 
REMARK    4  A    between atoms: N_9  and  C_10 
REMARK    5  A    between atoms: C_10  and  C_11 
REMARK    6  A    between atoms: C_11  and  N_12 
REMARK    7  A    between atoms: C_11  and  C_18 
ROOT
HETATM    1  C   UNL     1     -41.301  57.510 -53.803  1.00  0.00     0.239 C 
ENDROOT
BRANCH   1   2
HETATM    2  C   UNL     1     -40.766  58.737 -52.994  1.00  0.00     0.161 C 
BRANCH   2   3
HETATM    3  N   UNL     1     -41.787  59.692 -52.581  1.00  0.00    -0.354 N 
HETATM    4  C   UNL     1     -41.960  60.099 -51.280  1.00  0.00     0.254 C 
HETATM    5  O   UNL     1     -41.160  59.770 -50.410  1.00  0.00    -0.268 OA
HETATM    6  H   UNL     1     -42.473  60.005 -53.266  1.00  0.00     0.162 HD
BRANCH   4   7
HETATM    7  C   UNL     1     -43.119  60.986 -50.957  1.00  0.00     0.068 A 
HETATM    8  C   UNL     1     -44.462  60.694 -51.280  1.00  0.00     0.117 A 
HETATM    9  C   UNL     1     -45.464  61.659 -51.026  1.00  0.00     0.102 A 
HETATM   10  C   UNL     1     -45.126  62.850 -50.370  1.00  0.00     0.040 A 
HETATM   11  C   UNL     1     -43.806  63.113 -50.008  1.00  0.00     0.004 A 
HETATM   12  C   UNL     1     -42.807  62.194 -50.315  1.00  0.00     0.020 A 
BRANCH   8  13
HETATM   13  O   UNL     1     -44.715  59.499 -51.919  1.00  0.00    -0.352 OA
HETATM   14  C   UNL     1     -45.069  58.415 -51.053  1.00  0.00     0.210 C 
ENDBRANCH   8  13
BRANCH   9  15
HETATM   15  O   UNL     1     -46.730  61.379 -51.472  1.00  0.00    -0.353 OA
HETATM   16  C   UNL     1     -47.162  61.987 -52.684  1.00  0.00     0.210 C 
ENDBRANCH   9  15
ENDBRANCH   4   7
ENDBRANCH   2   3
ENDBRANCH   1   2
BRANCH   1  17
HETATM   17  N   UNL     1     -42.651  57.828 -54.474  1.00  0.00    -0.061 N 
HETATM   18  H   UNL     1     -43.109  58.514 -53.860  1.00  0.00     0.280 HD
HETATM   19  C   UNL     1     -43.557  56.636 -54.693  1.00  0.00     0.236 C 
HETATM   20  C   UNL     1     -43.237  56.202 -56.105  1.00  0.00     0.029 C 
HETATM   21  C   UNL     1     -43.142  57.520 -56.840  1.00  0.00     0.029 C 
HETATM   22  C   UNL     1     -42.514  58.487 -55.846  1.00  0.00     0.236 C 
ENDBRANCH   1  17
BRANCH   1  23
HETATM   23  C   UNL     1     -41.324  56.278 -52.895  1.00  0.00    -0.015 A 
HETATM   24  C   UNL     1     -40.890  54.992 -53.356  1.00  0.00    -0.018 A 
HETATM   25  C   UNL     1     -40.957  53.894 -52.457  1.00  0.00    -0.025 A 
HETATM   26  C   UNL     1     -40.388  54.720 -54.656  1.00  0.00     0.013 A 
HETATM   27  C   UNL     1     -40.558  52.611 -52.865  1.00  0.00     0.012 A 
HETATM   28  C   UNL     1     -41.418  54.078 -51.148  1.00  0.00     0.012 A 
HETATM   29  C   UNL     1     -40.083  52.380 -54.152  1.00  0.00     0.001 A 
HETATM   30  C   UNL     1     -39.994  53.435 -55.046  1.00  0.00     0.001 A 
HETATM   31  C   UNL     1     -41.815  55.331 -50.698  1.00  0.00     0.002 A 
HETATM   32  C   UNL     1     -41.769  56.419 -51.561  1.00  0.00     0.010 A 
ENDBRANCH   1  23
TORSDOF 7
ENDMDL
MODEL 9
REMARK VINA RESULT:      -7.3      1.567      3.391
REMARK  7 active torsions:
REMARK  status: ('A' for Active; 'I' for Inactive)
REMARK    1  A    between atoms: O_2  and  C_3 
REMARK    2  A    between atoms: C_4  and  O_5 
REMARK    3  A    between atoms: C_7  and  C_8 
REMARK       I    between atoms: C_8  and  N_9 
REMARK    4  A    between atoms: N_9  and  C_10 
REMARK    5  A    between atoms: C_10  and  C_11 
REMARK    6  A    between atoms: C_11  and  N_12 
REMARK    7  A    between atoms: C_11  and  C_18 
ROOT
HETATM    1  C   UNL     1     -42.897  56.109 -53.206  1.00  0.00     0.239 C 
ENDROOT
BRANCH   1   2
HETATM    2  C   UNL     1     -43.907  55.554 -54.263  1.00  0.00     0.161 C 
BRANCH   2   3
HETATM    3  N   UNL     1     -43.946  56.290 -55.521  1.00  0.00    -0.354 N 
HETATM    4  C   UNL     1     -43.205  55.944 -56.623  1.00  0.00     0.254 C 
HETATM    5  O   UNL     1     -42.562  54.898 -56.642  1.00  0.00    -0.268 OA
HETATM    6  H   UNL     1     -44.472  57.162 -55.563  1.00  0.00     0.162 HD
BRANCH   4   7
HETATM    7  C   UNL     1     -43.232  56.846 -57.815  1.00  0.00     0.068 A 
HETATM    8  C   UNL     1     -43.241  58.255 -57.750  1.00  0.00     0.117 A 
HETATM    9  C   UNL     1     -43.381  59.007 -58.939  1.00  0.00     0.102 A 
HETATM   10  C   UNL     1     -43.412  58.346 -60.174  1.00  0.00     0.040 A 
HETATM   11  C   UNL     1     -43.353  56.955 -60.238  1.00  0.00     0.004 A 
HETATM   12  C   UNL     1     -43.280  56.209 -59.065  1.00  0.00     0.020 A 
BRANCH   8  13
HETATM   13  O   UNL     1     -43.201  58.831 -56.498  1.00  0.00    -0.352 OA
HETATM   14  C   UNL     1     -42.061  59.660 -56.251  1.00  0.00     0.210 C 
ENDBRANCH   8  13
BRANCH   9  15
HETATM   15  O   UNL     1     -43.511  60.365 -58.810  1.00  0.00    -0.353 OA
HETATM   16  C   UNL     1     -42.649  61.197 -59.580  1.00  0.00     0.210 C 
ENDBRANCH   9  15
ENDBRANCH   4   7
ENDBRANCH   2   3
ENDBRANCH   1   2
BRANCH   1  17
HETATM   17  N   UNL     1     -42.264  57.431 -53.678  1.00  0.00    -0.061 N 
HETATM   18  H   UNL     1     -42.479  57.497 -54.682  1.00  0.00     0.280 HD
HETATM   19  C   UNL     1     -40.771  57.545 -53.456  1.00  0.00     0.236 C 
HETATM   20  C   UNL     1     -40.664  58.254 -52.126  1.00  0.00     0.029 C 
HETATM   21  C   UNL     1     -41.732  59.319 -52.234  1.00  0.00     0.029 C 
HETATM   22  C   UNL     1     -42.865  58.671 -53.016  1.00  0.00     0.236 C 
ENDBRANCH   1  17
BRANCH   1  23
HETATM   23  C   UNL     1     -41.885  55.016 -52.853  1.00  0.00    -0.015 A 
HETATM   24  C   UNL     1     -41.438  54.808 -51.506  1.00  0.00    -0.018 A 
HETATM   25  C   UNL     1     -40.484  53.784 -51.263  1.00  0.00    -0.025 A 
HETATM   26  C   UNL     1     -41.877  55.550 -50.378  1.00  0.00     0.013 A 
HETATM   27  C   UNL     1     -40.002  53.550 -49.964  1.00  0.00     0.012 A 
HETATM   28  C   UNL     1     -40.014  52.989 -52.315  1.00  0.00     0.012 A 
HETATM   29  C   UNL     1     -40.448  54.306 -48.884  1.00  0.00     0.001 A 
HETATM   30  C   UNL     1     -41.388  55.303 -49.091  1.00  0.00     0.001 A 
HETATM   31  C   UNL     1     -40.468  53.179 -53.614  1.00  0.00     0.002 A 
HETATM   32  C   UNL     1     -41.392  54.181 -53.880  1.00  0.00     0.010 A 
ENDBRANCH   1  23
TORSDOF 7
ENDMDL
MODEL 10
REMARK VINA RESULT:      -7.1      2.662      6.949
REMARK  7 active torsions:
REMARK  status: ('A' for Active; 'I' for Inactive)
REMARK    1  A    between atoms: O_2  and  C_3 
REMARK    2  A    between atoms: C_4  and  O_5 
REMARK    3  A    between atoms: C_7  and  C_8 
REMARK       I    between atoms: C_8  and  N_9 
REMARK    4  A    between atoms: N_9  and  C_10 
REMARK    5  A    between atoms: C_10  and  C_11 
REMARK    6  A    between atoms: C_11  and  N_12 
REMARK    7  A    between atoms: C_11  and  C_18 
ROOT
HETATM    1  C   UNL     1     -42.906  57.687 -53.635  1.00  0.00     0.239 C 
ENDROOT
BRANCH   1   2
HETATM    2  C   UNL     1     -43.631  56.554 -52.836  1.00  0.00     0.161 C 
BRANCH   2   3
HETATM    3  N   UNL     1     -42.896  55.298 -52.749  1.00  0.00    -0.354 N 
HETATM    4  C   UNL     1     -41.576  55.168 -53.104  1.00  0.00     0.254 C 
HETATM    5  O   UNL     1     -40.905  56.154 -53.391  1.00  0.00    -0.268 OA
HETATM    6  H   UNL     1     -43.404  54.449 -52.507  1.00  0.00     0.162 HD
BRANCH   4   7
HETATM    7  C   UNL     1     -40.963  53.804 -53.090  1.00  0.00     0.068 A 
HETATM    8  C   UNL     1     -40.737  53.042 -51.925  1.00  0.00     0.117 A 
HETATM    9  C   UNL     1     -40.048  51.811 -52.020  1.00  0.00     0.102 A 
HETATM   10  C   UNL     1     -39.685  51.319 -53.281  1.00  0.00     0.040 A 
HETATM   11  C   UNL     1     -39.955  52.052 -54.435  1.00  0.00     0.004 A 
HETATM   12  C   UNL     1     -40.575  53.294 -54.339  1.00  0.00     0.020 A 
BRANCH   8  13
HETATM   13  O   UNL     1     -41.128  53.592 -50.722  1.00  0.00    -0.352 OA
HETATM   14  C   UNL     1     -40.108  54.320 -50.031  1.00  0.00     0.210 C 
ENDBRANCH   8  13
BRANCH   9  15
HETATM   15  O   UNL     1     -39.743  51.172 -50.847  1.00  0.00    -0.353 OA
HETATM   16  C   UNL     1     -39.488  49.772 -50.893  1.00  0.00     0.210 C 
ENDBRANCH   9  15
ENDBRANCH   4   7
ENDBRANCH   2   3
ENDBRANCH   1   2
BRANCH   1  17
HETATM   17  N   UNL     1     -42.534  58.867 -52.718  1.00  0.00    -0.061 N 
HETATM   18  H   UNL     1     -43.340  59.506 -52.750  1.00  0.00     0.280 HD
HETATM   19  C   UNL     1     -41.269  59.605 -53.100  1.00  0.00     0.236 C 
HETATM   20  C   UNL     1     -40.203  58.939 -52.262  1.00  0.00     0.029 C 
HETATM   21  C   UNL     1     -40.889  58.780 -50.924  1.00  0.00     0.029 C 
HETATM   22  C   UNL     1     -42.343  58.472 -51.254  1.00  0.00     0.236 C 
ENDBRANCH   1  17
BRANCH   1  23
HETATM   23  C   UNL     1     -43.757  58.074 -54.847  1.00  0.00    -0.015 A 
HETATM   24  C   UNL     1     -43.686  57.348 -56.082  1.00  0.00    -0.018 A 
HETATM   25  C   UNL     1     -44.496  57.781 -57.166  1.00  0.00    -0.025 A 
HETATM   26  C   UNL     1     -42.863  56.215 -56.315  1.00  0.00     0.013 A 
HETATM   27  C   UNL     1     -44.452  57.114 -58.401  1.00  0.00     0.012 A 
HETATM   28  C   UNL     1     -45.355  58.876 -57.016  1.00  0.00     0.012 A 
HETATM   29  C   UNL     1     -43.623  56.013 -58.596  1.00  0.00     0.001 A 
HETATM   30  C   UNL     1     -42.832  55.562 -57.551  1.00  0.00     0.001 A 
HETATM   31  C   UNL     1     -45.437  59.561 -55.810  1.00  0.00     0.002 A 
HETATM   32  C   UNL     1     -44.648  59.165 -54.738  1.00  0.00     0.010 A 
ENDBRANCH   1  23
TORSDOF 7
ENDMDL
