MODEL 1
REMARK VINA RESULT:      -8.0      0.000      0.000
REMARK  3 active torsions:
REMARK  status: ('A' for Active; 'I' for Inactive)
REMARK    1  A    between atoms: C_9  and  N_10 
REMARK    2  A    between atoms: N_13  and  C_14 
REMARK    3  A    between atoms: C_14  and  C_15 
ROOT
HETATM    1  C   UNL     1     -40.163  52.329 -52.700  1.00  0.00    -0.006 A 
HETATM    2  C   UNL     1     -40.051  51.751 -51.414  1.00  0.00     0.052 A 
HETATM    3  C   UNL     1     -40.235  52.532 -50.219  1.00  0.00     0.100 C 
HETATM    4  N   UNL     1     -40.366  53.157 -49.250  1.00  0.00    -0.191 NA
HETATM    5  C   UNL     1     -39.754  50.384 -51.284  1.00  0.00     0.026 A 
HETATM    6  C   UNL     1     -39.564  49.592 -52.416  1.00  0.00     0.044 A 
HETATM    7  C   UNL     1     -39.663  50.166 -53.676  1.00  0.00     0.117 A 
HETATM    8  F   UNL     1     -39.484  49.407 -54.764  1.00  0.00    -0.206 F 
HETATM    9  C   UNL     1     -39.956  51.517 -53.828  1.00  0.00     0.052 A 
ENDROOT
BRANCH   1  10
HETATM   10  C   UNL     1     -40.523  53.792 -52.892  1.00  0.00     0.312 C 
BRANCH  10  11
HETATM   11  N   UNL     1     -41.736  53.947 -53.705  1.00  0.00     0.096 N 
HETATM   12  C   UNL     1     -42.790  54.685 -52.984  1.00  0.00     0.303 C 
HETATM   13  C   UNL     1     -42.650  56.224 -53.045  1.00  0.00     0.303 C 
HETATM   14  N   UNL     1     -42.588  56.780 -54.425  1.00  0.00     0.096 N 
HETATM   15  C   UNL     1     -41.413  56.094 -55.051  1.00  0.00     0.303 C 
HETATM   16  C   UNL     1     -41.475  54.544 -55.027  1.00  0.00     0.303 C 
BRANCH  14  17
HETATM   17  C   UNL     1     -43.837  56.604 -55.222  1.00  0.00     0.227 C 
HETATM   18  C   UNL     1     -45.069  57.405 -54.712  1.00  0.00     0.069 C 
HETATM   19  C   UNL     1     -45.150  58.853 -55.209  1.00  0.00     0.190 C 
HETATM   20  N   UNL     1     -45.208  58.854 -56.721  1.00  0.00    -0.066 N 
HETATM   21  C   UNL     1     -43.872  59.661 -54.972  1.00  0.00     0.035 C 
HETATM   22  C   UNL     1     -46.350  58.166 -57.397  1.00  0.00     0.270 C 
HETATM   23  H   UNL     1     -45.300  59.840 -57.009  1.00  0.00     0.280 HD
HETATM   24  C   UNL     1     -43.800  58.434 -57.075  1.00  0.00     0.190 C 
HETATM   25  C   UNL     1     -42.985  59.385 -56.194  1.00  0.00     0.035 C 
HETATM   26  C   UNL     1     -43.610  56.953 -56.722  1.00  0.00     0.069 C 
ENDBRANCH  14  17
ENDBRANCH  10  11
ENDBRANCH   1  10
TORSDOF 3
ENDMDL
MODEL 2
REMARK VINA RESULT:      -7.9      1.111      1.740
REMARK  3 active torsions:
REMARK  status: ('A' for Active; 'I' for Inactive)
REMARK    1  A    between atoms: C_9  and  N_10 
REMARK    2  A    between atoms: N_13  and  C_14 
REMARK    3  A    between atoms: C_14  and  C_15 
ROOT
HETATM    1  C   UNL     1     -40.581  52.531 -53.004  1.00  0.00    -0.006 A 
HETATM    2  C   UNL     1     -40.078  52.061 -51.769  1.00  0.00     0.052 A 
HETATM    3  C   UNL     1     -40.151  52.859 -50.573  1.00  0.00     0.100 C 
HETATM    4  N   UNL     1     -40.193  53.502 -49.608  1.00  0.00    -0.191 NA
HETATM    5  C   UNL     1     -39.490  50.788 -51.690  1.00  0.00     0.026 A 
HETATM    6  C   UNL     1     -39.394  49.984 -52.826  1.00  0.00     0.044 A 
HETATM    7  C   UNL     1     -39.878  50.454 -54.039  1.00  0.00     0.117 A 
HETATM    8  F   UNL     1     -39.790  49.683 -55.130  1.00  0.00    -0.206 F 
HETATM    9  C   UNL     1     -40.464  51.711 -54.140  1.00  0.00     0.052 A 
ENDROOT
BRANCH   1  10
HETATM   10  C   UNL     1     -41.261  53.883 -53.129  1.00  0.00     0.312 C 
BRANCH  10  11
HETATM   11  N   UNL     1     -41.154  54.417 -54.493  1.00  0.00     0.096 N 
HETATM   12  C   UNL     1     -42.440  54.350 -55.212  1.00  0.00     0.303 C 
HETATM   13  C   UNL     1     -43.401  55.524 -54.914  1.00  0.00     0.303 C 
HETATM   14  N   UNL     1     -42.821  56.872 -55.172  1.00  0.00     0.096 N 
HETATM   15  C   UNL     1     -41.602  56.925 -54.306  1.00  0.00     0.303 C 
HETATM   16  C   UNL     1     -40.585  55.776 -54.540  1.00  0.00     0.303 C 
BRANCH  14  17
HETATM   17  C   UNL     1     -42.511  57.151 -56.605  1.00  0.00     0.227 C 
HETATM   18  C   UNL     1     -43.615  56.733 -57.617  1.00  0.00     0.069 C 
HETATM   19  C   UNL     1     -44.727  57.768 -57.827  1.00  0.00     0.190 C 
HETATM   20  N   UNL     1     -44.114  59.054 -58.335  1.00  0.00    -0.066 N 
HETATM   21  C   UNL     1     -45.373  58.253 -56.526  1.00  0.00     0.035 C 
HETATM   22  C   UNL     1     -43.377  59.034 -59.636  1.00  0.00     0.270 C 
HETATM   23  H   UNL     1     -44.897  59.705 -58.497  1.00  0.00     0.280 HD
HETATM   24  C   UNL     1     -43.392  59.550 -57.103  1.00  0.00     0.190 C 
HETATM   25  C   UNL     1     -44.497  59.421 -56.050  1.00  0.00     0.035 C 
HETATM   26  C   UNL     1     -42.176  58.654 -56.834  1.00  0.00     0.069 C 
ENDBRANCH  14  17
ENDBRANCH  10  11
ENDBRANCH   1  10
TORSDOF 3
ENDMDL
MODEL 3
REMARK VINA RESULT:      -7.6      1.889      3.016
REMARK  3 active torsions:
REMARK  status: ('A' for Active; 'I' for Inactive)
REMARK    1  A    between atoms: C_9  and  N_10 
REMARK    2  A    between atoms: N_13  and  C_14 
REMARK    3  A    between atoms: C_14  and  C_15 
ROOT
HETATM    1  C   UNL     1     -41.332  53.452 -53.135  1.00  0.00    -0.006 A 
HETATM    2  C   UNL     1     -40.833  53.569 -51.817  1.00  0.00     0.052 A 
HETATM    3  C   UNL     1     -41.296  54.600 -50.926  1.00  0.00     0.100 C 
HETATM    4  N   UNL     1     -41.653  55.438 -50.206  1.00  0.00    -0.191 NA
HETATM    5  C   UNL     1     -39.862  52.667 -51.351  1.00  0.00     0.026 A 
HETATM    6  C   UNL     1     -39.382  51.656 -52.184  1.00  0.00     0.044 A 
HETATM    7  C   UNL     1     -39.866  51.551 -53.481  1.00  0.00     0.117 A 
HETATM    8  F   UNL     1     -39.409  50.580 -54.281  1.00  0.00    -0.206 F 
HETATM    9  C   UNL     1     -40.826  52.434 -53.963  1.00  0.00     0.052 A 
ENDROOT
BRANCH   1  10
HETATM   10  C   UNL     1     -42.410  54.378 -53.669  1.00  0.00     0.312 C 
BRANCH  10  11
HETATM   11  N   UNL     1     -41.833  55.522 -54.386  1.00  0.00     0.096 N 
HETATM   12  C   UNL     1     -41.615  55.223 -55.813  1.00  0.00     0.303 C 
HETATM   13  C   UNL     1     -42.867  55.401 -56.703  1.00  0.00     0.303 C 
HETATM   14  N   UNL     1     -43.487  56.753 -56.626  1.00  0.00     0.096 N 
HETATM   15  C   UNL     1     -43.811  56.932 -55.175  1.00  0.00     0.303 C 
HETATM   16  C   UNL     1     -42.606  56.765 -54.212  1.00  0.00     0.303 C 
BRANCH  14  17
HETATM   17  C   UNL     1     -42.636  57.858 -57.156  1.00  0.00     0.227 C 
HETATM   18  C   UNL     1     -42.108  57.653 -58.604  1.00  0.00     0.069 C 
HETATM   19  C   UNL     1     -43.075  58.085 -59.713  1.00  0.00     0.190 C 
HETATM   20  N   UNL     1     -43.385  59.557 -59.552  1.00  0.00    -0.066 N 
HETATM   21  C   UNL     1     -44.476  57.482 -59.582  1.00  0.00     0.035 C 
HETATM   22  C   UNL     1     -42.263  60.541 -59.635  1.00  0.00     0.270 C 
HETATM   23  H   UNL     1     -44.004  59.812 -60.336  1.00  0.00     0.280 HD
HETATM   24  C   UNL     1     -44.247  59.548 -58.311  1.00  0.00     0.190 C 
HETATM   25  C   UNL     1     -45.244  58.440 -58.661  1.00  0.00     0.035 C 
HETATM   26  C   UNL     1     -43.374  59.227 -57.090  1.00  0.00     0.069 C 
ENDBRANCH  14  17
ENDBRANCH  10  11
ENDBRANCH   1  10
TORSDOF 3
ENDMDL
MODEL 4
REMARK VINA RESULT:      -7.4      2.361      3.538
REMARK  3 active torsions:
REMARK  status: ('A' for Active; 'I' for Inactive)
REMARK    1  A    between atoms: C_9  and  N_10 
REMARK    2  A    between atoms: N_13  and  C_14 
REMARK    3  A    between atoms: C_14  and  C_15 
ROOT
HETATM    1  C   UNL     1     -41.608  53.645 -52.477  1.00  0.00    -0.006 A 
HETATM    2  C   UNL     1     -40.935  53.284 -51.287  1.00  0.00     0.052 A 
HETATM    3  C   UNL     1     -41.256  53.897 -50.025  1.00  0.00     0.100 C 
HETATM    4  N   UNL     1     -41.498  54.398 -49.006  1.00  0.00    -0.191 NA
HETATM    5  C   UNL     1     -39.928  52.305 -51.319  1.00  0.00     0.026 A 
HETATM    6  C   UNL     1     -39.582  51.688 -52.522  1.00  0.00     0.044 A 
HETATM    7  C   UNL     1     -40.237  52.054 -53.691  1.00  0.00     0.117 A 
HETATM    8  F   UNL     1     -39.909  51.462 -54.845  1.00  0.00    -0.206 F 
HETATM    9  C   UNL     1     -41.236  53.022 -53.681  1.00  0.00     0.052 A 
ENDROOT
BRANCH   1  10
HETATM   10  C   UNL     1     -42.730  54.667 -52.484  1.00  0.00     0.312 C 
BRANCH  10  11
HETATM   11  N   UNL     1     -42.273  55.968 -52.991  1.00  0.00     0.096 N 
HETATM   12  C   UNL     1     -43.175  56.501 -54.028  1.00  0.00     0.303 C 
HETATM   13  C   UNL     1     -44.415  57.243 -53.477  1.00  0.00     0.303 C 
HETATM   14  N   UNL     1     -44.097  58.365 -52.550  1.00  0.00     0.096 N 
HETATM   15  C   UNL     1     -43.303  57.727 -51.453  1.00  0.00     0.303 C 
HETATM   16  C   UNL     1     -42.041  56.957 -51.923  1.00  0.00     0.303 C 
BRANCH  14  17
HETATM   17  C   UNL     1     -43.374  59.507 -53.182  1.00  0.00     0.227 C 
HETATM   18  C   UNL     1     -44.138  60.223 -54.332  1.00  0.00     0.069 C 
HETATM   19  C   UNL     1     -45.121  61.309 -53.878  1.00  0.00     0.190 C 
HETATM   20  N   UNL     1     -44.363  62.372 -53.112  1.00  0.00    -0.066 N 
HETATM   21  C   UNL     1     -46.112  60.839 -52.810  1.00  0.00     0.035 C 
HETATM   22  C   UNL     1     -43.277  63.124 -53.810  1.00  0.00     0.270 C 
HETATM   23  H   UNL     1     -45.052  63.096 -52.860  1.00  0.00     0.280 HD
HETATM   24  C   UNL     1     -44.027  61.638 -51.834  1.00  0.00     0.190 C 
HETATM   25  C   UNL     1     -45.394  61.052 -51.469  1.00  0.00     0.035 C 
HETATM   26  C   UNL     1     -42.960  60.574 -52.126  1.00  0.00     0.069 C 
ENDBRANCH  14  17
ENDBRANCH  10  11
ENDBRANCH   1  10
TORSDOF 3
ENDMDL
MODEL 5
REMARK VINA RESULT:      -7.4      2.600      4.008
REMARK  3 active torsions:
REMARK  status: ('A' for Active; 'I' for Inactive)
REMARK    1  A    between atoms: C_9  and  N_10 
REMARK    2  A    between atoms: N_13  and  C_14 
REMARK    3  A    between atoms: C_14  and  C_15 
ROOT
HETATM    1  C   UNL     1     -41.642  54.172 -52.130  1.00  0.00    -0.006 A 
HETATM    2  C   UNL     1     -40.620  53.195 -52.124  1.00  0.00     0.052 A 
HETATM    3  C   UNL     1     -40.332  52.400 -53.288  1.00  0.00     0.100 C 
HETATM    4  N   UNL     1     -40.104  51.743 -54.218  1.00  0.00    -0.191 NA
HETATM    5  C   UNL     1     -39.860  52.983 -50.962  1.00  0.00     0.026 A 
HETATM    6  C   UNL     1     -40.109  53.728 -49.809  1.00  0.00     0.044 A 
HETATM    7  C   UNL     1     -41.121  54.679 -49.816  1.00  0.00     0.117 A 
HETATM    8  F   UNL     1     -41.359  55.397 -48.712  1.00  0.00    -0.206 F 
HETATM    9  C   UNL     1     -41.886  54.905 -50.955  1.00  0.00     0.052 A 
ENDROOT
BRANCH   1  10
HETATM   10  C   UNL     1     -42.462  54.466 -53.373  1.00  0.00     0.312 C 
BRANCH  10  11
HETATM   11  N   UNL     1     -41.837  55.507 -54.200  1.00  0.00     0.096 N 
HETATM   12  C   UNL     1     -41.621  55.053 -55.585  1.00  0.00     0.303 C 
HETATM   13  C   UNL     1     -42.860  55.182 -56.502  1.00  0.00     0.303 C 
HETATM   14  N   UNL     1     -43.429  56.557 -56.573  1.00  0.00     0.096 N 
HETATM   15  C   UNL     1     -43.756  56.898 -55.152  1.00  0.00     0.303 C 
HETATM   16  C   UNL     1     -42.564  56.788 -54.164  1.00  0.00     0.303 C 
BRANCH  14  17
HETATM   17  C   UNL     1     -42.533  57.568 -57.206  1.00  0.00     0.227 C 
HETATM   18  C   UNL     1     -42.126  57.267 -58.677  1.00  0.00     0.069 C 
HETATM   19  C   UNL     1     -43.132  57.736 -59.735  1.00  0.00     0.190 C 
HETATM   20  N   UNL     1     -43.313  59.233 -59.617  1.00  0.00    -0.066 N 
HETATM   21  C   UNL     1     -44.563  57.254 -59.484  1.00  0.00     0.035 C 
HETATM   22  C   UNL     1     -42.125  60.118 -59.817  1.00  0.00     0.270 C 
HETATM   23  H   UNL     1     -43.964  59.509 -60.367  1.00  0.00     0.280 HD
HETATM   24  C   UNL     1     -44.083  59.340 -58.320  1.00  0.00     0.190 C 
HETATM   25  C   UNL     1     -45.187  58.305 -58.554  1.00  0.00     0.035 C 
HETATM   26  C   UNL     1     -43.153  58.995 -57.149  1.00  0.00     0.069 C 
ENDBRANCH  14  17
ENDBRANCH  10  11
ENDBRANCH   1  10
TORSDOF 3
ENDMDL
MODEL 6
REMARK VINA RESULT:      -7.2      2.795      7.811
REMARK  3 active torsions:
REMARK  status: ('A' for Active; 'I' for Inactive)
REMARK    1  A    between atoms: C_9  and  N_10 
REMARK    2  A    between atoms: N_13  and  C_14 
REMARK    3  A    between atoms: C_14  and  C_15 
ROOT
HETATM    1  C   UNL     1     -42.874  56.961 -57.578  1.00  0.00    -0.006 A 
HETATM    2  C   UNL     1     -42.399  58.028 -58.375  1.00  0.00     0.052 A 
HETATM    3  C   UNL     1     -41.899  59.242 -57.788  1.00  0.00     0.100 C 
HETATM    4  N   UNL     1     -41.508  60.231 -57.322  1.00  0.00    -0.191 NA
HETATM    5  C   UNL     1     -42.410  57.915 -59.776  1.00  0.00     0.026 A 
HETATM    6  C   UNL     1     -42.891  56.757 -60.387  1.00  0.00     0.044 A 
HETATM    7  C   UNL     1     -43.367  55.717 -59.601  1.00  0.00     0.117 A 
HETATM    8  F   UNL     1     -43.826  54.603 -60.185  1.00  0.00    -0.206 F 
HETATM    9  C   UNL     1     -43.366  55.807 -58.213  1.00  0.00     0.052 A 
ENDROOT
BRANCH   1  10
HETATM   10  C   UNL     1     -42.844  57.020 -56.061  1.00  0.00     0.312 C 
BRANCH  10  11
HETATM   11  N   UNL     1     -42.615  55.693 -55.474  1.00  0.00     0.096 N 
HETATM   12  C   UNL     1     -41.233  55.540 -54.984  1.00  0.00     0.303 C 
HETATM   13  C   UNL     1     -40.987  56.118 -53.571  1.00  0.00     0.303 C 
HETATM   14  N   UNL     1     -41.890  55.574 -52.519  1.00  0.00     0.096 N 
HETATM   15  C   UNL     1     -43.268  55.890 -53.012  1.00  0.00     0.303 C 
HETATM   16  C   UNL     1     -43.595  55.346 -54.428  1.00  0.00     0.303 C 
BRANCH  14  17
HETATM   17  C   UNL     1     -41.709  54.120 -52.237  1.00  0.00     0.227 C 
HETATM   18  C   UNL     1     -40.235  53.655 -52.066  1.00  0.00     0.069 C 
HETATM   19  C   UNL     1     -39.658  53.834 -50.657  1.00  0.00     0.190 C 
HETATM   20  N   UNL     1     -40.495  53.042 -49.677  1.00  0.00    -0.066 N 
HETATM   21  C   UNL     1     -39.824  55.249 -50.096  1.00  0.00     0.035 C 
HETATM   22  C   UNL     1     -40.596  51.561 -49.851  1.00  0.00     0.270 C 
HETATM   23  H   UNL     1     -40.052  53.159 -48.753  1.00  0.00     0.280 HD
HETATM   24  C   UNL     1     -41.770  53.853 -49.646  1.00  0.00     0.190 C 
HETATM   25  C   UNL     1     -41.210  55.263 -49.435  1.00  0.00     0.035 C 
HETATM   26  C   UNL     1     -42.513  53.680 -50.978  1.00  0.00     0.069 C 
ENDBRANCH  14  17
ENDBRANCH  10  11
ENDBRANCH   1  10
TORSDOF 3
ENDMDL
MODEL 7
REMARK VINA RESULT:      -7.2      2.995      4.698
REMARK  3 active torsions:
REMARK  status: ('A' for Active; 'I' for Inactive)
REMARK    1  A    between atoms: C_9  and  N_10 
REMARK    2  A    between atoms: N_13  and  C_14 
REMARK    3  A    between atoms: C_14  and  C_15 
ROOT
HETATM    1  C   UNL     1     -41.960  53.787 -52.828  1.00  0.00    -0.006 A 
HETATM    2  C   UNL     1     -41.619  53.578 -54.184  1.00  0.00     0.052 A 
HETATM    3  C   UNL     1     -42.387  54.161 -55.252  1.00  0.00     0.100 C 
HETATM    4  N   UNL     1     -43.010  54.616 -56.119  1.00  0.00    -0.191 NA
HETATM    5  C   UNL     1     -40.507  52.784 -54.513  1.00  0.00     0.026 A 
HETATM    6  C   UNL     1     -39.738  52.195 -53.509  1.00  0.00     0.044 A 
HETATM    7  C   UNL     1     -40.083  52.394 -52.179  1.00  0.00     0.117 A 
HETATM    8  F   UNL     1     -39.345  51.832 -51.214  1.00  0.00    -0.206 F 
HETATM    9  C   UNL     1     -41.180  53.175 -51.831  1.00  0.00     0.052 A 
ENDROOT
BRANCH   1  10
HETATM   10  C   UNL     1     -43.126  54.670 -52.422  1.00  0.00     0.312 C 
BRANCH  10  11
HETATM   11  N   UNL     1     -42.672  55.873 -51.712  1.00  0.00     0.096 N 
HETATM   12  C   UNL     1     -42.024  56.836 -52.621  1.00  0.00     0.303 C 
HETATM   13  C   UNL     1     -43.005  57.755 -53.384  1.00  0.00     0.303 C 
HETATM   14  N   UNL     1     -43.928  58.529 -52.508  1.00  0.00     0.096 N 
HETATM   15  C   UNL     1     -44.653  57.485 -51.716  1.00  0.00     0.303 C 
HETATM   16  C   UNL     1     -43.737  56.516 -50.922  1.00  0.00     0.303 C 
BRANCH  14  17
HETATM   17  C   UNL     1     -43.257  59.536 -51.635  1.00  0.00     0.227 C 
HETATM   18  C   UNL     1     -42.431  60.620 -52.386  1.00  0.00     0.069 C 
HETATM   19  C   UNL     1     -43.241  61.826 -52.877  1.00  0.00     0.190 C 
HETATM   20  N   UNL     1     -43.893  62.500 -51.690  1.00  0.00    -0.066 N 
HETATM   21  C   UNL     1     -44.472  61.448 -53.704  1.00  0.00     0.035 C 
HETATM   22  C   UNL     1     -43.021  63.055 -50.611  1.00  0.00     0.270 C 
HETATM   23  H   UNL     1     -44.393  63.322 -52.060  1.00  0.00     0.280 HD
HETATM   24  C   UNL     1     -44.952  61.489 -51.315  1.00  0.00     0.190 C 
HETATM   25  C   UNL     1     -45.594  61.225 -52.680  1.00  0.00     0.035 C 
HETATM   26  C   UNL     1     -44.278  60.253 -50.703  1.00  0.00     0.069 C 
ENDBRANCH  14  17
ENDBRANCH  10  11
ENDBRANCH   1  10
TORSDOF 3
ENDMDL
MODEL 8
REMARK VINA RESULT:      -7.0      3.036      7.730
REMARK  3 active torsions:
REMARK  status: ('A' for Active; 'I' for Inactive)
REMARK    1  A    between atoms: C_9  and  N_10 
REMARK    2  A    between atoms: N_13  and  C_14 
REMARK    3  A    between atoms: C_14  and  C_15 
ROOT
HETATM    1  C   UNL     1     -42.936  57.995 -57.735  1.00  0.00    -0.006 A 
HETATM    2  C   UNL     1     -42.106  58.768 -58.580  1.00  0.00     0.052 A 
HETATM    3  C   UNL     1     -41.542  60.017 -58.143  1.00  0.00     0.100 C 
HETATM    4  N   UNL     1     -41.095  61.033 -57.803  1.00  0.00    -0.191 NA
HETATM    5  C   UNL     1     -41.816  58.319 -59.879  1.00  0.00     0.026 A 
HETATM    6  C   UNL     1     -42.347  57.116 -60.346  1.00  0.00     0.044 A 
HETATM    7  C   UNL     1     -43.170  56.366 -59.518  1.00  0.00     0.117 A 
HETATM    8  F   UNL     1     -43.678  55.210 -59.961  1.00  0.00    -0.206 F 
HETATM    9  C   UNL     1     -43.471  56.792 -58.228  1.00  0.00     0.052 A 
ENDROOT
BRANCH   1  10
HETATM   10  C   UNL     1     -43.244  58.418 -56.310  1.00  0.00     0.312 C 
BRANCH  10  11
HETATM   11  N   UNL     1     -42.157  58.053 -55.392  1.00  0.00     0.096 N 
HETATM   12  C   UNL     1     -42.362  58.618 -54.046  1.00  0.00     0.303 C 
HETATM   13  C   UNL     1     -43.299  57.787 -53.139  1.00  0.00     0.303 C 
HETATM   14  N   UNL     1     -42.882  56.368 -52.962  1.00  0.00     0.096 N 
HETATM   15  C   UNL     1     -42.832  55.819 -54.354  1.00  0.00     0.303 C 
HETATM   16  C   UNL     1     -41.914  56.600 -55.331  1.00  0.00     0.303 C 
BRANCH  14  17
HETATM   17  C   UNL     1     -41.592  56.186 -52.235  1.00  0.00     0.227 C 
HETATM   18  C   UNL     1     -41.641  56.486 -50.709  1.00  0.00     0.069 C 
HETATM   19  C   UNL     1     -42.111  55.317 -49.835  1.00  0.00     0.190 C 
HETATM   20  N   UNL     1     -41.175  54.145 -50.032  1.00  0.00    -0.066 N 
HETATM   21  C   UNL     1     -43.438  54.702 -50.286  1.00  0.00     0.035 C 
HETATM   22  C   UNL     1     -39.731  54.312 -49.683  1.00  0.00     0.270 C 
HETATM   23  H   UNL     1     -41.504  53.399 -49.401  1.00  0.00     0.280 HD
HETATM   24  C   UNL     1     -41.533  53.708 -51.434  1.00  0.00     0.190 C 
HETATM   25  C   UNL     1     -43.060  53.648 -51.336  1.00  0.00     0.035 C 
HETATM   26  C   UNL     1     -41.021  54.752 -52.436  1.00  0.00     0.069 C 
ENDBRANCH  14  17
ENDBRANCH  10  11
ENDBRANCH   1  10
TORSDOF 3
ENDMDL
MODEL 9
REMARK VINA RESULT:      -7.0      1.723      2.412
REMARK  3 active torsions:
REMARK  status: ('A' for Active; 'I' for Inactive)
REMARK    1  A    between atoms: C_9  and  N_10 
REMARK    2  A    between atoms: N_13  and  C_14 
REMARK    3  A    between atoms: C_14  and  C_15 
ROOT
HETATM    1  C   UNL     1     -40.603  54.215 -53.821  1.00  0.00    -0.006 A 
HETATM    2  C   UNL     1     -40.681  54.068 -52.417  1.00  0.00     0.052 A 
HETATM    3  C   UNL     1     -40.992  55.181 -51.560  1.00  0.00     0.100 C 
HETATM    4  N   UNL     1     -41.227  56.077 -50.861  1.00  0.00    -0.191 NA
HETATM    5  C   UNL     1     -40.454  52.812 -51.830  1.00  0.00     0.026 A 
HETATM    6  C   UNL     1     -40.145  51.707 -52.623  1.00  0.00     0.044 A 
HETATM    7  C   UNL     1     -40.057  51.858 -54.001  1.00  0.00     0.117 A 
HETATM    8  F   UNL     1     -39.763  50.799 -54.764  1.00  0.00    -0.206 F 
HETATM    9  C   UNL     1     -40.278  53.092 -54.603  1.00  0.00     0.052 A 
ENDROOT
BRANCH   1  10
HETATM   10  C   UNL     1     -40.881  55.541 -54.505  1.00  0.00     0.312 C 
BRANCH  10  11
HETATM   11  N   UNL     1     -42.311  55.711 -54.793  1.00  0.00     0.096 N 
HETATM   12  C   UNL     1     -42.839  56.968 -54.233  1.00  0.00     0.303 C 
HETATM   13  C   UNL     1     -42.596  58.214 -55.116  1.00  0.00     0.303 C 
HETATM   14  N   UNL     1     -43.124  58.094 -56.504  1.00  0.00     0.096 N 
HETATM   15  C   UNL     1     -42.441  56.883 -57.058  1.00  0.00     0.303 C 
HETATM   16  C   UNL     1     -42.632  55.587 -56.226  1.00  0.00     0.303 C 
BRANCH  14  17
HETATM   17  C   UNL     1     -44.610  57.998 -56.597  1.00  0.00     0.227 C 
HETATM   18  C   UNL     1     -45.392  59.211 -56.017  1.00  0.00     0.069 C 
HETATM   19  C   UNL     1     -45.571  60.388 -56.983  1.00  0.00     0.190 C 
HETATM   20  N   UNL     1     -46.323  59.913 -58.207  1.00  0.00    -0.066 N 
HETATM   21  C   UNL     1     -44.264  60.870 -57.619  1.00  0.00     0.035 C 
HETATM   22  C   UNL     1     -47.701  59.363 -58.034  1.00  0.00     0.270 C 
HETATM   23  H   UNL     1     -46.453  60.740 -58.808  1.00  0.00     0.280 HD
HETATM   24  C   UNL     1     -45.281  59.052 -58.883  1.00  0.00     0.190 C 
HETATM   25  C   UNL     1     -44.072  59.992 -58.864  1.00  0.00     0.035 C 
HETATM   26  C   UNL     1     -45.076  57.770 -58.065  1.00  0.00     0.069 C 
ENDBRANCH  14  17
ENDBRANCH  10  11
ENDBRANCH   1  10
TORSDOF 3
ENDMDL
MODEL 10
REMARK VINA RESULT:      -7.0      3.685      5.029
REMARK  3 active torsions:
REMARK  status: ('A' for Active; 'I' for Inactive)
REMARK    1  A    between atoms: C_9  and  N_10 
REMARK    2  A    between atoms: N_13  and  C_14 
REMARK    3  A    between atoms: C_14  and  C_15 
ROOT
HETATM    1  C   UNL     1     -41.004  54.700 -51.697  1.00  0.00    -0.006 A 
HETATM    2  C   UNL     1     -40.521  53.685 -52.555  1.00  0.00     0.052 A 
HETATM    3  C   UNL     1     -40.472  53.865 -53.982  1.00  0.00     0.100 C 
HETATM    4  N   UNL     1     -40.443  53.996 -55.135  1.00  0.00    -0.191 NA
HETATM    5  C   UNL     1     -40.075  52.466 -52.017  1.00  0.00     0.026 A 
HETATM    6  C   UNL     1     -40.111  52.248 -50.639  1.00  0.00     0.044 A 
HETATM    7  C   UNL     1     -40.596  53.243 -49.802  1.00  0.00     0.117 A 
HETATM    8  F   UNL     1     -40.628  53.037 -48.480  1.00  0.00    -0.206 F 
HETATM    9  C   UNL     1     -41.043  54.457 -50.313  1.00  0.00     0.052 A 
ENDROOT
BRANCH   1  10
HETATM   10  C   UNL     1     -41.457  56.048 -52.228  1.00  0.00     0.312 C 
BRANCH  10  11
HETATM   11  N   UNL     1     -42.174  56.819 -51.204  1.00  0.00     0.096 N 
HETATM   12  C   UNL     1     -41.650  58.192 -51.083  1.00  0.00     0.303 C 
HETATM   13  C   UNL     1     -42.222  59.189 -52.117  1.00  0.00     0.303 C 
HETATM   14  N   UNL     1     -43.709  59.283 -52.121  1.00  0.00     0.096 N 
HETATM   15  C   UNL     1     -44.169  57.884 -52.390  1.00  0.00     0.303 C 
HETATM   16  C   UNL     1     -43.635  56.819 -51.396  1.00  0.00     0.303 C 
BRANCH  14  17
HETATM   17  C   UNL     1     -44.299  59.843 -50.871  1.00  0.00     0.227 C 
HETATM   18  C   UNL     1     -43.861  61.294 -50.521  1.00  0.00     0.069 C 
HETATM   19  C   UNL     1     -44.675  62.398 -51.206  1.00  0.00     0.190 C 
HETATM   20  N   UNL     1     -46.128  62.260 -50.809  1.00  0.00    -0.066 N 
HETATM   21  C   UNL     1     -44.777  62.240 -52.725  1.00  0.00     0.035 C 
HETATM   22  C   UNL     1     -46.492  62.374 -49.364  1.00  0.00     0.270 C 
HETATM   23  H   UNL     1     -46.629  63.040 -51.259  1.00  0.00     0.280 HD
HETATM   24  C   UNL     1     -46.525  61.008 -51.557  1.00  0.00     0.190 C 
HETATM   25  C   UNL     1     -45.989  61.326 -52.956  1.00  0.00     0.035 C 
HETATM   26  C   UNL     1     -45.855  59.793 -50.903  1.00  0.00     0.069 C 
ENDBRANCH  14  17
ENDBRANCH  10  11
ENDBRANCH   1  10
TORSDOF 3
ENDMDL
