MODEL 1
REMARK VINA RESULT:      -9.5      0.000      0.000
REMARK  4 active torsions:
REMARK  status: ('A' for Active; 'I' for Inactive)
REMARK    1  A    between atoms: C_9  and  C_10 
REMARK    2  A    between atoms: C_20  and  C_21 
REMARK       I    between atoms: C_21  and  N_22 
REMARK    3  A    between atoms: N_22  and  C_23 
REMARK    4  A    between atoms: C_24  and  O_25 
ROOT
HETATM    1  C   UNL     1     -45.132  59.429 -53.058  1.00  0.00     0.070 C 
HETATM    2  C   UNL     1     -43.782  58.917 -52.622  1.00  0.00     0.037 C 
HETATM    3  N   UNL     1     -43.252  59.504 -51.476  1.00  0.00    -0.192 N 
HETATM    4  C   UNL     1     -41.944  59.412 -51.157  1.00  0.00     0.725 A 
HETATM    5  N   UNL     1     -41.150  58.520 -51.830  1.00  0.00    -0.084 N 
HETATM    6  N   UNL     1     -39.858  58.636 -51.458  1.00  0.00    -0.149 NA
HETATM    7  C   UNL     1     -39.958  59.582 -50.517  1.00  0.00     0.275 A 
HETATM    8  N   UNL     1     -41.218  60.081 -50.299  1.00  0.00    -0.054 NA
HETATM    9  C   UNL     1     -41.646  57.600 -52.864  1.00  0.00     0.203 C 
HETATM   10  C   UNL     1     -43.045  58.005 -53.308  1.00  0.00     0.062 C 
HETATM   11  H   UNL     1     -43.781  60.268 -51.060  1.00  0.00     0.184 HD
ENDROOT
BRANCH  10  12
HETATM   12  C   UNL     1     -43.458  57.485 -54.633  1.00  0.00     0.256 C 
HETATM   13  N   UNL     1     -42.758  58.030 -55.680  1.00  0.00    -0.321 N 
HETATM   14  H   UNL     1     -42.176  58.845 -55.509  1.00  0.00     0.169 HD
HETATM   15  O   UNL     1     -44.359  56.657 -54.686  1.00  0.00    -0.267 OA
BRANCH  13  16
HETATM   16  C   UNL     1     -42.706  57.561 -57.013  1.00  0.00     0.068 A 
HETATM   17  C   UNL     1     -42.128  58.413 -57.977  1.00  0.00     0.095 A 
HETATM   18  C   UNL     1     -41.975  57.970 -59.295  1.00  0.00     0.039 A 
HETATM   19  C   UNL     1     -42.406  56.694 -59.661  1.00  0.00     0.003 A 
HETATM   20  C   UNL     1     -42.993  55.858 -58.714  1.00  0.00     0.002 A 
HETATM   21  C   UNL     1     -43.144  56.289 -57.395  1.00  0.00     0.032 A 
BRANCH  17  22
HETATM   22  O   UNL     1     -41.718  59.645 -57.518  1.00  0.00    -0.354 OA
HETATM   23  C   UNL     1     -41.718  60.696 -58.478  1.00  0.00     0.210 C 
ENDBRANCH  17  22
ENDBRANCH  13  16
ENDBRANCH  10  12
BRANCH   9  24
HETATM   24  C   UNL     1     -41.601  56.159 -52.329  1.00  0.00    -0.017 A 
HETATM   25  C   UNL     1     -41.106  55.063 -53.101  1.00  0.00    -0.017 A 
HETATM   26  C   UNL     1     -41.039  53.780 -52.491  1.00  0.00    -0.025 A 
HETATM   27  C   UNL     1     -40.664  55.155 -54.444  1.00  0.00     0.013 A 
HETATM   28  C   UNL     1     -40.531  52.680 -53.200  1.00  0.00     0.012 A 
HETATM   29  C   UNL     1     -41.472  53.598 -51.172  1.00  0.00     0.012 A 
HETATM   30  C   UNL     1     -40.093  52.811 -54.514  1.00  0.00     0.001 A 
HETATM   31  C   UNL     1     -40.164  54.047 -55.137  1.00  0.00     0.001 A 
HETATM   32  C   UNL     1     -41.978  54.660 -50.433  1.00  0.00     0.002 A 
HETATM   33  C   UNL     1     -42.042  55.924 -51.004  1.00  0.00     0.010 A 
ENDBRANCH   9  24
TORSDOF 4
ENDMDL
MODEL 2
REMARK VINA RESULT:      -8.9      1.521      1.851
REMARK  4 active torsions:
REMARK  status: ('A' for Active; 'I' for Inactive)
REMARK    1  A    between atoms: C_9  and  C_10 
REMARK    2  A    between atoms: C_20  and  C_21 
REMARK       I    between atoms: C_21  and  N_22 
REMARK    3  A    between atoms: N_22  and  C_23 
REMARK    4  A    between atoms: C_24  and  O_25 
ROOT
HETATM    1  C   UNL     1     -44.199  60.693 -54.467  1.00  0.00     0.070 C 
HETATM    2  C   UNL     1     -43.274  59.856 -53.620  1.00  0.00     0.037 C 
HETATM    3  N   UNL     1     -43.140  60.258 -52.292  1.00  0.00    -0.192 N 
HETATM    4  C   UNL     1     -42.118  59.843 -51.514  1.00  0.00     0.725 A 
HETATM    5  N   UNL     1     -41.323  58.813 -51.941  1.00  0.00    -0.084 N 
HETATM    6  N   UNL     1     -40.295  58.603 -51.093  1.00  0.00    -0.149 NA
HETATM    7  C   UNL     1     -40.567  59.509 -50.148  1.00  0.00     0.275 A 
HETATM    8  N   UNL     1     -41.677  60.287 -50.365  1.00  0.00    -0.054 NA
HETATM    9  C   UNL     1     -41.540  58.076 -53.195  1.00  0.00     0.203 C 
HETATM   10  C   UNL     1     -42.528  58.820 -54.083  1.00  0.00     0.062 C 
HETATM   11  H   UNL     1     -43.622  61.110 -52.015  1.00  0.00     0.184 HD
ENDROOT
BRANCH  10  12
HETATM   12  C   UNL     1     -42.472  58.463 -55.520  1.00  0.00     0.256 C 
HETATM   13  N   UNL     1     -43.277  57.405 -55.857  1.00  0.00    -0.321 N 
HETATM   14  H   UNL     1     -43.686  56.845 -55.114  1.00  0.00     0.169 HD
HETATM   15  O   UNL     1     -41.733  59.104 -56.257  1.00  0.00    -0.267 OA
BRANCH  13  16
HETATM   16  C   UNL     1     -43.664  57.001 -57.156  1.00  0.00     0.068 A 
HETATM   17  C   UNL     1     -44.793  57.631 -57.720  1.00  0.00     0.095 A 
HETATM   18  C   UNL     1     -45.174  57.332 -59.033  1.00  0.00     0.039 A 
HETATM   19  C   UNL     1     -44.450  56.401 -59.778  1.00  0.00     0.003 A 
HETATM   20  C   UNL     1     -43.346  55.764 -59.216  1.00  0.00     0.002 A 
HETATM   21  C   UNL     1     -42.954  56.062 -57.909  1.00  0.00     0.032 A 
BRANCH  17  22
HETATM   22  O   UNL     1     -45.432  58.547 -56.915  1.00  0.00    -0.354 OA
HETATM   23  C   UNL     1     -46.296  59.463 -57.581  1.00  0.00     0.210 C 
ENDBRANCH  17  22
ENDBRANCH  13  16
ENDBRANCH  10  12
BRANCH   9  24
HETATM   24  C   UNL     1     -42.010  56.648 -52.873  1.00  0.00    -0.017 A 
HETATM   25  C   UNL     1     -41.455  55.492 -53.504  1.00  0.00    -0.017 A 
HETATM   26  C   UNL     1     -41.907  54.210 -53.086  1.00  0.00    -0.025 A 
HETATM   27  C   UNL     1     -40.471  55.520 -54.523  1.00  0.00     0.013 A 
HETATM   28  C   UNL     1     -41.369  53.044 -53.654  1.00  0.00     0.012 A 
HETATM   29  C   UNL     1     -42.890  54.092 -52.096  1.00  0.00     0.012 A 
HETATM   30  C   UNL     1     -40.394  53.111 -54.644  1.00  0.00     0.001 A 
HETATM   31  C   UNL     1     -39.949  54.349 -55.082  1.00  0.00     0.001 A 
HETATM   32  C   UNL     1     -43.447  55.218 -51.504  1.00  0.00     0.002 A 
HETATM   33  C   UNL     1     -43.013  56.481 -51.888  1.00  0.00     0.010 A 
ENDBRANCH   9  24
TORSDOF 4
ENDMDL
MODEL 3
REMARK VINA RESULT:      -8.7      2.350      4.924
REMARK  4 active torsions:
REMARK  status: ('A' for Active; 'I' for Inactive)
REMARK    1  A    between atoms: C_9  and  C_10 
REMARK    2  A    between atoms: C_20  and  C_21 
REMARK       I    between atoms: C_21  and  N_22 
REMARK    3  A    between atoms: N_22  and  C_23 
REMARK    4  A    between atoms: C_24  and  O_25 
ROOT
HETATM    1  C   UNL     1     -40.529  53.320 -54.632  1.00  0.00     0.070 C 
HETATM    2  C   UNL     1     -40.911  53.989 -53.336  1.00  0.00     0.037 C 
HETATM    3  N   UNL     1     -40.143  53.645 -52.226  1.00  0.00    -0.192 N 
HETATM    4  C   UNL     1     -40.556  53.879 -50.962  1.00  0.00     0.725 A 
HETATM    5  N   UNL     1     -41.637  54.693 -50.749  1.00  0.00    -0.084 N 
HETATM    6  N   UNL     1     -41.973  54.730 -49.443  1.00  0.00    -0.149 NA
HETATM    7  C   UNL     1     -41.014  53.956 -48.921  1.00  0.00     0.275 A 
HETATM    8  N   UNL     1     -40.124  53.418 -49.816  1.00  0.00    -0.054 NA
HETATM    9  C   UNL     1     -42.366  55.386 -51.822  1.00  0.00     0.203 C 
HETATM   10  C   UNL     1     -41.977  54.817 -53.180  1.00  0.00     0.062 C 
HETATM   11  H   UNL     1     -39.431  52.931 -52.360  1.00  0.00     0.184 HD
ENDROOT
BRANCH  10  12
HETATM   12  C   UNL     1     -42.950  55.072 -54.268  1.00  0.00     0.256 C 
HETATM   13  N   UNL     1     -42.546  56.039 -55.153  1.00  0.00    -0.321 N 
HETATM   14  H   UNL     1     -41.748  56.620 -54.913  1.00  0.00     0.169 HD
HETATM   15  O   UNL     1     -43.997  54.436 -54.282  1.00  0.00    -0.267 OA
BRANCH  13  16
HETATM   16  C   UNL     1     -43.092  56.317 -56.428  1.00  0.00     0.068 A 
HETATM   17  C   UNL     1     -43.764  57.546 -56.590  1.00  0.00     0.095 A 
HETATM   18  C   UNL     1     -44.253  57.912 -57.849  1.00  0.00     0.039 A 
HETATM   19  C   UNL     1     -44.091  57.057 -58.939  1.00  0.00     0.003 A 
HETATM   20  C   UNL     1     -43.443  55.834 -58.777  1.00  0.00     0.002 A 
HETATM   21  C   UNL     1     -42.946  55.464 -57.526  1.00  0.00     0.032 A 
BRANCH  17  22
HETATM   22  O   UNL     1     -43.860  58.330 -55.462  1.00  0.00    -0.354 OA
HETATM   23  C   UNL     1     -45.137  58.359 -54.833  1.00  0.00     0.210 C 
ENDBRANCH  17  22
ENDBRANCH  13  16
ENDBRANCH  10  12
BRANCH   9  24
HETATM   24  C   UNL     1     -42.098  56.897 -51.727  1.00  0.00    -0.017 A 
HETATM   25  C   UNL     1     -43.124  57.847 -51.433  1.00  0.00    -0.017 A 
HETATM   26  C   UNL     1     -42.762  59.215 -51.296  1.00  0.00    -0.025 A 
HETATM   27  C   UNL     1     -44.494  57.529 -51.258  1.00  0.00     0.013 A 
HETATM   28  C   UNL     1     -43.730  60.181 -50.976  1.00  0.00     0.012 A 
HETATM   29  C   UNL     1     -41.432  59.618 -51.471  1.00  0.00     0.012 A 
HETATM   30  C   UNL     1     -45.064  59.828 -50.799  1.00  0.00     0.001 A 
HETATM   31  C   UNL     1     -45.447  58.504 -50.944  1.00  0.00     0.001 A 
HETATM   32  C   UNL     1     -40.441  58.697 -51.783  1.00  0.00     0.002 A 
HETATM   33  C   UNL     1     -40.770  57.353 -51.911  1.00  0.00     0.010 A 
ENDBRANCH   9  24
TORSDOF 4
ENDMDL
MODEL 4
REMARK VINA RESULT:      -8.7      2.627      6.400
REMARK  4 active torsions:
REMARK  status: ('A' for Active; 'I' for Inactive)
REMARK    1  A    between atoms: C_9  and  C_10 
REMARK    2  A    between atoms: C_20  and  C_21 
REMARK       I    between atoms: C_21  and  N_22 
REMARK    3  A    between atoms: N_22  and  C_23 
REMARK    4  A    between atoms: C_24  and  O_25 
ROOT
HETATM    1  C   UNL     1     -43.227  54.306 -56.146  1.00  0.00     0.070 C 
HETATM    2  C   UNL     1     -43.109  55.787 -55.889  1.00  0.00     0.037 C 
HETATM    3  N   UNL     1     -43.974  56.600 -56.618  1.00  0.00    -0.192 N 
HETATM    4  C   UNL     1     -43.767  57.927 -56.762  1.00  0.00     0.725 A 
HETATM    5  N   UNL     1     -42.832  58.549 -55.979  1.00  0.00    -0.084 N 
HETATM    6  N   UNL     1     -42.684  59.844 -56.328  1.00  0.00    -0.149 NA
HETATM    7  C   UNL     1     -43.604  59.945 -57.293  1.00  0.00     0.275 A 
HETATM    8  N   UNL     1     -44.293  58.795 -57.588  1.00  0.00    -0.054 NA
HETATM    9  C   UNL     1     -42.053  57.869 -54.933  1.00  0.00     0.203 C 
HETATM   10  C   UNL     1     -42.182  56.357 -55.076  1.00  0.00     0.062 C 
HETATM   11  H   UNL     1     -44.570  56.143 -57.305  1.00  0.00     0.184 HD
ENDROOT
BRANCH  10  12
HETATM   12  C   UNL     1     -41.108  55.573 -54.423  1.00  0.00     0.256 C 
HETATM   13  N   UNL     1     -41.569  54.672 -53.497  1.00  0.00    -0.321 N 
HETATM   14  H   UNL     1     -42.537  54.732 -53.195  1.00  0.00     0.169 HD
HETATM   15  O   UNL     1     -39.945  55.791 -54.739  1.00  0.00    -0.267 OA
BRANCH  13  16
HETATM   16  C   UNL     1     -40.855  53.598 -52.916  1.00  0.00     0.068 A 
HETATM   17  C   UNL     1     -40.647  53.639 -51.521  1.00  0.00     0.095 A 
HETATM   18  C   UNL     1     -40.020  52.566 -50.879  1.00  0.00     0.039 A 
HETATM   19  C   UNL     1     -39.586  51.464 -51.617  1.00  0.00     0.003 A 
HETATM   20  C   UNL     1     -39.773  51.431 -52.997  1.00  0.00     0.002 A 
HETATM   21  C   UNL     1     -40.405  52.494 -53.645  1.00  0.00     0.032 A 
BRANCH  17  22
HETATM   22  O   UNL     1     -41.125  54.758 -50.877  1.00  0.00    -0.354 OA
HETATM   23  C   UNL     1     -41.519  54.574 -49.521  1.00  0.00     0.210 C 
ENDBRANCH  17  22
ENDBRANCH  13  16
ENDBRANCH  10  12
BRANCH   9  24
HETATM   24  C   UNL     1     -42.512  58.362 -53.552  1.00  0.00    -0.017 A 
HETATM   25  C   UNL     1     -41.596  58.775 -52.535  1.00  0.00    -0.017 A 
HETATM   26  C   UNL     1     -42.121  59.284 -51.316  1.00  0.00    -0.025 A 
HETATM   27  C   UNL     1     -40.185  58.722 -52.649  1.00  0.00     0.013 A 
HETATM   28  C   UNL     1     -41.261  59.730 -50.300  1.00  0.00     0.012 A 
HETATM   29  C   UNL     1     -43.505  59.354 -51.114  1.00  0.00     0.012 A 
HETATM   30  C   UNL     1     -39.879  59.675 -50.453  1.00  0.00     0.001 A 
HETATM   31  C   UNL     1     -39.341  59.167 -51.626  1.00  0.00     0.001 A 
HETATM   32  C   UNL     1     -44.393  58.927 -52.093  1.00  0.00     0.002 A 
HETATM   33  C   UNL     1     -43.903  58.437 -53.297  1.00  0.00     0.010 A 
ENDBRANCH   9  24
TORSDOF 4
ENDMDL
MODEL 5
REMARK VINA RESULT:      -8.3      2.636      6.177
REMARK  4 active torsions:
REMARK  status: ('A' for Active; 'I' for Inactive)
REMARK    1  A    between atoms: C_9  and  C_10 
REMARK    2  A    between atoms: C_20  and  C_21 
REMARK       I    between atoms: C_21  and  N_22 
REMARK    3  A    between atoms: N_22  and  C_23 
REMARK    4  A    between atoms: C_24  and  O_25 
ROOT
HETATM    1  C   UNL     1     -43.901  55.372 -58.910  1.00  0.00     0.070 C 
HETATM    2  C   UNL     1     -43.381  56.583 -58.177  1.00  0.00     0.037 C 
HETATM    3  N   UNL     1     -43.436  57.786 -58.877  1.00  0.00    -0.192 N 
HETATM    4  C   UNL     1     -42.716  58.867 -58.511  1.00  0.00     0.725 A 
HETATM    5  N   UNL     1     -42.101  58.881 -57.287  1.00  0.00    -0.084 N 
HETATM    6  N   UNL     1     -41.343  59.986 -57.132  1.00  0.00    -0.149 NA
HETATM    7  C   UNL     1     -41.594  60.620 -58.283  1.00  0.00     0.275 A 
HETATM    8  N   UNL     1     -42.432  59.970 -59.155  1.00  0.00    -0.054 NA
HETATM    9  C   UNL     1     -42.215  57.797 -56.300  1.00  0.00     0.203 C 
HETATM   10  C   UNL     1     -42.808  56.552 -56.946  1.00  0.00     0.062 C 
HETATM   11  H   UNL     1     -43.762  57.746 -59.841  1.00  0.00     0.184 HD
ENDROOT
BRANCH  10  12
HETATM   12  C   UNL     1     -42.538  55.284 -56.227  1.00  0.00     0.256 C 
HETATM   13  N   UNL     1     -41.317  55.254 -55.604  1.00  0.00    -0.321 N 
HETATM   14  H   UNL     1     -40.637  55.977 -55.822  1.00  0.00     0.169 HD
HETATM   15  O   UNL     1     -43.385  54.399 -56.257  1.00  0.00    -0.267 OA
BRANCH  13  16
HETATM   16  C   UNL     1     -40.877  54.334 -54.624  1.00  0.00     0.068 A 
HETATM   17  C   UNL     1     -41.301  54.551 -53.296  1.00  0.00     0.095 A 
HETATM   18  C   UNL     1     -40.966  53.629 -52.298  1.00  0.00     0.039 A 
HETATM   19  C   UNL     1     -40.200  52.505 -52.611  1.00  0.00     0.003 A 
HETATM   20  C   UNL     1     -39.766  52.299 -53.918  1.00  0.00     0.002 A 
HETATM   21  C   UNL     1     -40.102  53.210 -54.921  1.00  0.00     0.032 A 
BRANCH  17  22
HETATM   22  O   UNL     1     -42.065  55.677 -53.088  1.00  0.00    -0.354 OA
HETATM   23  C   UNL     1     -43.311  55.470 -52.430  1.00  0.00     0.210 C 
ENDBRANCH  17  22
ENDBRANCH  13  16
ENDBRANCH  10  12
BRANCH   9  24
HETATM   24  C   UNL     1     -43.049  58.282 -55.103  1.00  0.00    -0.017 A 
HETATM   25  C   UNL     1     -42.459  58.721 -53.877  1.00  0.00    -0.017 A 
HETATM   26  C   UNL     1     -43.312  59.219 -52.855  1.00  0.00    -0.025 A 
HETATM   27  C   UNL     1     -41.070  58.704 -53.597  1.00  0.00     0.013 A 
HETATM   28  C   UNL     1     -42.776  59.690 -51.645  1.00  0.00     0.012 A 
HETATM   29  C   UNL     1     -44.700  59.254 -53.043  1.00  0.00     0.012 A 
HETATM   30  C   UNL     1     -41.405  59.670 -51.411  1.00  0.00     0.001 A 
HETATM   31  C   UNL     1     -40.553  59.173 -52.385  1.00  0.00     0.001 A 
HETATM   32  C   UNL     1     -45.272  58.802 -54.224  1.00  0.00     0.002 A 
HETATM   33  C   UNL     1     -44.457  58.322 -55.242  1.00  0.00     0.010 A 
ENDBRANCH   9  24
TORSDOF 4
ENDMDL
MODEL 6
REMARK VINA RESULT:      -8.3      1.948      6.151
REMARK  4 active torsions:
REMARK  status: ('A' for Active; 'I' for Inactive)
REMARK    1  A    between atoms: C_9  and  C_10 
REMARK    2  A    between atoms: C_20  and  C_21 
REMARK       I    between atoms: C_21  and  N_22 
REMARK    3  A    between atoms: N_22  and  C_23 
REMARK    4  A    between atoms: C_24  and  O_25 
ROOT
HETATM    1  C   UNL     1     -40.287  58.472 -51.561  1.00  0.00     0.070 C 
HETATM    2  C   UNL     1     -41.426  58.596 -52.542  1.00  0.00     0.037 C 
HETATM    3  N   UNL     1     -42.344  59.612 -52.279  1.00  0.00    -0.192 N 
HETATM    4  C   UNL     1     -43.571  59.638 -52.841  1.00  0.00     0.725 A 
HETATM    5  N   UNL     1     -43.850  58.793 -53.883  1.00  0.00    -0.084 N 
HETATM    6  N   UNL     1     -45.146  58.879 -54.250  1.00  0.00    -0.149 NA
HETATM    7  C   UNL     1     -45.573  59.837 -53.419  1.00  0.00     0.275 A 
HETATM    8  N   UNL     1     -44.640  60.331 -52.543  1.00  0.00    -0.054 NA
HETATM    9  C   UNL     1     -42.869  57.874 -54.479  1.00  0.00     0.203 C 
HETATM   10  C   UNL     1     -41.644  57.751 -53.582  1.00  0.00     0.062 C 
HETATM   11  H   UNL     1     -42.211  60.146 -51.423  1.00  0.00     0.184 HD
ENDROOT
BRANCH  10  12
HETATM   12  C   UNL     1     -40.824  56.537 -53.804  1.00  0.00     0.256 C 
HETATM   13  N   UNL     1     -41.110  55.513 -52.938  1.00  0.00    -0.321 N 
HETATM   14  H   UNL     1     -41.691  55.705 -52.127  1.00  0.00     0.169 HD
HETATM   15  O   UNL     1     -39.984  56.550 -54.696  1.00  0.00    -0.267 OA
BRANCH  13  16
HETATM   16  C   UNL     1     -40.723  54.158 -53.054  1.00  0.00     0.068 A 
HETATM   17  C   UNL     1     -40.303  53.502 -51.879  1.00  0.00     0.095 A 
HETATM   18  C   UNL     1     -39.986  52.139 -51.917  1.00  0.00     0.039 A 
HETATM   19  C   UNL     1     -40.069  51.434 -53.117  1.00  0.00     0.003 A 
HETATM   20  C   UNL     1     -40.466  52.084 -54.283  1.00  0.00     0.002 A 
HETATM   21  C   UNL     1     -40.791  53.442 -54.253  1.00  0.00     0.032 A 
BRANCH  17  22
HETATM   22  O   UNL     1     -40.268  54.276 -50.741  1.00  0.00    -0.354 OA
HETATM   23  C   UNL     1     -40.302  53.567 -49.506  1.00  0.00     0.210 C 
ENDBRANCH  17  22
ENDBRANCH  13  16
ENDBRANCH  10  12
BRANCH   9  24
HETATM   24  C   UNL     1     -42.507  58.361 -55.892  1.00  0.00    -0.017 A 
HETATM   25  C   UNL     1     -42.612  57.526 -57.047  1.00  0.00    -0.017 A 
HETATM   26  C   UNL     1     -42.322  58.090 -58.320  1.00  0.00    -0.025 A 
HETATM   27  C   UNL     1     -42.995  56.162 -57.027  1.00  0.00     0.013 A 
HETATM   28  C   UNL     1     -42.442  57.318 -59.487  1.00  0.00     0.012 A 
HETATM   29  C   UNL     1     -41.920  59.428 -58.428  1.00  0.00     0.012 A 
HETATM   30  C   UNL     1     -42.833  55.984 -59.428  1.00  0.00     0.001 A 
HETATM   31  C   UNL     1     -43.105  55.405 -58.198  1.00  0.00     0.001 A 
HETATM   32  C   UNL     1     -41.792  60.229 -57.301  1.00  0.00     0.002 A 
HETATM   33  C   UNL     1     -42.081  59.702 -56.048  1.00  0.00     0.010 A 
ENDBRANCH   9  24
TORSDOF 4
ENDMDL
MODEL 7
REMARK VINA RESULT:      -7.9      2.084      5.890
REMARK  4 active torsions:
REMARK  status: ('A' for Active; 'I' for Inactive)
REMARK    1  A    between atoms: C_9  and  C_10 
REMARK    2  A    between atoms: C_20  and  C_21 
REMARK       I    between atoms: C_21  and  N_22 
REMARK    3  A    between atoms: N_22  and  C_23 
REMARK    4  A    between atoms: C_24  and  O_25 
ROOT
HETATM    1  C   UNL     1     -40.220  59.399 -50.246  1.00  0.00     0.070 C 
HETATM    2  C   UNL     1     -41.550  59.509 -50.948  1.00  0.00     0.037 C 
HETATM    3  N   UNL     1     -42.504  60.305 -50.318  1.00  0.00    -0.192 N 
HETATM    4  C   UNL     1     -43.817  60.233 -50.621  1.00  0.00     0.725 A 
HETATM    5  N   UNL     1     -44.211  59.549 -51.741  1.00  0.00    -0.084 N 
HETATM    6  N   UNL     1     -45.556  59.490 -51.831  1.00  0.00    -0.149 NA
HETATM    7  C   UNL     1     -45.906  60.210 -50.759  1.00  0.00     0.275 A 
HETATM    8  N   UNL     1     -44.872  60.687 -49.993  1.00  0.00    -0.054 NA
HETATM    9  C   UNL     1     -43.279  58.914 -52.684  1.00  0.00     0.203 C 
HETATM   10  C   UNL     1     -41.884  58.833 -52.077  1.00  0.00     0.062 C 
HETATM   11  H   UNL     1     -42.254  60.697 -49.413  1.00  0.00     0.184 HD
ENDROOT
BRANCH  10  12
HETATM   12  C   UNL     1     -40.992  57.821 -52.691  1.00  0.00     0.256 C 
HETATM   13  N   UNL     1     -41.430  56.531 -52.530  1.00  0.00    -0.321 N 
HETATM   14  H   UNL     1     -42.185  56.348 -51.876  1.00  0.00     0.169 HD
HETATM   15  O   UNL     1     -39.973  58.200 -53.256  1.00  0.00    -0.267 OA
BRANCH  13  16
HETATM   16  C   UNL     1     -40.978  55.380 -53.216  1.00  0.00     0.068 A 
HETATM   17  C   UNL     1     -40.777  54.210 -52.456  1.00  0.00     0.095 A 
HETATM   18  C   UNL     1     -40.410  53.019 -53.093  1.00  0.00     0.039 A 
HETATM   19  C   UNL     1     -40.226  52.992 -54.475  1.00  0.00     0.003 A 
HETATM   20  C   UNL     1     -40.406  54.152 -55.226  1.00  0.00     0.002 A 
HETATM   21  C   UNL     1     -40.779  55.342 -54.600  1.00  0.00     0.032 A 
BRANCH  17  22
HETATM   22  O   UNL     1     -40.999  54.330 -51.102  1.00  0.00    -0.354 OA
HETATM   23  C   UNL     1     -40.491  53.274 -50.293  1.00  0.00     0.210 C 
ENDBRANCH  17  22
ENDBRANCH  13  16
ENDBRANCH  10  12
BRANCH   9  24
HETATM   24  C   UNL     1     -43.290  59.689 -54.012  1.00  0.00    -0.017 A 
HETATM   25  C   UNL     1     -43.417  59.045 -55.281  1.00  0.00    -0.017 A 
HETATM   26  C   UNL     1     -43.489  59.854 -56.448  1.00  0.00    -0.025 A 
HETATM   27  C   UNL     1     -43.485  57.642 -55.473  1.00  0.00     0.013 A 
HETATM   28  C   UNL     1     -43.645  59.268 -57.714  1.00  0.00     0.012 A 
HETATM   29  C   UNL     1     -43.412  61.249 -56.349  1.00  0.00     0.012 A 
HETATM   30  C   UNL     1     -43.721  57.887 -57.862  1.00  0.00     0.001 A 
HETATM   31  C   UNL     1     -43.636  57.074 -56.742  1.00  0.00     0.001 A 
HETATM   32  C   UNL     1     -43.262  61.871 -55.117  1.00  0.00     0.002 A 
HETATM   33  C   UNL     1     -43.200  61.101 -53.963  1.00  0.00     0.010 A 
ENDBRANCH   9  24
TORSDOF 4
ENDMDL
MODEL 8
REMARK VINA RESULT:      -7.6      1.631      2.843
REMARK  4 active torsions:
REMARK  status: ('A' for Active; 'I' for Inactive)
REMARK    1  A    between atoms: C_9  and  C_10 
REMARK    2  A    between atoms: C_20  and  C_21 
REMARK       I    between atoms: C_21  and  N_22 
REMARK    3  A    between atoms: N_22  and  C_23 
REMARK    4  A    between atoms: C_24  and  O_25 
ROOT
HETATM    1  C   UNL     1     -44.705  59.957 -54.696  1.00  0.00     0.070 C 
HETATM    2  C   UNL     1     -43.515  59.363 -53.986  1.00  0.00     0.037 C 
HETATM    3  N   UNL     1     -43.374  59.713 -52.644  1.00  0.00    -0.192 N 
HETATM    4  C   UNL     1     -42.212  59.554 -51.977  1.00  0.00     0.725 A 
HETATM    5  N   UNL     1     -41.210  58.807 -52.540  1.00  0.00    -0.084 N 
HETATM    6  N   UNL     1     -40.090  58.842 -51.788  1.00  0.00    -0.149 NA
HETATM    7  C   UNL     1     -40.510  59.585 -50.757  1.00  0.00     0.275 A 
HETATM    8  N   UNL     1     -41.804  60.038 -50.832  1.00  0.00    -0.054 NA
HETATM    9  C   UNL     1     -41.333  58.109 -53.828  1.00  0.00     0.203 C 
HETATM   10  C   UNL     1     -42.563  58.600 -54.582  1.00  0.00     0.062 C 
HETATM   11  H   UNL     1     -44.041  60.382 -52.268  1.00  0.00     0.184 HD
ENDROOT
BRANCH  10  12
HETATM   12  C   UNL     1     -42.543  58.352 -56.042  1.00  0.00     0.256 C 
HETATM   13  N   UNL     1     -43.230  57.225 -56.419  1.00  0.00    -0.321 N 
HETATM   14  H   UNL     1     -43.524  56.568 -55.702  1.00  0.00     0.169 HD
HETATM   15  O   UNL     1     -41.931  59.130 -56.763  1.00  0.00    -0.267 OA
BRANCH  13  16
HETATM   16  C   UNL     1     -43.636  56.865 -57.724  1.00  0.00     0.068 A 
HETATM   17  C   UNL     1     -44.828  57.440 -58.213  1.00  0.00     0.095 A 
HETATM   18  C   UNL     1     -45.237  57.185 -59.527  1.00  0.00     0.039 A 
HETATM   19  C   UNL     1     -44.477  56.352 -60.348  1.00  0.00     0.003 A 
HETATM   20  C   UNL     1     -43.309  55.769 -59.862  1.00  0.00     0.002 A 
HETATM   21  C   UNL     1     -42.890  56.024 -58.555  1.00  0.00     0.032 A 
BRANCH  17  22
HETATM   22  O   UNL     1     -45.501  58.260 -57.335  1.00  0.00    -0.354 OA
HETATM   23  C   UNL     1     -46.922  58.194 -57.389  1.00  0.00     0.210 C 
ENDBRANCH  17  22
ENDBRANCH  13  16
ENDBRANCH  10  12
BRANCH   9  24
HETATM   24  C   UNL     1     -41.369  56.592 -53.585  1.00  0.00    -0.017 A 
HETATM   25  C   UNL     1     -42.212  55.987 -52.602  1.00  0.00    -0.017 A 
HETATM   26  C   UNL     1     -42.226  54.568 -52.502  1.00  0.00    -0.025 A 
HETATM   27  C   UNL     1     -43.050  56.697 -51.708  1.00  0.00     0.013 A 
HETATM   28  C   UNL     1     -43.061  53.927 -51.572  1.00  0.00     0.012 A 
HETATM   29  C   UNL     1     -41.414  53.790 -53.337  1.00  0.00     0.012 A 
HETATM   30  C   UNL     1     -43.881  54.658 -50.720  1.00  0.00     0.001 A 
HETATM   31  C   UNL     1     -43.872  56.043 -50.784  1.00  0.00     0.001 A 
HETATM   32  C   UNL     1     -40.577  54.382 -54.273  1.00  0.00     0.002 A 
HETATM   33  C   UNL     1     -40.554  55.765 -54.395  1.00  0.00     0.010 A 
ENDBRANCH   9  24
TORSDOF 4
ENDMDL
MODEL 9
REMARK VINA RESULT:      -7.5     16.597     19.710
REMARK  4 active torsions:
REMARK  status: ('A' for Active; 'I' for Inactive)
REMARK    1  A    between atoms: C_9  and  C_10 
REMARK    2  A    between atoms: C_20  and  C_21 
REMARK       I    between atoms: C_21  and  N_22 
REMARK    3  A    between atoms: N_22  and  C_23 
REMARK    4  A    between atoms: C_24  and  O_25 
ROOT
HETATM    1  C   UNL     1     -32.373  40.433 -54.294  1.00  0.00     0.070 C 
HETATM    2  C   UNL     1     -33.868  40.509 -54.475  1.00  0.00     0.037 C 
HETATM    3  N   UNL     1     -34.526  41.451 -53.687  1.00  0.00    -0.192 N 
HETATM    4  C   UNL     1     -35.859  41.410 -53.477  1.00  0.00     0.725 A 
HETATM    5  N   UNL     1     -36.635  40.581 -54.244  1.00  0.00    -0.084 N 
HETATM    6  N   UNL     1     -37.919  40.589 -53.830  1.00  0.00    -0.149 NA
HETATM    7  C   UNL     1     -37.853  41.490 -52.843  1.00  0.00     0.275 A 
HETATM    8  N   UNL     1     -36.611  42.020 -52.597  1.00  0.00    -0.054 NA
HETATM    9  C   UNL     1     -36.112  39.750 -55.339  1.00  0.00     0.203 C 
HETATM   10  C   UNL     1     -34.591  39.683 -55.274  1.00  0.00     0.062 C 
HETATM   11  H   UNL     1     -33.963  41.967 -53.014  1.00  0.00     0.184 HD
ENDROOT
BRANCH  10  12
HETATM   12  C   UNL     1     -33.984  38.536 -55.987  1.00  0.00     0.256 C 
HETATM   13  N   UNL     1     -33.533  38.845 -57.246  1.00  0.00    -0.321 N 
HETATM   14  H   UNL     1     -33.803  39.734 -57.658  1.00  0.00     0.169 HD
HETATM   15  O   UNL     1     -33.945  37.447 -55.426  1.00  0.00    -0.267 OA
BRANCH  13  16
HETATM   16  C   UNL     1     -32.672  38.076 -58.061  1.00  0.00     0.068 A 
HETATM   17  C   UNL     1     -33.213  37.536 -59.247  1.00  0.00     0.095 A 
HETATM   18  C   UNL     1     -32.388  36.836 -60.134  1.00  0.00     0.039 A 
HETATM   19  C   UNL     1     -31.036  36.658 -59.841  1.00  0.00     0.003 A 
HETATM   20  C   UNL     1     -30.503  37.174 -58.662  1.00  0.00     0.002 A 
HETATM   21  C   UNL     1     -31.318  37.880 -57.775  1.00  0.00     0.032 A 
BRANCH  17  22
HETATM   22  O   UNL     1     -34.552  37.779 -59.458  1.00  0.00    -0.354 OA
HETATM   23  C   UNL     1     -34.978  37.775 -60.817  1.00  0.00     0.210 C 
ENDBRANCH  17  22
ENDBRANCH  13  16
ENDBRANCH  10  12
BRANCH   9  24
HETATM   24  C   UNL     1     -36.611  40.303 -56.683  1.00  0.00    -0.017 A 
HETATM   25  C   UNL     1     -37.293  39.495 -57.645  1.00  0.00    -0.017 A 
HETATM   26  C   UNL     1     -37.780  40.116 -58.828  1.00  0.00    -0.025 A 
HETATM   27  C   UNL     1     -37.532  38.105 -57.510  1.00  0.00     0.013 A 
HETATM   28  C   UNL     1     -38.483  39.370 -59.788  1.00  0.00     0.012 A 
HETATM   29  C   UNL     1     -37.571  41.484 -59.049  1.00  0.00     0.012 A 
HETATM   30  C   UNL     1     -38.710  38.009 -59.614  1.00  0.00     0.001 A 
HETATM   31  C   UNL     1     -38.230  37.376 -58.478  1.00  0.00     0.001 A 
HETATM   32  C   UNL     1     -36.885  42.260 -58.125  1.00  0.00     0.002 A 
HETATM   33  C   UNL     1     -36.410  41.677 -56.957  1.00  0.00     0.010 A 
ENDBRANCH   9  24
TORSDOF 4
ENDMDL
MODEL 10
REMARK VINA RESULT:      -7.4      2.141      5.625
REMARK  4 active torsions:
REMARK  status: ('A' for Active; 'I' for Inactive)
REMARK    1  A    between atoms: C_9  and  C_10 
REMARK    2  A    between atoms: C_20  and  C_21 
REMARK       I    between atoms: C_21  and  N_22 
REMARK    3  A    between atoms: N_22  and  C_23 
REMARK    4  A    between atoms: C_24  and  O_25 
ROOT
HETATM    1  C   UNL     1     -40.984  57.389 -50.210  1.00  0.00     0.070 C 
HETATM    2  C   UNL     1     -42.000  58.162 -51.014  1.00  0.00     0.037 C 
HETATM    3  N   UNL     1     -42.246  59.465 -50.588  1.00  0.00    -0.192 N 
HETATM    4  C   UNL     1     -43.343  60.153 -50.969  1.00  0.00     0.725 A 
HETATM    5  N   UNL     1     -44.117  59.671 -51.992  1.00  0.00    -0.084 N 
HETATM    6  N   UNL     1     -45.222  60.424 -52.168  1.00  0.00    -0.149 NA
HETATM    7  C   UNL     1     -45.018  61.377 -51.251  1.00  0.00     0.275 A 
HETATM    8  N   UNL     1     -43.878  61.250 -50.498  1.00  0.00    -0.054 NA
HETATM    9  C   UNL     1     -43.802  58.453 -52.754  1.00  0.00     0.203 C 
HETATM   10  C   UNL     1     -42.721  57.648 -52.043  1.00  0.00     0.062 C 
HETATM   11  H   UNL     1     -41.773  59.772 -49.740  1.00  0.00     0.184 HD
ENDROOT
BRANCH  10  12
HETATM   12  C   UNL     1     -42.654  56.217 -52.423  1.00  0.00     0.256 C 
HETATM   13  N   UNL     1     -41.434  55.836 -52.921  1.00  0.00    -0.321 N 
HETATM   14  H   UNL     1     -40.759  56.555 -53.165  1.00  0.00     0.169 HD
HETATM   15  O   UNL     1     -43.654  55.523 -52.282  1.00  0.00    -0.267 OA
BRANCH  13  16
HETATM   16  C   UNL     1     -40.958  54.518 -53.107  1.00  0.00     0.068 A 
HETATM   17  C   UNL     1     -40.855  54.047 -54.433  1.00  0.00     0.095 A 
HETATM   18  C   UNL     1     -40.313  52.782 -54.683  1.00  0.00     0.039 A 
HETATM   19  C   UNL     1     -39.889  51.979 -53.623  1.00  0.00     0.003 A 
HETATM   20  C   UNL     1     -40.007  52.434 -52.312  1.00  0.00     0.002 A 
HETATM   21  C   UNL     1     -40.540  53.699 -52.054  1.00  0.00     0.032 A 
BRANCH  17  22
HETATM   22  O   UNL     1     -41.282  54.917 -55.411  1.00  0.00    -0.354 OA
HETATM   23  C   UNL     1     -42.606  54.707 -55.893  1.00  0.00     0.210 C 
ENDBRANCH  17  22
ENDBRANCH  13  16
ENDBRANCH  10  12
BRANCH   9  24
HETATM   24  C   UNL     1     -43.392  58.838 -54.184  1.00  0.00    -0.017 A 
HETATM   25  C   UNL     1     -44.230  58.602 -55.318  1.00  0.00    -0.017 A 
HETATM   26  C   UNL     1     -43.793  59.059 -56.591  1.00  0.00    -0.025 A 
HETATM   27  C   UNL     1     -45.484  57.944 -55.273  1.00  0.00     0.013 A 
HETATM   28  C   UNL     1     -44.596  58.878 -57.729  1.00  0.00     0.012 A 
HETATM   29  C   UNL     1     -42.557  59.704 -56.727  1.00  0.00     0.012 A 
HETATM   30  C   UNL     1     -45.829  58.239 -57.643  1.00  0.00     0.001 A 
HETATM   31  C   UNL     1     -46.270  57.768 -56.417  1.00  0.00     0.001 A 
HETATM   32  C   UNL     1     -41.733  59.908 -55.628  1.00  0.00     0.002 A 
HETATM   33  C   UNL     1     -42.145  59.480 -54.373  1.00  0.00     0.010 A 
ENDBRANCH   9  24
TORSDOF 4
ENDMDL
