MODEL 1
REMARK VINA RESULT:      -7.8      0.000      0.000
REMARK  7 active torsions:
REMARK  status: ('A' for Active; 'I' for Inactive)
REMARK    1  A    between atoms: C_3  and  N_4 
REMARK    2  A    between atoms: N_7  and  C_9 
REMARK    3  A    between atoms: N_12  and  C_13 
REMARK    4  A    between atoms: C_16  and  C_17 
REMARK       I    between atoms: C_17  and  N_18 
REMARK    5  A    between atoms: C_20  and  C_21 
REMARK    6  A    between atoms: C_21  and  O_22 
REMARK    7  A    between atoms: C_33  and  O_34 
ROOT
HETATM    1  C   UNL     1     -34.043  41.117 -52.723  1.00  0.00     0.191 C 
HETATM    2  C   UNL     1     -34.524  41.522 -51.319  1.00  0.00     0.053 C 
HETATM    3  C   UNL     1     -34.812  40.312 -50.433  1.00  0.00     0.125 C 
HETATM    4  N   UNL     1     -33.661  39.418 -50.439  1.00  0.00    -0.381 N 
HETATM    5  C   UNL     1     -33.047  39.018 -51.695  1.00  0.00     0.125 C 
HETATM    6  C   UNL     1     -32.794  40.236 -52.572  1.00  0.00     0.053 C 
ENDROOT
BRANCH   4   7
HETATM    7  C   UNL     1     -33.017  39.189 -49.230  1.00  0.00     0.030 A 
HETATM    8  C   UNL     1     -33.497  38.206 -48.351  1.00  0.00     0.030 A 
HETATM    9  C   UNL     1     -32.889  37.975 -47.113  1.00  0.00     0.019 A 
HETATM   10  C   UNL     1     -31.782  38.730 -46.724  1.00  0.00     0.032 A 
HETATM   11  C   UNL     1     -31.304  39.731 -47.573  1.00  0.00     0.019 A 
HETATM   12  C   UNL     1     -31.902  39.937 -48.823  1.00  0.00     0.030 A 
BRANCH  10  13
HETATM   13  C   UNL     1     -31.233  38.527 -45.361  1.00  0.00     0.253 C 
HETATM   14  N   UNL     1     -29.859  38.335 -45.176  1.00  0.00    -0.348 N 
HETATM   15  C   UNL     1     -29.013  37.654 -46.162  1.00  0.00     0.132 C 
HETATM   16  C   UNL     1     -29.410  38.205 -43.788  1.00  0.00     0.126 C 
HETATM   17  C   UNL     1     -27.542  38.081 -46.057  1.00  0.00     0.027 C 
HETATM   18  C   UNL     1     -27.043  37.916 -44.613  1.00  0.00     0.010 C 
HETATM   19  C   UNL     1     -27.954  38.622 -43.612  1.00  0.00     0.020 C 
HETATM   20  O   UNL     1     -32.037  38.572 -44.430  1.00  0.00    -0.267 OA
BRANCH  17  21
HETATM   21  C   UNL     1     -27.358  39.509 -46.591  1.00  0.00     0.170 C 
BRANCH  21  22
HETATM   22  O   UNL     1     -27.943  39.662 -47.877  1.00  0.00    -0.400 OA
HETATM   23  H   UNL     1     -27.330  39.296 -48.538  1.00  0.00     0.209 HD
ENDBRANCH  21  22
ENDBRANCH  17  21
ENDBRANCH  10  13
ENDBRANCH   4   7
BRANCH   1  24
HETATM   24  N   UNL     1     -35.172  40.432 -53.522  1.00  0.00    -0.064 N 
HETATM   25  C   UNL     1     -36.258  41.435 -53.973  1.00  0.00     0.255 C 
HETATM   26  C   UNL     1     -37.446  40.699 -54.620  1.00  0.00     0.150 C 
HETATM   27  N   UNL     1     -37.016  39.844 -55.750  1.00  0.00    -0.375 N 
HETATM   28  C   UNL     1     -35.891  38.941 -55.455  1.00  0.00     0.150 C 
HETATM   29  C   UNL     1     -34.705  39.653 -54.764  1.00  0.00     0.255 C 
HETATM   30  H   UNL     1     -35.632  39.745 -52.911  1.00  0.00     0.280 HD
BRANCH  27  31
HETATM   31  C   UNL     1     -37.107  40.449 -57.014  1.00  0.00     0.063 A 
HETATM   32  C   UNL     1     -36.589  41.715 -57.316  1.00  0.00     0.032 A 
HETATM   33  C   UNL     1     -36.746  42.278 -58.591  1.00  0.00     0.002 A 
HETATM   34  C   UNL     1     -37.418  41.583 -59.596  1.00  0.00     0.003 A 
HETATM   35  C   UNL     1     -37.914  40.311 -59.337  1.00  0.00     0.039 A 
HETATM   36  C   UNL     1     -37.737  39.760 -58.073  1.00  0.00     0.092 A 
BRANCH  36  37
HETATM   37  O   UNL     1     -38.136  38.459 -57.894  1.00  0.00    -0.358 OA
HETATM   38  H   UNL     1     -37.896  38.018 -58.730  1.00  0.00     0.218 HD
ENDBRANCH  36  37
ENDBRANCH  27  31
ENDBRANCH   1  24
TORSDOF 7
ENDMDL
MODEL 2
REMARK VINA RESULT:      -7.7     20.181     22.923
REMARK  7 active torsions:
REMARK  status: ('A' for Active; 'I' for Inactive)
REMARK    1  A    between atoms: C_3  and  N_4 
REMARK    2  A    between atoms: N_7  and  C_9 
REMARK    3  A    between atoms: N_12  and  C_13 
REMARK    4  A    between atoms: C_16  and  C_17 
REMARK       I    between atoms: C_17  and  N_18 
REMARK    5  A    between atoms: C_20  and  C_21 
REMARK    6  A    between atoms: C_21  and  O_22 
REMARK    7  A    between atoms: C_33  and  O_34 
ROOT
HETATM    1  C   UNL     1     -45.354  61.115 -49.992  1.00  0.00     0.191 C 
HETATM    2  C   UNL     1     -45.868  59.665 -49.979  1.00  0.00     0.053 C 
HETATM    3  C   UNL     1     -45.447  58.889 -51.225  1.00  0.00     0.125 C 
HETATM    4  N   UNL     1     -44.007  59.014 -51.413  1.00  0.00    -0.381 N 
HETATM    5  C   UNL     1     -43.370  60.320 -51.364  1.00  0.00     0.125 C 
HETATM    6  C   UNL     1     -43.825  61.086 -50.129  1.00  0.00     0.053 C 
ENDROOT
BRANCH   4   7
HETATM    7  C   UNL     1     -43.248  57.852 -51.365  1.00  0.00     0.030 A 
HETATM    8  C   UNL     1     -43.845  56.635 -51.001  1.00  0.00     0.030 A 
HETATM    9  C   UNL     1     -43.101  55.455 -50.913  1.00  0.00     0.019 A 
HETATM   10  C   UNL     1     -41.732  55.468 -51.186  1.00  0.00     0.032 A 
HETATM   11  C   UNL     1     -41.113  56.674 -51.524  1.00  0.00     0.019 A 
HETATM   12  C   UNL     1     -41.872  57.846 -51.637  1.00  0.00     0.030 A 
BRANCH  10  13
HETATM   13  C   UNL     1     -40.959  54.219 -50.978  1.00  0.00     0.253 C 
HETATM   14  N   UNL     1     -40.715  53.353 -52.051  1.00  0.00    -0.348 N 
HETATM   15  C   UNL     1     -41.660  53.178 -53.159  1.00  0.00     0.132 C 
HETATM   16  C   UNL     1     -39.891  52.179 -51.755  1.00  0.00     0.126 C 
HETATM   17  C   UNL     1     -40.966  52.703 -54.443  1.00  0.00     0.027 C 
HETATM   18  C   UNL     1     -40.126  51.447 -54.158  1.00  0.00     0.010 C 
HETATM   19  C   UNL     1     -39.166  51.658 -52.990  1.00  0.00     0.020 C 
HETATM   20  O   UNL     1     -40.531  54.017 -49.841  1.00  0.00    -0.267 OA
BRANCH  17  21
HETATM   21  C   UNL     1     -40.143  53.841 -55.063  1.00  0.00     0.170 C 
BRANCH  21  22
HETATM   22  O   UNL     1     -40.963  54.721 -55.819  1.00  0.00    -0.400 OA
HETATM   23  H   UNL     1     -40.939  55.599 -55.401  1.00  0.00     0.209 HD
ENDBRANCH  21  22
ENDBRANCH  17  21
ENDBRANCH  10  13
ENDBRANCH   4   7
BRANCH   1  24
HETATM   24  N   UNL     1     -46.043  61.941 -51.098  1.00  0.00    -0.064 N 
HETATM   25  C   UNL     1     -46.910  61.060 -52.028  1.00  0.00     0.255 C 
HETATM   26  C   UNL     1     -47.448  61.883 -53.213  1.00  0.00     0.150 C 
HETATM   27  N   UNL     1     -48.203  63.074 -52.761  1.00  0.00    -0.375 N 
HETATM   28  C   UNL     1     -47.511  63.910 -51.766  1.00  0.00     0.150 C 
HETATM   29  C   UNL     1     -46.923  63.096 -50.590  1.00  0.00     0.255 C 
HETATM   30  H   UNL     1     -45.317  62.372 -51.684  1.00  0.00     0.280 HD
BRANCH  27  31
HETATM   31  C   UNL     1     -49.592  62.888 -52.664  1.00  0.00     0.063 A 
HETATM   32  C   UNL     1     -50.369  63.333 -51.587  1.00  0.00     0.032 A 
HETATM   33  C   UNL     1     -51.749  63.082 -51.535  1.00  0.00     0.002 A 
HETATM   34  C   UNL     1     -52.383  62.388 -52.564  1.00  0.00     0.003 A 
HETATM   35  C   UNL     1     -51.645  61.963 -53.662  1.00  0.00     0.039 A 
HETATM   36  C   UNL     1     -50.282  62.232 -53.707  1.00  0.00     0.092 A 
BRANCH  36  37
HETATM   37  O   UNL     1     -49.614  61.901 -54.859  1.00  0.00    -0.358 OA
HETATM   38  H   UNL     1     -48.968  62.622 -54.977  1.00  0.00     0.218 HD
ENDBRANCH  36  37
ENDBRANCH  27  31
ENDBRANCH   1  24
TORSDOF 7
ENDMDL
MODEL 3
REMARK VINA RESULT:      -7.6     19.819     22.796
REMARK  7 active torsions:
REMARK  status: ('A' for Active; 'I' for Inactive)
REMARK    1  A    between atoms: C_3  and  N_4 
REMARK    2  A    between atoms: N_7  and  C_9 
REMARK    3  A    between atoms: N_12  and  C_13 
REMARK    4  A    between atoms: C_16  and  C_17 
REMARK       I    between atoms: C_17  and  N_18 
REMARK    5  A    between atoms: C_20  and  C_21 
REMARK    6  A    between atoms: C_21  and  O_22 
REMARK    7  A    between atoms: C_33  and  O_34 
ROOT
HETATM    1  C   UNL     1     -44.396  61.025 -53.201  1.00  0.00     0.191 C 
HETATM    2  C   UNL     1     -42.931  60.762 -52.814  1.00  0.00     0.053 C 
HETATM    3  C   UNL     1     -42.803  60.105 -51.442  1.00  0.00     0.125 C 
HETATM    4  N   UNL     1     -43.659  58.926 -51.385  1.00  0.00    -0.381 N 
HETATM    5  C   UNL     1     -45.049  59.007 -51.804  1.00  0.00     0.125 C 
HETATM    6  C   UNL     1     -45.155  59.690 -53.160  1.00  0.00     0.053 C 
ENDROOT
BRANCH   4   7
HETATM    7  C   UNL     1     -43.049  57.695 -51.186  1.00  0.00     0.030 A 
HETATM    8  C   UNL     1     -41.650  57.587 -51.224  1.00  0.00     0.030 A 
HETATM    9  C   UNL     1     -41.008  56.357 -51.059  1.00  0.00     0.019 A 
HETATM   10  C   UNL     1     -41.757  55.198 -50.855  1.00  0.00     0.032 A 
HETATM   11  C   UNL     1     -43.151  55.278 -50.840  1.00  0.00     0.019 A 
HETATM   12  C   UNL     1     -43.785  56.520 -50.978  1.00  0.00     0.030 A 
BRANCH  10  13
HETATM   13  C   UNL     1     -41.044  53.898 -50.792  1.00  0.00     0.253 C 
HETATM   14  N   UNL     1     -40.796  53.173 -51.963  1.00  0.00    -0.348 N 
HETATM   15  C   UNL     1     -41.705  53.189 -53.115  1.00  0.00     0.132 C 
HETATM   16  C   UNL     1     -40.032  51.934 -51.803  1.00  0.00     0.126 C 
HETATM   17  C   UNL     1     -40.984  52.858 -54.428  1.00  0.00     0.027 C 
HETATM   18  C   UNL     1     -40.207  51.538 -54.289  1.00  0.00     0.010 C 
HETATM   19  C   UNL     1     -39.283  51.549 -53.073  1.00  0.00     0.020 C 
HETATM   20  O   UNL     1     -40.667  53.528 -49.680  1.00  0.00    -0.267 OA
BRANCH  17  21
HETATM   21  C   UNL     1     -40.094  54.030 -54.863  1.00  0.00     0.170 C 
BRANCH  21  22
HETATM   22  O   UNL     1     -40.789  54.917 -55.729  1.00  0.00    -0.400 OA
HETATM   23  H   UNL     1     -41.163  55.638 -55.193  1.00  0.00     0.209 HD
ENDBRANCH  21  22
ENDBRANCH  17  21
ENDBRANCH  10  13
ENDBRANCH   4   7
BRANCH   1  24
HETATM   24  N   UNL     1     -45.026  62.106 -52.298  1.00  0.00    -0.064 N 
HETATM   25  C   UNL     1     -46.189  61.547 -51.446  1.00  0.00     0.255 C 
HETATM   26  C   UNL     1     -46.900  62.681 -50.684  1.00  0.00     0.150 C 
HETATM   27  N   UNL     1     -45.959  63.458 -49.846  1.00  0.00    -0.375 N 
HETATM   28  C   UNL     1     -44.746  63.923 -50.539  1.00  0.00     0.150 C 
HETATM   29  C   UNL     1     -44.042  62.809 -51.348  1.00  0.00     0.255 C 
HETATM   30  H   UNL     1     -45.420  62.842 -52.897  1.00  0.00     0.280 HD
BRANCH  27  31
HETATM   31  C   UNL     1     -45.874  63.035 -48.509  1.00  0.00     0.063 A 
HETATM   32  C   UNL     1     -44.972  62.069 -48.048  1.00  0.00     0.032 A 
HETATM   33  C   UNL     1     -44.964  61.665 -46.705  1.00  0.00     0.002 A 
HETATM   34  C   UNL     1     -45.854  62.226 -45.790  1.00  0.00     0.003 A 
HETATM   35  C   UNL     1     -46.739  63.211 -46.209  1.00  0.00     0.039 A 
HETATM   36  C   UNL     1     -46.725  63.612 -47.540  1.00  0.00     0.092 A 
BRANCH  36  37
HETATM   37  O   UNL     1     -47.529  64.668 -47.887  1.00  0.00    -0.358 OA
HETATM   38  H   UNL     1     -48.063  64.835 -47.087  1.00  0.00     0.218 HD
ENDBRANCH  36  37
ENDBRANCH  27  31
ENDBRANCH   1  24
TORSDOF 7
ENDMDL
MODEL 4
REMARK VINA RESULT:      -7.5     17.732     22.959
REMARK  7 active torsions:
REMARK  status: ('A' for Active; 'I' for Inactive)
REMARK    1  A    between atoms: C_3  and  N_4 
REMARK    2  A    between atoms: N_7  and  C_9 
REMARK    3  A    between atoms: N_12  and  C_13 
REMARK    4  A    between atoms: C_16  and  C_17 
REMARK       I    between atoms: C_17  and  N_18 
REMARK    5  A    between atoms: C_20  and  C_21 
REMARK    6  A    between atoms: C_21  and  O_22 
REMARK    7  A    between atoms: C_33  and  O_34 
ROOT
HETATM    1  C   UNL     1     -43.528  58.338 -51.641  1.00  0.00     0.191 C 
HETATM    2  C   UNL     1     -42.432  58.963 -52.521  1.00  0.00     0.053 C 
HETATM    3  C   UNL     1     -42.027  58.053 -53.678  1.00  0.00     0.125 C 
HETATM    4  N   UNL     1     -43.218  57.636 -54.408  1.00  0.00    -0.381 N 
HETATM    5  C   UNL     1     -44.369  57.104 -53.696  1.00  0.00     0.125 C 
HETATM    6  C   UNL     1     -44.737  58.013 -52.531  1.00  0.00     0.053 C 
ENDROOT
BRANCH   4   7
HETATM    7  C   UNL     1     -43.320  58.009 -55.742  1.00  0.00     0.030 A 
HETATM    8  C   UNL     1     -42.186  57.986 -56.569  1.00  0.00     0.030 A 
HETATM    9  C   UNL     1     -42.251  58.387 -57.907  1.00  0.00     0.019 A 
HETATM   10  C   UNL     1     -43.459  58.827 -58.449  1.00  0.00     0.032 A 
HETATM   11  C   UNL     1     -44.593  58.883 -57.636  1.00  0.00     0.019 A 
HETATM   12  C   UNL     1     -44.526  58.453 -56.304  1.00  0.00     0.030 A 
BRANCH  10  13
HETATM   13  C   UNL     1     -43.462  59.344 -59.839  1.00  0.00     0.253 C 
HETATM   14  N   UNL     1     -42.918  60.602 -60.124  1.00  0.00    -0.348 N 
HETATM   15  C   UNL     1     -42.962  61.720 -59.174  1.00  0.00     0.132 C 
HETATM   16  C   UNL     1     -42.913  60.996 -61.535  1.00  0.00     0.126 C 
HETATM   17  C   UNL     1     -41.837  62.734 -59.420  1.00  0.00     0.027 C 
HETATM   18  C   UNL     1     -41.841  63.187 -60.889  1.00  0.00     0.010 C 
HETATM   19  C   UNL     1     -41.811  62.001 -61.849  1.00  0.00     0.020 C 
HETATM   20  O   UNL     1     -43.928  58.603 -60.704  1.00  0.00    -0.267 OA
BRANCH  17  21
HETATM   21  C   UNL     1     -40.485  62.154 -58.979  1.00  0.00     0.170 C 
BRANCH  21  22
HETATM   22  O   UNL     1     -40.586  61.498 -57.723  1.00  0.00    -0.400 OA
HETATM   23  H   UNL     1     -41.460  61.076 -57.667  1.00  0.00     0.209 HD
ENDBRANCH  21  22
ENDBRANCH  17  21
ENDBRANCH  10  13
ENDBRANCH   4   7
BRANCH   1  24
HETATM   24  N   UNL     1     -42.995  57.111 -50.875  1.00  0.00    -0.064 N 
HETATM   25  C   UNL     1     -43.567  55.785 -51.428  1.00  0.00     0.255 C 
HETATM   26  C   UNL     1     -43.147  54.598 -50.541  1.00  0.00     0.150 C 
HETATM   27  N   UNL     1     -41.677  54.514 -50.389  1.00  0.00    -0.375 N 
HETATM   28  C   UNL     1     -41.019  55.770 -49.992  1.00  0.00     0.150 C 
HETATM   29  C   UNL     1     -41.462  56.984 -50.842  1.00  0.00     0.255 C 
HETATM   30  H   UNL     1     -43.296  57.182 -49.895  1.00  0.00     0.280 HD
BRANCH  27  31
HETATM   31  C   UNL     1     -41.040  53.655 -51.300  1.00  0.00     0.063 A 
HETATM   32  C   UNL     1     -40.975  53.884 -52.680  1.00  0.00     0.032 A 
HETATM   33  C   UNL     1     -40.353  52.966 -53.539  1.00  0.00     0.002 A 
HETATM   34  C   UNL     1     -39.774  51.802 -53.036  1.00  0.00     0.003 A 
HETATM   35  C   UNL     1     -39.793  51.563 -51.667  1.00  0.00     0.039 A 
HETATM   36  C   UNL     1     -40.399  52.489 -50.826  1.00  0.00     0.092 A 
BRANCH  36  37
HETATM   37  O   UNL     1     -40.292  52.275 -49.475  1.00  0.00    -0.358 OA
HETATM   38  H   UNL     1     -41.210  52.117 -49.185  1.00  0.00     0.218 HD
ENDBRANCH  36  37
ENDBRANCH  27  31
ENDBRANCH   1  24
TORSDOF 7
ENDMDL
MODEL 5
REMARK VINA RESULT:      -7.5     19.369     22.611
REMARK  7 active torsions:
REMARK  status: ('A' for Active; 'I' for Inactive)
REMARK    1  A    between atoms: C_3  and  N_4 
REMARK    2  A    between atoms: N_7  and  C_9 
REMARK    3  A    between atoms: N_12  and  C_13 
REMARK    4  A    between atoms: C_16  and  C_17 
REMARK       I    between atoms: C_17  and  N_18 
REMARK    5  A    between atoms: C_20  and  C_21 
REMARK    6  A    between atoms: C_21  and  O_22 
REMARK    7  A    between atoms: C_33  and  O_34 
ROOT
HETATM    1  C   UNL     1     -43.473  57.436 -55.661  1.00  0.00     0.191 C 
HETATM    2  C   UNL     1     -44.442  57.669 -54.489  1.00  0.00     0.053 C 
HETATM    3  C   UNL     1     -43.715  57.806 -53.153  1.00  0.00     0.125 C 
HETATM    4  N   UNL     1     -42.665  58.810 -53.272  1.00  0.00    -0.381 N 
HETATM    5  C   UNL     1     -41.726  58.764 -54.381  1.00  0.00     0.125 C 
HETATM    6  C   UNL     1     -42.471  58.600 -55.699  1.00  0.00     0.053 C 
ENDROOT
BRANCH   4   7
HETATM    7  C   UNL     1     -42.758  59.938 -52.467  1.00  0.00     0.030 A 
HETATM    8  C   UNL     1     -42.477  59.850 -51.095  1.00  0.00     0.030 A 
HETATM    9  C   UNL     1     -42.593  60.961 -50.254  1.00  0.00     0.019 A 
HETATM   10  C   UNL     1     -43.000  62.192 -50.771  1.00  0.00     0.032 A 
HETATM   11  C   UNL     1     -43.310  62.295 -52.129  1.00  0.00     0.019 A 
HETATM   12  C   UNL     1     -43.163  61.183 -52.970  1.00  0.00     0.030 A 
BRANCH  10  13
HETATM   13  C   UNL     1     -43.214  63.317 -49.828  1.00  0.00     0.253 C 
HETATM   14  N   UNL     1     -44.284  63.287 -48.927  1.00  0.00    -0.348 N 
HETATM   15  C   UNL     1     -45.566  62.644 -49.237  1.00  0.00     0.132 C 
HETATM   16  C   UNL     1     -44.373  64.416 -47.997  1.00  0.00     0.126 C 
HETATM   17  C   UNL     1     -46.317  62.207 -47.972  1.00  0.00     0.027 C 
HETATM   18  C   UNL     1     -46.453  63.391 -47.000  1.00  0.00     0.010 C 
HETATM   19  C   UNL     1     -45.105  64.047 -46.711  1.00  0.00     0.020 C 
HETATM   20  O   UNL     1     -42.394  64.234 -49.867  1.00  0.00    -0.267 OA
BRANCH  17  21
HETATM   21  C   UNL     1     -45.634  60.989 -47.334  1.00  0.00     0.170 C 
BRANCH  21  22
HETATM   22  O   UNL     1     -45.803  59.824 -48.129  1.00  0.00    -0.400 OA
HETATM   23  H   UNL     1     -44.927  59.436 -48.295  1.00  0.00     0.209 HD
ENDBRANCH  21  22
ENDBRANCH  17  21
ENDBRANCH  10  13
ENDBRANCH   4   7
BRANCH   1  24
HETATM   24  N   UNL     1     -42.792  56.056 -55.555  1.00  0.00    -0.064 N 
HETATM   25  C   UNL     1     -41.356  56.157 -54.992  1.00  0.00     0.255 C 
HETATM   26  C   UNL     1     -40.648  54.790 -55.054  1.00  0.00     0.150 C 
HETATM   27  N   UNL     1     -41.417  53.738 -54.352  1.00  0.00    -0.375 N 
HETATM   28  C   UNL     1     -42.839  53.651 -54.725  1.00  0.00     0.150 C 
HETATM   29  C   UNL     1     -43.556  55.020 -54.713  1.00  0.00     0.255 C 
HETATM   30  H   UNL     1     -42.717  55.657 -56.499  1.00  0.00     0.280 HD
BRANCH  27  31
HETATM   31  C   UNL     1     -41.037  53.523 -53.017  1.00  0.00     0.063 A 
HETATM   32  C   UNL     1     -41.493  54.291 -51.938  1.00  0.00     0.032 A 
HETATM   33  C   UNL     1     -41.045  54.046 -50.632  1.00  0.00     0.002 A 
HETATM   34  C   UNL     1     -40.136  53.021 -50.374  1.00  0.00     0.003 A 
HETATM   35  C   UNL     1     -39.690  52.220 -51.418  1.00  0.00     0.039 A 
HETATM   36  C   UNL     1     -40.155  52.465 -52.705  1.00  0.00     0.092 A 
BRANCH  36  37
HETATM   37  O   UNL     1     -39.784  51.580 -53.686  1.00  0.00    -0.358 OA
HETATM   38  H   UNL     1     -40.428  51.733 -54.403  1.00  0.00     0.218 HD
ENDBRANCH  36  37
ENDBRANCH  27  31
ENDBRANCH   1  24
TORSDOF 7
ENDMDL
MODEL 6
REMARK VINA RESULT:      -7.3     19.691     22.743
REMARK  7 active torsions:
REMARK  status: ('A' for Active; 'I' for Inactive)
REMARK    1  A    between atoms: C_3  and  N_4 
REMARK    2  A    between atoms: N_7  and  C_9 
REMARK    3  A    between atoms: N_12  and  C_13 
REMARK    4  A    between atoms: C_16  and  C_17 
REMARK       I    between atoms: C_17  and  N_18 
REMARK    5  A    between atoms: C_20  and  C_21 
REMARK    6  A    between atoms: C_21  and  O_22 
REMARK    7  A    between atoms: C_33  and  O_34 
ROOT
HETATM    1  C   UNL     1     -40.831  57.673 -53.096  1.00  0.00     0.191 C 
HETATM    2  C   UNL     1     -41.392  58.901 -53.833  1.00  0.00     0.053 C 
HETATM    3  C   UNL     1     -42.888  59.090 -53.590  1.00  0.00     0.125 C 
HETATM    4  N   UNL     1     -43.154  59.076 -52.157  1.00  0.00    -0.381 N 
HETATM    5  C   UNL     1     -42.612  58.019 -51.319  1.00  0.00     0.125 C 
HETATM    6  C   UNL     1     -41.128  57.830 -51.597  1.00  0.00     0.053 C 
ENDROOT
BRANCH   4   7
HETATM    7  C   UNL     1     -43.693  60.224 -51.591  1.00  0.00     0.030 A 
HETATM    8  C   UNL     1     -42.993  60.913 -50.589  1.00  0.00     0.030 A 
HETATM    9  C   UNL     1     -43.524  62.052 -49.978  1.00  0.00     0.019 A 
HETATM   10  C   UNL     1     -44.780  62.529 -50.357  1.00  0.00     0.032 A 
HETATM   11  C   UNL     1     -45.506  61.843 -51.333  1.00  0.00     0.019 A 
HETATM   12  C   UNL     1     -44.953  60.718 -51.960  1.00  0.00     0.030 A 
BRANCH  10  13
HETATM   13  C   UNL     1     -45.354  63.675 -49.610  1.00  0.00     0.253 C 
HETATM   14  N   UNL     1     -45.899  63.484 -48.335  1.00  0.00    -0.348 N 
HETATM   15  C   UNL     1     -46.569  62.241 -47.936  1.00  0.00     0.132 C 
HETATM   16  C   UNL     1     -46.384  64.688 -47.657  1.00  0.00     0.126 C 
HETATM   17  C   UNL     1     -46.531  62.024 -46.417  1.00  0.00     0.027 C 
HETATM   18  C   UNL     1     -47.073  63.266 -45.690  1.00  0.00     0.010 C 
HETATM   19  C   UNL     1     -46.366  64.542 -46.139  1.00  0.00     0.020 C 
HETATM   20  O   UNL     1     -45.291  64.777 -50.156  1.00  0.00    -0.267 OA
BRANCH  17  21
HETATM   21  C   UNL     1     -45.116  61.639 -45.964  1.00  0.00     0.170 C 
BRANCH  21  22
HETATM   22  O   UNL     1     -44.547  60.657 -46.818  1.00  0.00    -0.400 OA
HETATM   23  H   UNL     1     -45.157  60.503 -47.559  1.00  0.00     0.209 HD
ENDBRANCH  21  22
ENDBRANCH  17  21
ENDBRANCH  10  13
ENDBRANCH   4   7
BRANCH   1  24
HETATM   24  N   UNL     1     -41.391  56.364 -53.689  1.00  0.00    -0.064 N 
HETATM   25  C   UNL     1     -40.325  55.584 -54.492  1.00  0.00     0.255 C 
HETATM   26  C   UNL     1     -40.956  54.373 -55.205  1.00  0.00     0.150 C 
HETATM   27  N   UNL     1     -41.660  53.480 -54.257  1.00  0.00    -0.375 N 
HETATM   28  C   UNL     1     -42.606  54.153 -53.352  1.00  0.00     0.150 C 
HETATM   29  C   UNL     1     -42.005  55.398 -52.661  1.00  0.00     0.255 C 
HETATM   30  H   UNL     1     -42.147  56.600 -54.344  1.00  0.00     0.280 HD
BRANCH  27  31
HETATM   31  C   UNL     1     -40.892  52.404 -53.782  1.00  0.00     0.063 A 
HETATM   32  C   UNL     1     -40.733  51.192 -54.466  1.00  0.00     0.032 A 
HETATM   33  C   UNL     1     -39.981  50.142 -53.917  1.00  0.00     0.002 A 
HETATM   34  C   UNL     1     -39.364  50.285 -52.676  1.00  0.00     0.003 A 
HETATM   35  C   UNL     1     -39.475  51.488 -51.988  1.00  0.00     0.039 A 
HETATM   36  C   UNL     1     -40.210  52.524 -52.551  1.00  0.00     0.092 A 
BRANCH  36  37
HETATM   37  O   UNL     1     -40.197  53.730 -51.898  1.00  0.00    -0.358 OA
HETATM   38  H   UNL     1     -40.252  54.391 -52.614  1.00  0.00     0.218 HD
ENDBRANCH  36  37
ENDBRANCH  27  31
ENDBRANCH   1  24
TORSDOF 7
ENDMDL
MODEL 7
REMARK VINA RESULT:      -7.2     20.199     22.993
REMARK  7 active torsions:
REMARK  status: ('A' for Active; 'I' for Inactive)
REMARK    1  A    between atoms: C_3  and  N_4 
REMARK    2  A    between atoms: N_7  and  C_9 
REMARK    3  A    between atoms: N_12  and  C_13 
REMARK    4  A    between atoms: C_16  and  C_17 
REMARK       I    between atoms: C_17  and  N_18 
REMARK    5  A    between atoms: C_20  and  C_21 
REMARK    6  A    between atoms: C_21  and  O_22 
REMARK    7  A    between atoms: C_33  and  O_34 
ROOT
HETATM    1  C   UNL     1     -44.260  61.522 -53.540  1.00  0.00     0.191 C 
HETATM    2  C   UNL     1     -42.923  61.297 -52.813  1.00  0.00     0.053 C 
HETATM    3  C   UNL     1     -43.074  60.405 -51.583  1.00  0.00     0.125 C 
HETATM    4  N   UNL     1     -43.769  59.179 -51.954  1.00  0.00    -0.381 N 
HETATM    5  C   UNL     1     -45.004  59.236 -52.718  1.00  0.00     0.125 C 
HETATM    6  C   UNL     1     -44.839  60.152 -53.923  1.00  0.00     0.053 C 
ENDROOT
BRANCH   4   7
HETATM    7  C   UNL     1     -43.088  57.979 -51.796  1.00  0.00     0.030 A 
HETATM    8  C   UNL     1     -43.675  56.923 -51.081  1.00  0.00     0.030 A 
HETATM    9  C   UNL     1     -43.001  55.715 -50.878  1.00  0.00     0.019 A 
HETATM   10  C   UNL     1     -41.713  55.538 -51.386  1.00  0.00     0.032 A 
HETATM   11  C   UNL     1     -41.100  56.585 -52.077  1.00  0.00     0.019 A 
HETATM   12  C   UNL     1     -41.794  57.782 -52.299  1.00  0.00     0.030 A 
BRANCH  10  13
HETATM   13  C   UNL     1     -40.992  54.284 -51.057  1.00  0.00     0.253 C 
HETATM   14  N   UNL     1     -40.715  53.346 -52.059  1.00  0.00    -0.348 N 
HETATM   15  C   UNL     1     -41.601  53.128 -53.208  1.00  0.00     0.132 C 
HETATM   16  C   UNL     1     -39.946  52.171 -51.646  1.00  0.00     0.126 C 
HETATM   17  C   UNL     1     -40.851  52.554 -54.418  1.00  0.00     0.027 C 
HETATM   18  C   UNL     1     -40.067  51.297 -54.009  1.00  0.00     0.010 C 
HETATM   19  C   UNL     1     -39.168  51.554 -52.802  1.00  0.00     0.020 C 
HETATM   20  O   UNL     1     -40.634  54.142 -49.888  1.00  0.00    -0.267 OA
BRANCH  17  21
HETATM   21  C   UNL     1     -39.961  53.629 -55.058  1.00  0.00     0.170 C 
BRANCH  21  22
HETATM   22  O   UNL     1     -40.701  54.803 -55.362  1.00  0.00    -0.400 OA
HETATM   23  H   UNL     1     -41.481  54.547 -55.884  1.00  0.00     0.209 HD
ENDBRANCH  21  22
ENDBRANCH  17  21
ENDBRANCH  10  13
ENDBRANCH   4   7
BRANCH   1  24
HETATM   24  N   UNL     1     -45.225  62.366 -52.683  1.00  0.00    -0.064 N 
HETATM   25  C   UNL     1     -46.214  63.180 -53.549  1.00  0.00     0.255 C 
HETATM   26  C   UNL     1     -47.049  64.133 -52.673  1.00  0.00     0.150 C 
HETATM   27  N   UNL     1     -47.763  63.411 -51.596  1.00  0.00    -0.375 N 
HETATM   28  C   UNL     1     -46.926  62.503 -50.794  1.00  0.00     0.150 C 
HETATM   29  C   UNL     1     -46.046  61.568 -51.655  1.00  0.00     0.255 C 
HETATM   30  H   UNL     1     -44.673  63.043 -52.142  1.00  0.00     0.280 HD
BRANCH  27  31
HETATM   31  C   UNL     1     -49.082  63.045 -51.907  1.00  0.00     0.063 A 
HETATM   32  C   UNL     1     -49.438  62.251 -53.005  1.00  0.00     0.032 A 
HETATM   33  C   UNL     1     -50.781  61.952 -53.280  1.00  0.00     0.002 A 
HETATM   34  C   UNL     1     -51.797  62.433 -52.457  1.00  0.00     0.003 A 
HETATM   35  C   UNL     1     -51.475  63.195 -51.341  1.00  0.00     0.039 A 
HETATM   36  C   UNL     1     -50.139  63.471 -51.072  1.00  0.00     0.092 A 
BRANCH  36  37
HETATM   37  O   UNL     1     -49.856  64.124 -49.900  1.00  0.00    -0.358 OA
HETATM   38  H   UNL     1     -50.387  63.653 -49.229  1.00  0.00     0.218 HD
ENDBRANCH  36  37
ENDBRANCH  27  31
ENDBRANCH   1  24
TORSDOF 7
ENDMDL
MODEL 8
REMARK VINA RESULT:      -7.1     20.104     25.050
REMARK  7 active torsions:
REMARK  status: ('A' for Active; 'I' for Inactive)
REMARK    1  A    between atoms: C_3  and  N_4 
REMARK    2  A    between atoms: N_7  and  C_9 
REMARK    3  A    between atoms: N_12  and  C_13 
REMARK    4  A    between atoms: C_16  and  C_17 
REMARK       I    between atoms: C_17  and  N_18 
REMARK    5  A    between atoms: C_20  and  C_21 
REMARK    6  A    between atoms: C_21  and  O_22 
REMARK    7  A    between atoms: C_33  and  O_34 
ROOT
HETATM    1  C   UNL     1     -42.725  57.458 -55.325  1.00  0.00     0.191 C 
HETATM    2  C   UNL     1     -44.193  57.392 -55.781  1.00  0.00     0.053 C 
HETATM    3  C   UNL     1     -45.138  58.078 -54.797  1.00  0.00     0.125 C 
HETATM    4  N   UNL     1     -44.656  59.425 -54.518  1.00  0.00    -0.381 N 
HETATM    5  C   UNL     1     -43.265  59.648 -54.158  1.00  0.00     0.125 C 
HETATM    6  C   UNL     1     -42.343  58.933 -55.135  1.00  0.00     0.053 C 
ENDROOT
BRANCH   4   7
HETATM    7  C   UNL     1     -45.478  60.488 -54.868  1.00  0.00     0.030 A 
HETATM    8  C   UNL     1     -46.033  61.308 -53.873  1.00  0.00     0.030 A 
HETATM    9  C   UNL     1     -46.889  62.365 -54.192  1.00  0.00     0.019 A 
HETATM   10  C   UNL     1     -47.214  62.626 -55.524  1.00  0.00     0.032 A 
HETATM   11  C   UNL     1     -46.694  61.807 -56.528  1.00  0.00     0.019 A 
HETATM   12  C   UNL     1     -45.814  60.766 -56.201  1.00  0.00     0.030 A 
BRANCH  10  13
HETATM   13  C   UNL     1     -48.209  63.688 -55.813  1.00  0.00     0.253 C 
HETATM   14  N   UNL     1     -49.577  63.436 -55.651  1.00  0.00    -0.348 N 
HETATM   15  C   UNL     1     -50.173  62.115 -55.882  1.00  0.00     0.132 C 
HETATM   16  C   UNL     1     -50.473  64.566 -55.902  1.00  0.00     0.126 C 
HETATM   17  C   UNL     1     -51.476  61.921 -55.095  1.00  0.00     0.027 C 
HETATM   18  C   UNL     1     -52.444  63.081 -55.377  1.00  0.00     0.010 C 
HETATM   19  C   UNL     1     -51.788  64.440 -55.142  1.00  0.00     0.020 C 
HETATM   20  O   UNL     1     -47.765  64.782 -56.160  1.00  0.00    -0.267 OA
BRANCH  17  21
HETATM   21  C   UNL     1     -51.178  61.744 -53.599  1.00  0.00     0.170 C 
BRANCH  21  22
HETATM   22  O   UNL     1     -52.101  60.852 -52.989  1.00  0.00    -0.400 OA
HETATM   23  H   UNL     1     -52.311  60.146 -53.623  1.00  0.00     0.209 HD
ENDBRANCH  21  22
ENDBRANCH  17  21
ENDBRANCH  10  13
ENDBRANCH   4   7
BRANCH   1  24
HETATM   24  N   UNL     1     -42.497  56.607 -54.058  1.00  0.00    -0.064 N 
HETATM   25  C   UNL     1     -43.107  55.193 -54.189  1.00  0.00     0.255 C 
HETATM   26  C   UNL     1     -43.008  54.431 -52.854  1.00  0.00     0.150 C 
HETATM   27  N   UNL     1     -41.614  54.360 -52.360  1.00  0.00    -0.375 N 
HETATM   28  C   UNL     1     -40.899  55.647 -52.325  1.00  0.00     0.150 C 
HETATM   29  C   UNL     1     -41.025  56.449 -53.642  1.00  0.00     0.255 C 
HETATM   30  H   UNL     1     -42.969  57.066 -53.268  1.00  0.00     0.280 HD
BRANCH  27  31
HETATM   31  C   UNL     1     -40.921  53.192 -52.719  1.00  0.00     0.063 A 
HETATM   32  C   UNL     1     -40.879  52.673 -54.019  1.00  0.00     0.032 A 
HETATM   33  C   UNL     1     -40.198  51.480 -54.302  1.00  0.00     0.002 A 
HETATM   34  C   UNL     1     -39.534  50.785 -53.293  1.00  0.00     0.003 A 
HETATM   35  C   UNL     1     -39.528  51.292 -51.999  1.00  0.00     0.039 A 
HETATM   36  C   UNL     1     -40.195  52.483 -51.736  1.00  0.00     0.092 A 
BRANCH  36  37
HETATM   37  O   UNL     1     -40.066  53.010 -50.476  1.00  0.00    -0.358 OA
HETATM   38  H   UNL     1     -39.804  52.249 -49.924  1.00  0.00     0.218 HD
ENDBRANCH  36  37
ENDBRANCH  27  31
ENDBRANCH   1  24
TORSDOF 7
ENDMDL
MODEL 9
REMARK VINA RESULT:      -7.1     22.382     26.505
REMARK  7 active torsions:
REMARK  status: ('A' for Active; 'I' for Inactive)
REMARK    1  A    between atoms: C_3  and  N_4 
REMARK    2  A    between atoms: N_7  and  C_9 
REMARK    3  A    between atoms: N_12  and  C_13 
REMARK    4  A    between atoms: C_16  and  C_17 
REMARK       I    between atoms: C_17  and  N_18 
REMARK    5  A    between atoms: C_20  and  C_21 
REMARK    6  A    between atoms: C_21  and  O_22 
REMARK    7  A    between atoms: C_33  and  O_34 
ROOT
HETATM    1  C   UNL     1     -43.711  61.125 -49.473  1.00  0.00     0.191 C 
HETATM    2  C   UNL     1     -44.195  59.916 -50.292  1.00  0.00     0.053 C 
HETATM    3  C   UNL     1     -44.888  60.332 -51.587  1.00  0.00     0.125 C 
HETATM    4  N   UNL     1     -44.030  61.253 -52.324  1.00  0.00    -0.381 N 
HETATM    5  C   UNL     1     -43.431  62.396 -51.655  1.00  0.00     0.125 C 
HETATM    6  C   UNL     1     -42.771  61.962 -50.354  1.00  0.00     0.053 C 
ENDROOT
BRANCH   4   7
HETATM    7  C   UNL     1     -43.593  60.858 -53.582  1.00  0.00     0.030 A 
HETATM    8  C   UNL     1     -42.385  60.157 -53.721  1.00  0.00     0.030 A 
HETATM    9  C   UNL     1     -41.903  59.774 -54.976  1.00  0.00     0.019 A 
HETATM   10  C   UNL     1     -42.623  60.091 -56.129  1.00  0.00     0.032 A 
HETATM   11  C   UNL     1     -43.814  60.811 -56.015  1.00  0.00     0.019 A 
HETATM   12  C   UNL     1     -44.303  61.166 -54.751  1.00  0.00     0.030 A 
BRANCH  10  13
HETATM   13  C   UNL     1     -42.025  59.762 -57.446  1.00  0.00     0.253 C 
HETATM   14  N   UNL     1     -42.537  58.706 -58.209  1.00  0.00    -0.348 N 
HETATM   15  C   UNL     1     -43.116  57.499 -57.606  1.00  0.00     0.132 C 
HETATM   16  C   UNL     1     -41.919  58.501 -59.520  1.00  0.00     0.126 C 
HETATM   17  C   UNL     1     -44.116  56.806 -58.542  1.00  0.00     0.027 C 
HETATM   18  C   UNL     1     -43.469  56.549 -59.913  1.00  0.00     0.010 C 
HETATM   19  C   UNL     1     -42.864  57.820 -60.504  1.00  0.00     0.020 C 
HETATM   20  O   UNL     1     -41.099  60.478 -57.827  1.00  0.00    -0.267 OA
BRANCH  17  21
HETATM   21  C   UNL     1     -45.414  57.620 -58.639  1.00  0.00     0.170 C 
BRANCH  21  22
HETATM   22  O   UNL     1     -46.559  56.780 -58.577  1.00  0.00    -0.400 OA
HETATM   23  H   UNL     1     -47.323  57.322 -58.316  1.00  0.00     0.209 HD
ENDBRANCH  21  22
ENDBRANCH  17  21
ENDBRANCH  10  13
ENDBRANCH   4   7
BRANCH   1  24
HETATM   24  N   UNL     1     -44.901  61.936 -48.921  1.00  0.00    -0.064 N 
HETATM   25  C   UNL     1     -45.466  61.327 -47.617  1.00  0.00     0.255 C 
HETATM   26  C   UNL     1     -46.750  62.059 -47.184  1.00  0.00     0.150 C 
HETATM   27  N   UNL     1     -46.531  63.516 -47.033  1.00  0.00    -0.375 N 
HETATM   28  C   UNL     1     -45.872  64.168 -48.177  1.00  0.00     0.150 C 
HETATM   29  C   UNL     1     -44.605  63.422 -48.656  1.00  0.00     0.255 C 
HETATM   30  H   UNL     1     -45.659  61.916 -49.614  1.00  0.00     0.280 HD
BRANCH  27  31
HETATM   31  C   UNL     1     -46.226  63.933 -45.727  1.00  0.00     0.063 A 
HETATM   32  C   UNL     1     -44.937  64.262 -45.290  1.00  0.00     0.032 A 
HETATM   33  C   UNL     1     -44.695  64.637 -43.960  1.00  0.00     0.002 A 
HETATM   34  C   UNL     1     -45.740  64.700 -43.040  1.00  0.00     0.003 A 
HETATM   35  C   UNL     1     -47.036  64.412 -43.451  1.00  0.00     0.039 A 
HETATM   36  C   UNL     1     -47.262  64.057 -44.775  1.00  0.00     0.092 A 
BRANCH  36  37
HETATM   37  O   UNL     1     -48.567  63.897 -45.168  1.00  0.00    -0.358 OA
HETATM   38  H   UNL     1     -48.865  64.801 -45.382  1.00  0.00     0.218 HD
ENDBRANCH  36  37
ENDBRANCH  27  31
ENDBRANCH   1  24
TORSDOF 7
ENDMDL
MODEL 10
REMARK VINA RESULT:      -7.1     17.457     22.999
REMARK  7 active torsions:
REMARK  status: ('A' for Active; 'I' for Inactive)
REMARK    1  A    between atoms: C_3  and  N_4 
REMARK    2  A    between atoms: N_7  and  C_9 
REMARK    3  A    between atoms: N_12  and  C_13 
REMARK    4  A    between atoms: C_16  and  C_17 
REMARK       I    between atoms: C_17  and  N_18 
REMARK    5  A    between atoms: C_20  and  C_21 
REMARK    6  A    between atoms: C_21  and  O_22 
REMARK    7  A    between atoms: C_33  and  O_34 
ROOT
HETATM    1  C   UNL     1     -43.139  57.918 -51.346  1.00  0.00     0.191 C 
HETATM    2  C   UNL     1     -42.054  58.655 -52.151  1.00  0.00     0.053 C 
HETATM    3  C   UNL     1     -41.671  57.910 -53.427  1.00  0.00     0.125 C 
HETATM    4  N   UNL     1     -42.874  57.597 -54.188  1.00  0.00    -0.381 N 
HETATM    5  C   UNL     1     -44.016  56.976 -53.536  1.00  0.00     0.125 C 
HETATM    6  C   UNL     1     -44.362  57.719 -52.253  1.00  0.00     0.053 C 
ENDROOT
BRANCH   4   7
HETATM    7  C   UNL     1     -42.995  58.149 -55.457  1.00  0.00     0.030 A 
HETATM    8  C   UNL     1     -43.702  59.348 -55.640  1.00  0.00     0.030 A 
HETATM    9  C   UNL     1     -43.868  59.911 -56.909  1.00  0.00     0.019 A 
HETATM   10  C   UNL     1     -43.330  59.279 -58.031  1.00  0.00     0.032 A 
HETATM   11  C   UNL     1     -42.646  58.071 -57.874  1.00  0.00     0.019 A 
HETATM   12  C   UNL     1     -42.461  57.529 -56.596  1.00  0.00     0.030 A 
BRANCH  10  13
HETATM   13  C   UNL     1     -43.620  59.851 -59.369  1.00  0.00     0.253 C 
HETATM   14  N   UNL     1     -44.891  59.706 -59.937  1.00  0.00    -0.348 N 
HETATM   15  C   UNL     1     -45.736  58.530 -59.701  1.00  0.00     0.132 C 
HETATM   16  C   UNL     1     -45.094  60.358 -61.233  1.00  0.00     0.126 C 
HETATM   17  C   UNL     1     -47.227  58.841 -59.890  1.00  0.00     0.027 C 
HETATM   18  C   UNL     1     -47.464  59.492 -61.263  1.00  0.00     0.010 C 
HETATM   19  C   UNL     1     -46.558  60.701 -61.482  1.00  0.00     0.020 C 
HETATM   20  O   UNL     1     -42.707  60.470 -59.915  1.00  0.00    -0.267 OA
BRANCH  17  21
HETATM   21  C   UNL     1     -47.750  59.696 -58.727  1.00  0.00     0.170 C 
BRANCH  21  22
HETATM   22  O   UNL     1     -47.736  58.973 -57.504  1.00  0.00    -0.400 OA
HETATM   23  H   UNL     1     -46.858  59.073 -57.099  1.00  0.00     0.209 HD
ENDBRANCH  21  22
ENDBRANCH  17  21
ENDBRANCH  10  13
ENDBRANCH   4   7
BRANCH   1  24
HETATM   24  N   UNL     1     -42.598  56.597 -50.763  1.00  0.00    -0.064 N 
HETATM   25  C   UNL     1     -43.223  55.359 -51.447  1.00  0.00     0.255 C 
HETATM   26  C   UNL     1     -42.789  54.065 -50.733  1.00  0.00     0.150 C 
HETATM   27  N   UNL     1     -41.316  53.940 -50.662  1.00  0.00    -0.375 N 
HETATM   28  C   UNL     1     -40.614  55.127 -50.144  1.00  0.00     0.150 C 
HETATM   29  C   UNL     1     -41.068  56.443 -50.817  1.00  0.00     0.255 C 
HETATM   30  H   UNL     1     -42.854  56.551 -49.768  1.00  0.00     0.280 HD
BRANCH  27  31
HETATM   31  C   UNL     1     -40.738  53.191 -51.700  1.00  0.00     0.063 A 
HETATM   32  C   UNL     1     -40.634  53.634 -53.023  1.00  0.00     0.032 A 
HETATM   33  C   UNL     1     -40.077  52.820 -54.020  1.00  0.00     0.002 A 
HETATM   34  C   UNL     1     -39.604  51.545 -53.713  1.00  0.00     0.003 A 
HETATM   35  C   UNL     1     -39.663  51.089 -52.402  1.00  0.00     0.039 A 
HETATM   36  C   UNL     1     -40.203  51.913 -51.422  1.00  0.00     0.092 A 
BRANCH  36  37
HETATM   37  O   UNL     1     -40.134  51.474 -50.124  1.00  0.00    -0.358 OA
HETATM   38  H   UNL     1     -39.870  50.538 -50.202  1.00  0.00     0.218 HD
ENDBRANCH  36  37
ENDBRANCH  27  31
ENDBRANCH   1  24
TORSDOF 7
ENDMDL
