MODEL 1
REMARK VINA RESULT:      -8.9      0.000      0.000
REMARK  3 active torsions:
REMARK  status: ('A' for Active; 'I' for Inactive)
REMARK    1  A    between atoms: C_3  and  C_4 
REMARK    2  A    between atoms: C_8  and  C_9 
REMARK       I    between atoms: C_9  and  N_10 
REMARK    3  A    between atoms: N_10  and  N_11 
ROOT
HETATM    1  C   UNL     1     -42.983  55.832 -56.007  1.00  0.00     0.289 C 
HETATM    2  N   UNL     1     -42.932  55.967 -57.385  1.00  0.00    -0.241 N 
HETATM    3  O   UNL     1     -43.761  56.446 -55.281  1.00  0.00    -0.264 OA
HETATM    4  H   UNL     1     -42.246  55.450 -57.933  1.00  0.00     0.192 HD
ENDROOT
BRANCH   1   5
HETATM    5  C   UNL     1     -42.028  54.902 -55.457  1.00  0.00     0.121 A 
HETATM    6  N   UNL     1     -40.687  55.070 -55.652  1.00  0.00    -0.272 N 
HETATM    7  N   UNL     1     -39.923  54.131 -55.074  1.00  0.00    -0.174 NA
HETATM    8  H   UNL     1     -40.241  55.820 -56.172  1.00  0.00     0.189 HD
HETATM    9  C   UNL     1     -40.799  53.292 -54.497  1.00  0.00     0.091 A 
HETATM   10  C   UNL     1     -42.131  53.757 -54.692  1.00  0.00     0.071 A 
BRANCH   9  11
HETATM   11  C   UNL     1     -40.336  52.123 -53.746  1.00  0.00     0.016 A 
HETATM   12  C   UNL     1     -40.249  50.893 -54.427  1.00  0.00     0.015 A 
HETATM   13  C   UNL     1     -39.806  49.737 -53.780  1.00  0.00     0.001 A 
HETATM   14  C   UNL     1     -39.445  49.788 -52.438  1.00  0.00     0.002 A 
HETATM   15  C   UNL     1     -39.535  50.995 -51.744  1.00  0.00     0.025 A 
HETATM   16  C   UNL     1     -39.981  52.158 -52.388  1.00  0.00     0.046 A 
HETATM   17 CL   UNL     1     -40.110  53.580 -51.408  1.00  0.00    -0.083 Cl
ENDBRANCH   9  11
ENDBRANCH   1   5
BRANCH   2  18
HETATM   18  N   UNL     1     -43.771  56.838 -58.028  1.00  0.00    -0.165 NA
HETATM   19  C   UNL     1     -44.594  56.323 -58.884  1.00  0.00     0.157 A 
HETATM   20  C   UNL     1     -44.761  54.852 -59.278  1.00  0.00     0.277 A 
HETATM   21  C   UNL     1     -45.563  57.062 -59.682  1.00  0.00     0.027 A 
HETATM   22  O   UNL     1     -44.119  53.935 -58.810  1.00  0.00    -0.266 OA
HETATM   23  N   UNL     1     -45.756  54.835 -60.231  1.00  0.00    -0.321 N 
HETATM   24  C   UNL     1     -46.227  56.123 -60.471  1.00  0.00     0.048 A 
HETATM   25  H   UNL     1     -46.082  53.991 -60.681  1.00  0.00     0.169 HD
HETATM   26  C   UNL     1     -47.216  56.502 -61.353  1.00  0.00     0.030 A 
HETATM   27  C   UNL     1     -47.525  57.868 -61.423  1.00  0.00     0.002 A 
HETATM   28  C   UNL     1     -46.848  58.812 -60.622  1.00  0.00     0.001 A 
HETATM   29  C   UNL     1     -45.849  58.410 -59.733  1.00  0.00     0.016 A 
ENDBRANCH   2  18
TORSDOF 3
ENDMDL
MODEL 2
REMARK VINA RESULT:      -8.8      4.631      6.558
REMARK  3 active torsions:
REMARK  status: ('A' for Active; 'I' for Inactive)
REMARK    1  A    between atoms: C_3  and  C_4 
REMARK    2  A    between atoms: C_8  and  C_9 
REMARK       I    between atoms: C_9  and  N_10 
REMARK    3  A    between atoms: N_10  and  N_11 
ROOT
HETATM    1  C   UNL     1     -42.075  56.834 -54.278  1.00  0.00     0.289 C 
HETATM    2  N   UNL     1     -41.335  57.885 -53.762  1.00  0.00    -0.241 N 
HETATM    3  O   UNL     1     -43.216  56.944 -54.720  1.00  0.00    -0.264 OA
HETATM    4  H   UNL     1     -40.401  57.727 -53.385  1.00  0.00     0.192 HD
ENDROOT
BRANCH   1   5
HETATM    5  C   UNL     1     -41.406  55.556 -54.256  1.00  0.00     0.121 A 
HETATM    6  N   UNL     1     -40.499  55.219 -55.220  1.00  0.00    -0.272 N 
HETATM    7  N   UNL     1     -39.954  54.004 -55.064  1.00  0.00    -0.174 NA
HETATM    8  H   UNL     1     -40.212  55.793 -56.007  1.00  0.00     0.189 HD
HETATM    9  C   UNL     1     -40.548  53.506 -53.967  1.00  0.00     0.091 A 
HETATM   10  C   UNL     1     -41.447  54.463 -53.415  1.00  0.00     0.071 A 
BRANCH   9  11
HETATM   11  C   UNL     1     -40.201  52.175 -53.463  1.00  0.00     0.016 A 
HETATM   12  C   UNL     1     -40.291  51.088 -54.353  1.00  0.00     0.015 A 
HETATM   13  C   UNL     1     -39.967  49.791 -53.948  1.00  0.00     0.001 A 
HETATM   14  C   UNL     1     -39.548  49.557 -52.643  1.00  0.00     0.002 A 
HETATM   15  C   UNL     1     -39.463  50.620 -51.743  1.00  0.00     0.025 A 
HETATM   16  C   UNL     1     -39.790  51.923 -52.144  1.00  0.00     0.046 A 
HETATM   17 CL   UNL     1     -39.705  53.148 -50.923  1.00  0.00    -0.083 Cl
ENDBRANCH   9  11
ENDBRANCH   1   5
BRANCH   2  18
HETATM   18  N   UNL     1     -41.866  59.145 -53.704  1.00  0.00    -0.165 NA
HETATM   19  C   UNL     1     -42.101  59.621 -52.524  1.00  0.00     0.157 A 
HETATM   20  C   UNL     1     -41.858  58.958 -51.164  1.00  0.00     0.277 A 
HETATM   21  C   UNL     1     -42.668  60.931 -52.233  1.00  0.00     0.027 A 
HETATM   22  O   UNL     1     -41.385  57.852 -51.011  1.00  0.00    -0.266 OA
HETATM   23  N   UNL     1     -42.284  59.873 -50.226  1.00  0.00    -0.321 N 
HETATM   24  C   UNL     1     -42.758  61.027 -50.845  1.00  0.00     0.048 A 
HETATM   25  H   UNL     1     -42.248  59.707 -49.230  1.00  0.00     0.169 HD
HETATM   26  C   UNL     1     -43.264  62.155 -50.238  1.00  0.00     0.030 A 
HETATM   27  C   UNL     1     -43.683  63.201 -51.072  1.00  0.00     0.002 A 
HETATM   28  C   UNL     1     -43.589  63.097 -52.476  1.00  0.00     0.001 A 
HETATM   29  C   UNL     1     -43.073  61.946 -53.076  1.00  0.00     0.016 A 
ENDBRANCH   2  18
TORSDOF 3
ENDMDL
MODEL 3
REMARK VINA RESULT:      -8.4      3.354      4.519
REMARK  3 active torsions:
REMARK  status: ('A' for Active; 'I' for Inactive)
REMARK    1  A    between atoms: C_3  and  C_4 
REMARK    2  A    between atoms: C_8  and  C_9 
REMARK       I    between atoms: C_9  and  N_10 
REMARK    3  A    between atoms: N_10  and  N_11 
ROOT
HETATM    1  C   UNL     1     -42.740  56.005 -57.396  1.00  0.00     0.289 C 
HETATM    2  N   UNL     1     -42.071  57.204 -57.578  1.00  0.00    -0.241 N 
HETATM    3  O   UNL     1     -43.426  55.460 -58.257  1.00  0.00    -0.264 OA
HETATM    4  H   UNL     1     -41.537  57.622 -56.818  1.00  0.00     0.192 HD
ENDROOT
BRANCH   1   5
HETATM    5  C   UNL     1     -42.584  55.420 -56.087  1.00  0.00     0.121 A 
HETATM    6  N   UNL     1     -43.665  54.968 -55.385  1.00  0.00    -0.272 N 
HETATM    7  N   UNL     1     -43.364  54.442 -54.188  1.00  0.00    -0.174 NA
HETATM    8  H   UNL     1     -44.635  54.990 -55.686  1.00  0.00     0.189 HD
HETATM    9  C   UNL     1     -42.032  54.580 -54.084  1.00  0.00     0.091 A 
HETATM   10  C   UNL     1     -41.503  55.166 -55.269  1.00  0.00     0.071 A 
BRANCH   9  11
HETATM   11  C   UNL     1     -41.319  54.106 -52.896  1.00  0.00     0.016 A 
HETATM   12  C   UNL     1     -41.376  54.897 -51.732  1.00  0.00     0.015 A 
HETATM   13  C   UNL     1     -40.730  54.505 -50.557  1.00  0.00     0.001 A 
HETATM   14  C   UNL     1     -40.010  53.315 -50.526  1.00  0.00     0.002 A 
HETATM   15  C   UNL     1     -39.932  52.524 -51.673  1.00  0.00     0.025 A 
HETATM   16  C   UNL     1     -40.577  52.914 -52.855  1.00  0.00     0.046 A 
HETATM   17 CL   UNL     1     -40.358  51.883 -54.228  1.00  0.00    -0.083 Cl
ENDBRANCH   9  11
ENDBRANCH   1   5
BRANCH   2  18
HETATM   18  N   UNL     1     -42.158  57.873 -58.770  1.00  0.00    -0.165 NA
HETATM   19  C   UNL     1     -42.013  59.158 -58.724  1.00  0.00     0.157 A 
HETATM   20  C   UNL     1     -41.751  60.044 -57.502  1.00  0.00     0.277 A 
HETATM   21  C   UNL     1     -42.076  60.062 -59.865  1.00  0.00     0.027 A 
HETATM   22  O   UNL     1     -41.631  59.635 -56.367  1.00  0.00    -0.266 OA
HETATM   23  N   UNL     1     -41.689  61.333 -57.985  1.00  0.00    -0.321 N 
HETATM   24  C   UNL     1     -41.879  61.349 -59.365  1.00  0.00     0.048 A 
HETATM   25  H   UNL     1     -41.528  62.141 -57.400  1.00  0.00     0.169 HD
HETATM   26  C   UNL     1     -41.884  62.447 -60.197  1.00  0.00     0.030 A 
HETATM   27  C   UNL     1     -42.095  62.218 -61.564  1.00  0.00     0.002 A 
HETATM   28  C   UNL     1     -42.294  60.913 -62.062  1.00  0.00     0.001 A 
HETATM   29  C   UNL     1     -42.285  59.810 -61.205  1.00  0.00     0.016 A 
ENDBRANCH   2  18
TORSDOF 3
ENDMDL
MODEL 4
REMARK VINA RESULT:      -8.3      5.423      9.686
REMARK  3 active torsions:
REMARK  status: ('A' for Active; 'I' for Inactive)
REMARK    1  A    between atoms: C_3  and  C_4 
REMARK    2  A    between atoms: C_8  and  C_9 
REMARK       I    between atoms: C_9  and  N_10 
REMARK    3  A    between atoms: N_10  and  N_11 
ROOT
HETATM    1  C   UNL     1     -41.429  56.541 -54.090  1.00  0.00     0.289 C 
HETATM    2  N   UNL     1     -40.979  55.540 -53.245  1.00  0.00    -0.241 N 
HETATM    3  O   UNL     1     -41.671  56.381 -55.284  1.00  0.00    -0.264 OA
HETATM    4  H   UNL     1     -40.770  55.739 -52.268  1.00  0.00     0.192 HD
ENDROOT
BRANCH   1   5
HETATM    5  C   UNL     1     -41.593  57.830 -53.464  1.00  0.00     0.121 A 
HETATM    6  N   UNL     1     -40.511  58.598 -53.140  1.00  0.00    -0.272 N 
HETATM    7  N   UNL     1     -40.820  59.774 -52.572  1.00  0.00    -0.174 NA
HETATM    8  H   UNL     1     -39.535  58.364 -53.294  1.00  0.00     0.189 HD
HETATM    9  C   UNL     1     -42.160  59.768 -52.492  1.00  0.00     0.091 A 
HETATM   10  C   UNL     1     -42.684  58.575 -53.067  1.00  0.00     0.071 A 
BRANCH   9  11
HETATM   11  C   UNL     1     -42.884  60.909 -51.925  1.00  0.00     0.016 A 
HETATM   12  C   UNL     1     -43.088  60.935 -50.532  1.00  0.00     0.015 A 
HETATM   13  C   UNL     1     -43.760  61.994 -49.918  1.00  0.00     0.001 A 
HETATM   14  C   UNL     1     -44.244  63.047 -50.687  1.00  0.00     0.002 A 
HETATM   15  C   UNL     1     -44.061  63.034 -52.071  1.00  0.00     0.025 A 
HETATM   16  C   UNL     1     -43.389  61.971 -52.692  1.00  0.00     0.046 A 
HETATM   17 CL   UNL     1     -43.278  62.035 -54.419  1.00  0.00    -0.083 Cl
ENDBRANCH   9  11
ENDBRANCH   1   5
BRANCH   2  18
HETATM   18  N   UNL     1     -40.761  54.275 -53.723  1.00  0.00    -0.165 NA
HETATM   19  C   UNL     1     -40.428  53.377 -52.853  1.00  0.00     0.157 A 
HETATM   20  C   UNL     1     -40.245  53.538 -51.340  1.00  0.00     0.277 A 
HETATM   21  C   UNL     1     -40.142  51.978 -53.142  1.00  0.00     0.027 A 
HETATM   22  O   UNL     1     -40.406  54.576 -50.733  1.00  0.00    -0.266 OA
HETATM   23  N   UNL     1     -39.879  52.293 -50.877  1.00  0.00    -0.321 N 
HETATM   24  C   UNL     1     -39.817  51.379 -51.925  1.00  0.00     0.048 A 
HETATM   25  H   UNL     1     -39.687  52.095 -49.905  1.00  0.00     0.169 HD
HETATM   26  C   UNL     1     -39.488  50.043 -51.852  1.00  0.00     0.030 A 
HETATM   27  C   UNL     1     -39.494  49.313 -53.049  1.00  0.00     0.002 A 
HETATM   28  C   UNL     1     -39.823  49.927 -54.277  1.00  0.00     0.001 A 
HETATM   29  C   UNL     1     -40.155  51.282 -54.333  1.00  0.00     0.016 A 
ENDBRANCH   2  18
TORSDOF 3
ENDMDL
MODEL 5
REMARK VINA RESULT:      -8.2      5.825      6.526
REMARK  3 active torsions:
REMARK  status: ('A' for Active; 'I' for Inactive)
REMARK    1  A    between atoms: C_3  and  C_4 
REMARK    2  A    between atoms: C_8  and  C_9 
REMARK       I    between atoms: C_9  and  N_10 
REMARK    3  A    between atoms: N_10  and  N_11 
ROOT
HETATM    1  C   UNL     1     -42.315  56.620 -50.997  1.00  0.00     0.289 C 
HETATM    2  N   UNL     1     -41.587  57.790 -51.141  1.00  0.00    -0.241 N 
HETATM    3  O   UNL     1     -43.527  56.581 -50.797  1.00  0.00    -0.264 OA
HETATM    4  H   UNL     1     -40.578  57.759 -51.279  1.00  0.00     0.192 HD
ENDROOT
BRANCH   1   5
HETATM    5  C   UNL     1     -41.537  55.409 -51.088  1.00  0.00     0.121 A 
HETATM    6  N   UNL     1     -40.465  55.197 -50.270  1.00  0.00    -0.272 N 
HETATM    7  N   UNL     1     -39.844  54.024 -50.466  1.00  0.00    -0.174 NA
HETATM    8  H   UNL     1     -40.118  55.827 -49.551  1.00  0.00     0.189 HD
HETATM    9  C   UNL     1     -40.519  53.451 -51.476  1.00  0.00     0.091 A 
HETATM   10  C   UNL     1     -41.606  54.278 -51.876  1.00  0.00     0.071 A 
BRANCH   9  11
HETATM   11  C   UNL     1     -40.138  52.129 -51.978  1.00  0.00     0.016 A 
HETATM   12  C   UNL     1     -39.911  51.105 -51.038  1.00  0.00     0.015 A 
HETATM   13  C   UNL     1     -39.554  49.817 -51.441  1.00  0.00     0.001 A 
HETATM   14  C   UNL     1     -39.414  49.528 -52.795  1.00  0.00     0.002 A 
HETATM   15  C   UNL     1     -39.624  50.532 -53.741  1.00  0.00     0.025 A 
HETATM   16  C   UNL     1     -39.980  51.828 -53.341  1.00  0.00     0.046 A 
HETATM   17 CL   UNL     1     -40.153  53.002 -54.601  1.00  0.00    -0.083 Cl
ENDBRANCH   9  11
ENDBRANCH   1   5
BRANCH   2  18
HETATM   18  N   UNL     1     -42.206  59.007 -51.051  1.00  0.00    -0.165 NA
HETATM   19  C   UNL     1     -42.267  59.708 -52.137  1.00  0.00     0.157 A 
HETATM   20  C   UNL     1     -41.737  59.352 -53.530  1.00  0.00     0.277 A 
HETATM   21  C   UNL     1     -42.870  61.028 -52.265  1.00  0.00     0.027 A 
HETATM   22  O   UNL     1     -41.173  58.316 -53.810  1.00  0.00    -0.266 OA
HETATM   23  N   UNL     1     -42.044  60.432 -54.330  1.00  0.00    -0.321 N 
HETATM   24  C   UNL     1     -42.705  61.414 -53.595  1.00  0.00     0.048 A 
HETATM   25  H   UNL     1     -41.810  60.483 -55.311  1.00  0.00     0.169 HD
HETATM   26  C   UNL     1     -43.167  62.630 -54.049  1.00  0.00     0.030 A 
HETATM   27  C   UNL     1     -43.809  63.461 -53.120  1.00  0.00     0.002 A 
HETATM   28  C   UNL     1     -43.972  63.064 -51.776  1.00  0.00     0.001 A 
HETATM   29  C   UNL     1     -43.498  61.827 -51.332  1.00  0.00     0.016 A 
ENDBRANCH   2  18
TORSDOF 3
ENDMDL
MODEL 6
REMARK VINA RESULT:      -8.2      6.455     10.251
REMARK  3 active torsions:
REMARK  status: ('A' for Active; 'I' for Inactive)
REMARK    1  A    between atoms: C_3  and  C_4 
REMARK    2  A    between atoms: C_8  and  C_9 
REMARK       I    between atoms: C_9  and  N_10 
REMARK    3  A    between atoms: N_10  and  N_11 
ROOT
HETATM    1  C   UNL     1     -43.671  57.372 -52.586  1.00  0.00     0.289 C 
HETATM    2  N   UNL     1     -43.699  56.050 -52.174  1.00  0.00    -0.241 N 
HETATM    3  O   UNL     1     -43.087  57.769 -53.592  1.00  0.00    -0.264 OA
HETATM    4  H   UNL     1     -44.179  55.784 -51.316  1.00  0.00     0.192 HD
ENDROOT
BRANCH   1   5
HETATM    5  C   UNL     1     -44.384  58.287 -51.730  1.00  0.00     0.121 A 
HETATM    6  N   UNL     1     -45.232  57.830 -50.762  1.00  0.00    -0.272 N 
HETATM    7  N   UNL     1     -45.818  58.797 -50.040  1.00  0.00    -0.174 NA
HETATM    8  H   UNL     1     -45.440  56.858 -50.549  1.00  0.00     0.189 HD
HETATM    9  C   UNL     1     -45.359  59.941 -50.574  1.00  0.00     0.091 A 
HETATM   10  C   UNL     1     -44.435  59.662 -51.620  1.00  0.00     0.071 A 
BRANCH   9  11
HETATM   11  C   UNL     1     -45.773  61.239 -50.037  1.00  0.00     0.016 A 
HETATM   12  C   UNL     1     -45.290  61.614 -48.768  1.00  0.00     0.015 A 
HETATM   13  C   UNL     1     -45.633  62.840 -48.195  1.00  0.00     0.001 A 
HETATM   14  C   UNL     1     -46.469  63.715 -48.880  1.00  0.00     0.002 A 
HETATM   15  C   UNL     1     -46.968  63.357 -50.133  1.00  0.00     0.025 A 
HETATM   16  C   UNL     1     -46.628  62.126 -50.711  1.00  0.00     0.046 A 
HETATM   17 CL   UNL     1     -47.356  61.767 -52.241  1.00  0.00    -0.083 Cl
ENDBRANCH   9  11
ENDBRANCH   1   5
BRANCH   2  18
HETATM   18  N   UNL     1     -43.040  55.086 -52.888  1.00  0.00    -0.165 NA
HETATM   19  C   UNL     1     -42.136  54.411 -52.253  1.00  0.00     0.157 A 
HETATM   20  C   UNL     1     -41.701  54.545 -50.791  1.00  0.00     0.277 A 
HETATM   21  C   UNL     1     -41.313  53.350 -52.819  1.00  0.00     0.027 A 
HETATM   22  O   UNL     1     -42.175  55.331 -49.999  1.00  0.00    -0.266 OA
HETATM   23  N   UNL     1     -40.703  53.610 -50.614  1.00  0.00    -0.321 N 
HETATM   24  C   UNL     1     -40.473  52.910 -51.796  1.00  0.00     0.048 A 
HETATM   25  H   UNL     1     -40.220  53.470 -49.739  1.00  0.00     0.169 HD
HETATM   26  C   UNL     1     -39.557  51.903 -52.008  1.00  0.00     0.030 A 
HETATM   27  C   UNL     1     -39.505  51.340 -53.291  1.00  0.00     0.002 A 
HETATM   28  C   UNL     1     -40.358  51.792 -54.321  1.00  0.00     0.001 A 
HETATM   29  C   UNL     1     -41.281  52.814 -54.089  1.00  0.00     0.016 A 
ENDBRANCH   2  18
TORSDOF 3
ENDMDL
MODEL 7
REMARK VINA RESULT:      -8.1      7.473     10.304
REMARK  3 active torsions:
REMARK  status: ('A' for Active; 'I' for Inactive)
REMARK    1  A    between atoms: C_3  and  C_4 
REMARK    2  A    between atoms: C_8  and  C_9 
REMARK       I    between atoms: C_9  and  N_10 
REMARK    3  A    between atoms: N_10  and  N_11 
ROOT
HETATM    1  C   UNL     1     -43.166  59.228 -51.510  1.00  0.00     0.289 C 
HETATM    2  N   UNL     1     -43.451  57.951 -51.965  1.00  0.00    -0.241 N 
HETATM    3  O   UNL     1     -42.176  59.874 -51.843  1.00  0.00    -0.264 OA
HETATM    4  H   UNL     1     -44.276  57.453 -51.633  1.00  0.00     0.192 HD
ENDROOT
BRANCH   1   5
HETATM    5  C   UNL     1     -44.130  59.768 -50.583  1.00  0.00     0.121 A 
HETATM    6  N   UNL     1     -45.167  59.008 -50.123  1.00  0.00    -0.272 N 
HETATM    7  N   UNL     1     -45.977  59.642 -49.262  1.00  0.00    -0.174 NA
HETATM    8  H   UNL     1     -45.362  58.040 -50.364  1.00  0.00     0.189 HD
HETATM    9  C   UNL     1     -45.469  60.883 -49.173  1.00  0.00     0.091 A 
HETATM   10  C   UNL     1     -44.293  60.992 -49.968  1.00  0.00     0.071 A 
BRANCH   9  11
HETATM   11  C   UNL     1     -46.086  61.887 -48.304  1.00  0.00     0.016 A 
HETATM   12  C   UNL     1     -46.954  62.827 -48.893  1.00  0.00     0.015 A 
HETATM   13  C   UNL     1     -47.587  63.808 -48.128  1.00  0.00     0.001 A 
HETATM   14  C   UNL     1     -47.363  63.870 -46.756  1.00  0.00     0.002 A 
HETATM   15  C   UNL     1     -46.498  62.954 -46.156  1.00  0.00     0.025 A 
HETATM   16  C   UNL     1     -45.857  61.969 -46.921  1.00  0.00     0.046 A 
HETATM   17 CL   UNL     1     -44.761  60.929 -46.075  1.00  0.00    -0.083 Cl
ENDBRANCH   9  11
ENDBRANCH   1   5
BRANCH   2  18
HETATM   18  N   UNL     1     -42.602  57.317 -52.831  1.00  0.00    -0.165 NA
HETATM   19  C   UNL     1     -42.452  56.042 -52.666  1.00  0.00     0.157 A 
HETATM   20  C   UNL     1     -43.108  55.133 -51.621  1.00  0.00     0.277 A 
HETATM   21  C   UNL     1     -41.595  55.176 -53.465  1.00  0.00     0.027 A 
HETATM   22  O   UNL     1     -43.896  55.508 -50.779  1.00  0.00    -0.266 OA
HETATM   23  N   UNL     1     -42.610  53.871 -51.864  1.00  0.00    -0.321 N 
HETATM   24  C   UNL     1     -41.726  53.891 -52.940  1.00  0.00     0.048 A 
HETATM   25  H   UNL     1     -42.867  53.058 -51.322  1.00  0.00     0.169 HD
HETATM   26  C   UNL     1     -41.034  52.826 -53.474  1.00  0.00     0.030 A 
HETATM   27  C   UNL     1     -40.195  53.088 -54.566  1.00  0.00     0.002 A 
HETATM   28  C   UNL     1     -40.067  54.391 -55.092  1.00  0.00     0.001 A 
HETATM   29  C   UNL     1     -40.776  55.460 -54.538  1.00  0.00     0.016 A 
ENDBRANCH   2  18
TORSDOF 3
ENDMDL
MODEL 8
REMARK VINA RESULT:      -8.1      3.613      9.501
REMARK  3 active torsions:
REMARK  status: ('A' for Active; 'I' for Inactive)
REMARK    1  A    between atoms: C_3  and  C_4 
REMARK    2  A    between atoms: C_8  and  C_9 
REMARK       I    between atoms: C_9  and  N_10 
REMARK    3  A    between atoms: N_10  and  N_11 
ROOT
HETATM    1  C   UNL     1     -42.164  55.209 -55.956  1.00  0.00     0.289 C 
HETATM    2  N   UNL     1     -40.873  54.856 -55.600  1.00  0.00    -0.241 N 
HETATM    3  O   UNL     1     -43.105  54.421 -56.012  1.00  0.00    -0.264 OA
HETATM    4  H   UNL     1     -40.127  55.550 -55.597  1.00  0.00     0.192 HD
ENDROOT
BRANCH   1   5
HETATM    5  C   UNL     1     -42.342  56.603 -56.277  1.00  0.00     0.121 A 
HETATM    6  N   UNL     1     -42.598  57.524 -55.300  1.00  0.00    -0.272 N 
HETATM    7  N   UNL     1     -42.732  58.781 -55.748  1.00  0.00    -0.174 NA
HETATM    8  H   UNL     1     -42.685  57.341 -54.305  1.00  0.00     0.189 HD
HETATM    9  C   UNL     1     -42.586  58.681 -57.080  1.00  0.00     0.091 A 
HETATM   10  C   UNL     1     -42.313  57.333 -57.447  1.00  0.00     0.071 A 
BRANCH   9  11
HETATM   11  C   UNL     1     -42.660  59.869 -57.934  1.00  0.00     0.016 A 
HETATM   12  C   UNL     1     -41.511  60.675 -58.044  1.00  0.00     0.015 A 
HETATM   13  C   UNL     1     -41.501  61.818 -58.847  1.00  0.00     0.001 A 
HETATM   14  C   UNL     1     -42.644  62.178 -59.554  1.00  0.00     0.002 A 
HETATM   15  C   UNL     1     -43.796  61.398 -59.449  1.00  0.00     0.025 A 
HETATM   16  C   UNL     1     -43.811  60.251 -58.642  1.00  0.00     0.046 A 
HETATM   17 CL   UNL     1     -45.315  59.399 -58.543  1.00  0.00    -0.083 Cl
ENDBRANCH   9  11
ENDBRANCH   1   5
BRANCH   2  18
HETATM   18  N   UNL     1     -40.568  53.556 -55.296  1.00  0.00    -0.165 NA
HETATM   19  C   UNL     1     -40.434  53.272 -54.040  1.00  0.00     0.157 A 
HETATM   20  C   UNL     1     -40.577  54.204 -52.832  1.00  0.00     0.277 A 
HETATM   21  C   UNL     1     -40.105  51.961 -53.495  1.00  0.00     0.027 A 
HETATM   22  O   UNL     1     -40.854  55.383 -52.900  1.00  0.00    -0.266 OA
HETATM   23  N   UNL     1     -40.327  53.419 -51.728  1.00  0.00    -0.321 N 
HETATM   24  C   UNL     1     -40.051  52.109 -52.110  1.00  0.00     0.048 A 
HETATM   25  H   UNL     1     -40.347  53.769 -50.780  1.00  0.00     0.169 HD
HETATM   26  C   UNL     1     -39.755  51.042 -51.289  1.00  0.00     0.030 A 
HETATM   27  C   UNL     1     -39.512  49.806 -51.904  1.00  0.00     0.002 A 
HETATM   28  C   UNL     1     -39.568  49.665 -53.307  1.00  0.00     0.001 A 
HETATM   29  C   UNL     1     -39.870  50.757 -54.124  1.00  0.00     0.016 A 
ENDBRANCH   2  18
TORSDOF 3
ENDMDL
MODEL 9
REMARK VINA RESULT:      -8.1      6.378     10.239
REMARK  3 active torsions:
REMARK  status: ('A' for Active; 'I' for Inactive)
REMARK    1  A    between atoms: C_3  and  C_4 
REMARK    2  A    between atoms: C_8  and  C_9 
REMARK       I    between atoms: C_9  and  N_10 
REMARK    3  A    between atoms: N_10  and  N_11 
ROOT
HETATM    1  C   UNL     1     -43.759  57.498 -52.627  1.00  0.00     0.289 C 
HETATM    2  N   UNL     1     -43.834  56.176 -52.219  1.00  0.00    -0.241 N 
HETATM    3  O   UNL     1     -43.119  57.884 -53.602  1.00  0.00    -0.264 OA
HETATM    4  H   UNL     1     -44.362  55.919 -51.386  1.00  0.00     0.192 HD
ENDROOT
BRANCH   1   5
HETATM    5  C   UNL     1     -44.497  58.426 -51.806  1.00  0.00     0.121 A 
HETATM    6  N   UNL     1     -45.250  57.991 -50.754  1.00  0.00    -0.272 N 
HETATM    7  N   UNL     1     -45.872  58.969 -50.079  1.00  0.00    -0.174 NA
HETATM    8  H   UNL     1     -45.367  57.029 -50.450  1.00  0.00     0.189 HD
HETATM    9  C   UNL     1     -45.537  60.095 -50.732  1.00  0.00     0.091 A 
HETATM   10  C   UNL     1     -44.653  59.797 -51.807  1.00  0.00     0.071 A 
BRANCH   9  11
HETATM   11  C   UNL     1     -46.025  61.399 -50.278  1.00  0.00     0.016 A 
HETATM   12  C   UNL     1     -46.831  62.145 -51.160  1.00  0.00     0.015 A 
HETATM   13  C   UNL     1     -47.342  63.393 -50.795  1.00  0.00     0.001 A 
HETATM   14  C   UNL     1     -47.054  63.920 -49.540  1.00  0.00     0.002 A 
HETATM   15  C   UNL     1     -46.248  63.201 -48.657  1.00  0.00     0.025 A 
HETATM   16  C   UNL     1     -45.730  61.949 -49.020  1.00  0.00     0.046 A 
HETATM   17 CL   UNL     1     -44.694  61.180 -47.866  1.00  0.00    -0.083 Cl
ENDBRANCH   9  11
ENDBRANCH   1   5
BRANCH   2  18
HETATM   18  N   UNL     1     -43.159  55.200 -52.901  1.00  0.00    -0.165 NA
HETATM   19  C   UNL     1     -42.247  54.560 -52.243  1.00  0.00     0.157 A 
HETATM   20  C   UNL     1     -41.816  54.747 -50.785  1.00  0.00     0.277 A 
HETATM   21  C   UNL     1     -41.407  53.494 -52.773  1.00  0.00     0.027 A 
HETATM   22  O   UNL     1     -42.304  55.551 -50.019  1.00  0.00    -0.266 OA
HETATM   23  N   UNL     1     -40.806  53.833 -50.577  1.00  0.00    -0.321 N 
HETATM   24  C   UNL     1     -40.563  53.099 -51.735  1.00  0.00     0.048 A 
HETATM   25  H   UNL     1     -40.322  53.729 -49.697  1.00  0.00     0.169 HD
HETATM   26  C   UNL     1     -39.631  52.100 -51.913  1.00  0.00     0.030 A 
HETATM   27  C   UNL     1     -39.568  51.497 -53.177  1.00  0.00     0.002 A 
HETATM   28  C   UNL     1     -40.425  51.902 -54.222  1.00  0.00     0.001 A 
HETATM   29  C   UNL     1     -41.364  52.917 -54.025  1.00  0.00     0.016 A 
ENDBRANCH   2  18
TORSDOF 3
ENDMDL
MODEL 10
REMARK VINA RESULT:      -8.0      6.438     10.196
REMARK  3 active torsions:
REMARK  status: ('A' for Active; 'I' for Inactive)
REMARK    1  A    between atoms: C_3  and  C_4 
REMARK    2  A    between atoms: C_8  and  C_9 
REMARK       I    between atoms: C_9  and  N_10 
REMARK    3  A    between atoms: N_10  and  N_11 
ROOT
HETATM    1  C   UNL     1     -41.779  58.391 -52.866  1.00  0.00     0.289 C 
HETATM    2  N   UNL     1     -42.444  57.181 -52.769  1.00  0.00    -0.241 N 
HETATM    3  O   UNL     1     -40.690  58.539 -53.417  1.00  0.00    -0.264 OA
HETATM    4  H   UNL     1     -43.334  57.116 -52.276  1.00  0.00     0.192 HD
ENDROOT
BRANCH   1   5
HETATM    5  C   UNL     1     -42.458  59.505 -52.252  1.00  0.00     0.121 A 
HETATM    6  N   UNL     1     -43.636  59.977 -52.757  1.00  0.00    -0.272 N 
HETATM    7  N   UNL     1     -44.153  61.011 -52.076  1.00  0.00    -0.174 NA
HETATM    8  H   UNL     1     -44.133  59.620 -53.567  1.00  0.00     0.189 HD
HETATM    9  C   UNL     1     -43.264  61.250 -51.098  1.00  0.00     0.091 A 
HETATM   10  C   UNL     1     -42.199  60.307 -51.159  1.00  0.00     0.071 A 
BRANCH   9  11
HETATM   11  C   UNL     1     -43.489  62.320 -50.124  1.00  0.00     0.016 A 
HETATM   12  C   UNL     1     -42.694  63.479 -50.221  1.00  0.00     0.015 A 
HETATM   13  C   UNL     1     -42.857  64.546 -49.334  1.00  0.00     0.001 A 
HETATM   14  C   UNL     1     -43.817  64.472 -48.330  1.00  0.00     0.002 A 
HETATM   15  C   UNL     1     -44.606  63.327 -48.211  1.00  0.00     0.025 A 
HETATM   16  C   UNL     1     -44.445  62.253 -49.097  1.00  0.00     0.046 A 
HETATM   17 CL   UNL     1     -45.438  60.864 -48.812  1.00  0.00    -0.083 Cl
ENDBRANCH   9  11
ENDBRANCH   1   5
BRANCH   2  18
HETATM   18  N   UNL     1     -41.894  56.042 -53.291  1.00  0.00    -0.165 NA
HETATM   19  C   UNL     1     -41.414  55.189 -52.444  1.00  0.00     0.157 A 
HETATM   20  C   UNL     1     -41.382  55.282 -50.915  1.00  0.00     0.277 A 
HETATM   21  C   UNL     1     -40.779  53.922 -52.780  1.00  0.00     0.027 A 
HETATM   22  O   UNL     1     -41.831  56.206 -50.270  1.00  0.00    -0.266 OA
HETATM   23  N   UNL     1     -40.758  54.130 -50.487  1.00  0.00    -0.321 N 
HETATM   24  C   UNL     1     -40.404  53.332 -51.573  1.00  0.00     0.048 A 
HETATM   25  H   UNL     1     -40.592  53.915 -49.514  1.00  0.00     0.169 HD
HETATM   26  C   UNL     1     -39.767  52.111 -51.542  1.00  0.00     0.030 A 
HETATM   27  C   UNL     1     -39.512  51.487 -52.771  1.00  0.00     0.002 A 
HETATM   28  C   UNL     1     -39.894  52.090 -53.988  1.00  0.00     0.001 A 
HETATM   29  C   UNL     1     -40.540  53.329 -54.002  1.00  0.00     0.016 A 
ENDBRANCH   2  18
TORSDOF 3
ENDMDL
