MODEL 1
REMARK VINA RESULT:      -7.3      0.000      0.000
REMARK  4 active torsions:
REMARK  status: ('A' for Active; 'I' for Inactive)
REMARK    1  A    between atoms: C_6  and  C_7 
REMARK    2  A    between atoms: C_7  and  N_8 
REMARK    3  A    between atoms: N_8  and  C_9 
REMARK    4  A    between atoms: C_9  and  C_10 
ROOT
HETATM    1  C   UNL     1     -42.864  54.911 -56.279  1.00  0.00     0.327 C 
ENDROOT
BRANCH   1   2
HETATM    2  N   UNL     1     -41.486  54.913 -55.762  1.00  0.00     0.097 N 
HETATM    3  H   UNL     1     -41.055  54.013 -55.998  1.00  0.00     0.317 HD
BRANCH   2   4
HETATM    4  C   UNL     1     -41.438  54.995 -54.287  1.00  0.00     0.252 C 
HETATM    5  C   UNL     1     -40.643  56.196 -53.773  1.00  0.00     0.048 C 
BRANCH   4   6
HETATM    6  C   UNL     1     -40.862  53.689 -53.814  1.00  0.00     0.006 A 
HETATM    7  C   UNL     1     -40.593  53.269 -52.519  1.00  0.00     0.058 A 
HETATM    8  O   UNL     1     -40.057  52.017 -52.525  1.00  0.00    -0.320 OA
HETATM    9  C   UNL     1     -40.770  53.876 -51.183  1.00  0.00     0.077 C 
HETATM   10  C   UNL     1     -39.985  51.612 -53.820  1.00  0.00     0.050 A 
HETATM   11  C   UNL     1     -39.438  50.260 -54.060  1.00  0.00     0.076 C 
HETATM   12  C   UNL     1     -40.462  52.600 -54.649  1.00  0.00     0.044 A 
ENDBRANCH   4   6
ENDBRANCH   2   4
ENDBRANCH   1   2
BRANCH   1  13
HETATM   13  C   UNL     1     -42.941  55.811 -57.500  1.00  0.00     0.044 A 
HETATM   14  N   UNL     1     -42.428  57.082 -57.321  1.00  0.00    -0.338 N 
HETATM   15  H   UNL     1     -42.028  57.329 -56.415  1.00  0.00     0.168 HD
HETATM   16  C   UNL     1     -42.420  57.942 -58.308  1.00  0.00     0.158 A 
HETATM   17  N   UNL     1     -42.898  57.634 -59.495  1.00  0.00    -0.269 N 
HETATM   18  S   UNL     1     -41.789  59.555 -58.193  1.00  0.00    -0.064 SA
HETATM   19  C   UNL     1     -43.447  56.373 -59.810  1.00  0.00     0.255 A 
HETATM   20  C   UNL     1     -42.796  58.672 -60.399  1.00  0.00     0.109 A 
HETATM   21  O   UNL     1     -43.878  56.121 -60.919  1.00  0.00    -0.268 OA
HETATM   22  C   UNL     1     -43.432  55.424 -58.684  1.00  0.00     0.101 A 
HETATM   23  C   UNL     1     -42.231  59.770 -59.876  1.00  0.00     0.071 A 
ENDBRANCH   1  13
TORSDOF 4
ENDMDL
MODEL 2
REMARK VINA RESULT:      -7.3      2.251      2.814
REMARK  4 active torsions:
REMARK  status: ('A' for Active; 'I' for Inactive)
REMARK    1  A    between atoms: C_6  and  C_7 
REMARK    2  A    between atoms: C_7  and  N_8 
REMARK    3  A    between atoms: N_8  and  C_9 
REMARK    4  A    between atoms: C_9  and  C_10 
ROOT
HETATM    1  C   UNL     1     -40.811  55.730 -54.677  1.00  0.00     0.327 C 
ENDROOT
BRANCH   1   2
HETATM    2  N   UNL     1     -41.293  55.420 -53.321  1.00  0.00     0.097 N 
HETATM    3  H   UNL     1     -40.479  55.220 -52.731  1.00  0.00     0.317 HD
BRANCH   2   4
HETATM    4  C   UNL     1     -42.116  54.193 -53.282  1.00  0.00     0.252 C 
HETATM    5  C   UNL     1     -43.095  54.158 -52.106  1.00  0.00     0.048 C 
BRANCH   4   6
HETATM    6  C   UNL     1     -41.150  53.042 -53.250  1.00  0.00     0.006 A 
HETATM    7  C   UNL     1     -40.214  52.710 -52.281  1.00  0.00     0.058 A 
HETATM    8  O   UNL     1     -39.524  51.595 -52.645  1.00  0.00    -0.320 OA
HETATM    9  C   UNL     1     -39.834  53.294 -50.978  1.00  0.00     0.077 C 
HETATM   10  C   UNL     1     -40.013  51.188 -53.845  1.00  0.00     0.050 A 
HETATM   11  C   UNL     1     -39.407  49.972 -54.428  1.00  0.00     0.076 C 
HETATM   12  C   UNL     1     -41.007  52.041 -54.262  1.00  0.00     0.044 A 
ENDBRANCH   4   6
ENDBRANCH   2   4
ENDBRANCH   1   2
BRANCH   1  13
HETATM   13  C   UNL     1     -41.934  56.374 -55.471  1.00  0.00     0.044 A 
HETATM   14  N   UNL     1     -42.111  55.870 -56.747  1.00  0.00    -0.338 N 
HETATM   15  H   UNL     1     -41.508  55.111 -57.065  1.00  0.00     0.168 HD
HETATM   16  C   UNL     1     -43.061  56.333 -57.519  1.00  0.00     0.158 A 
HETATM   17  N   UNL     1     -43.873  57.288 -57.117  1.00  0.00    -0.269 N 
HETATM   18  S   UNL     1     -43.377  55.763 -59.128  1.00  0.00    -0.064 SA
HETATM   19  C   UNL     1     -43.802  57.885 -55.842  1.00  0.00     0.255 A 
HETATM   20  C   UNL     1     -44.807  57.633 -58.074  1.00  0.00     0.109 A 
HETATM   21  O   UNL     1     -44.570  58.764 -55.501  1.00  0.00    -0.268 OA
HETATM   22  C   UNL     1     -42.731  57.337 -54.991  1.00  0.00     0.101 A 
HETATM   23  C   UNL     1     -44.688  56.923 -59.205  1.00  0.00     0.071 A 
ENDBRANCH   1  13
TORSDOF 4
ENDMDL
MODEL 3
REMARK VINA RESULT:      -7.3      4.374      5.146
REMARK  4 active torsions:
REMARK  status: ('A' for Active; 'I' for Inactive)
REMARK    1  A    between atoms: C_6  and  C_7 
REMARK    2  A    between atoms: C_7  and  N_8 
REMARK    3  A    between atoms: N_8  and  C_9 
REMARK    4  A    between atoms: C_9  and  C_10 
ROOT
HETATM    1  C   UNL     1     -42.865  55.032 -51.877  1.00  0.00     0.327 C 
ENDROOT
BRANCH   1   2
HETATM    2  N   UNL     1     -42.408  54.644 -53.221  1.00  0.00     0.097 N 
HETATM    3  H   UNL     1     -42.673  53.666 -53.379  1.00  0.00     0.317 HD
BRANCH   2   4
HETATM    4  C   UNL     1     -40.935  54.676 -53.348  1.00  0.00     0.252 C 
HETATM    5  C   UNL     1     -40.453  55.343 -54.637  1.00  0.00     0.048 C 
BRANCH   4   6
HETATM    6  C   UNL     1     -40.475  53.249 -53.240  1.00  0.00     0.006 A 
HETATM    7  C   UNL     1     -40.118  52.528 -52.109  1.00  0.00     0.058 A 
HETATM    8  O   UNL     1     -39.744  51.263 -52.449  1.00  0.00    -0.320 OA
HETATM    9  C   UNL     1     -40.072  52.836 -50.665  1.00  0.00     0.077 C 
HETATM   10  C   UNL     1     -39.865  51.151 -53.797  1.00  0.00     0.050 A 
HETATM   11  C   UNL     1     -39.517  49.841 -54.386  1.00  0.00     0.076 C 
HETATM   12  C   UNL     1     -40.306  52.340 -54.330  1.00  0.00     0.044 A 
ENDBRANCH   4   6
ENDBRANCH   2   4
ENDBRANCH   1   2
BRANCH   1  13
HETATM   13  C   UNL     1     -43.637  56.336 -51.969  1.00  0.00     0.044 A 
HETATM   14  N   UNL     1     -43.578  56.965 -53.199  1.00  0.00    -0.338 N 
HETATM   15  H   UNL     1     -43.048  56.524 -53.952  1.00  0.00     0.168 HD
HETATM   16  C   UNL     1     -44.220  58.086 -53.405  1.00  0.00     0.158 A 
HETATM   17  N   UNL     1     -44.936  58.654 -52.459  1.00  0.00    -0.269 N 
HETATM   18  S   UNL     1     -44.222  58.948 -54.912  1.00  0.00    -0.064 SA
HETATM   19  C   UNL     1     -45.082  58.117 -51.163  1.00  0.00     0.255 A 
HETATM   20  C   UNL     1     -45.538  59.826 -52.874  1.00  0.00     0.109 A 
HETATM   21  O   UNL     1     -45.755  58.667 -50.312  1.00  0.00    -0.268 OA
HETATM   22  C   UNL     1     -44.358  56.850 -50.964  1.00  0.00     0.101 A 
HETATM   23  C   UNL     1     -45.264  60.133 -54.151  1.00  0.00     0.071 A 
ENDBRANCH   1  13
TORSDOF 4
ENDMDL
MODEL 4
REMARK VINA RESULT:      -7.0      2.388      2.768
REMARK  4 active torsions:
REMARK  status: ('A' for Active; 'I' for Inactive)
REMARK    1  A    between atoms: C_6  and  C_7 
REMARK    2  A    between atoms: C_7  and  N_8 
REMARK    3  A    between atoms: N_8  and  C_9 
REMARK    4  A    between atoms: C_9  and  C_10 
ROOT
HETATM    1  C   UNL     1     -42.821  55.724 -57.426  1.00  0.00     0.327 C 
ENDROOT
BRANCH   1   2
HETATM    2  N   UNL     1     -43.311  54.747 -56.440  1.00  0.00     0.097 N 
HETATM    3  H   UNL     1     -44.305  54.574 -56.628  1.00  0.00     0.317 HD
BRANCH   2   4
HETATM    4  C   UNL     1     -43.261  55.268 -55.057  1.00  0.00     0.252 C 
HETATM    5  C   UNL     1     -42.758  56.710 -54.971  1.00  0.00     0.048 C 
BRANCH   4   6
HETATM    6  C   UNL     1     -42.393  54.316 -54.282  1.00  0.00     0.006 A 
HETATM    7  C   UNL     1     -42.408  54.025 -52.926  1.00  0.00     0.058 A 
HETATM    8  O   UNL     1     -41.443  53.114 -52.623  1.00  0.00    -0.320 OA
HETATM    9  C   UNL     1     -43.232  54.477 -51.786  1.00  0.00     0.077 C 
HETATM   10  C   UNL     1     -40.803  52.799 -53.779  1.00  0.00     0.050 A 
HETATM   11  C   UNL     1     -39.713  51.807 -53.683  1.00  0.00     0.076 C 
HETATM   12  C   UNL     1     -41.344  53.511 -54.825  1.00  0.00     0.044 A 
ENDBRANCH   4   6
ENDBRANCH   2   4
ENDBRANCH   1   2
BRANCH   1  13
HETATM   13  C   UNL     1     -43.840  55.859 -58.543  1.00  0.00     0.044 A 
HETATM   14  N   UNL     1     -44.778  56.859 -58.360  1.00  0.00    -0.338 N 
HETATM   15  H   UNL     1     -44.725  57.436 -57.520  1.00  0.00     0.168 HD
HETATM   16  C   UNL     1     -45.696  57.084 -59.266  1.00  0.00     0.158 A 
HETATM   17  N   UNL     1     -45.762  56.374 -60.372  1.00  0.00    -0.269 N 
HETATM   18  S   UNL     1     -46.909  58.319 -59.140  1.00  0.00    -0.064 SA
HETATM   19  C   UNL     1     -44.867  55.330 -60.683  1.00  0.00     0.255 A 
HETATM   20  C   UNL     1     -46.795  56.768 -61.199  1.00  0.00     0.109 A 
HETATM   21  O   UNL     1     -44.955  54.695 -61.716  1.00  0.00    -0.268 OA
HETATM   22  C   UNL     1     -43.839  55.106 -59.651  1.00  0.00     0.101 A 
HETATM   23  C   UNL     1     -47.508  57.789 -60.700  1.00  0.00     0.071 A 
ENDBRANCH   1  13
TORSDOF 4
ENDMDL
MODEL 5
REMARK VINA RESULT:      -6.9      1.944      2.972
REMARK  4 active torsions:
REMARK  status: ('A' for Active; 'I' for Inactive)
REMARK    1  A    between atoms: C_6  and  C_7 
REMARK    2  A    between atoms: C_7  and  N_8 
REMARK    3  A    between atoms: N_8  and  C_9 
REMARK    4  A    between atoms: C_9  and  C_10 
ROOT
HETATM    1  C   UNL     1     -41.979  56.156 -55.341  1.00  0.00     0.327 C 
ENDROOT
BRANCH   1   2
HETATM    2  N   UNL     1     -41.606  54.732 -55.372  1.00  0.00     0.097 N 
HETATM    3  H   UNL     1     -41.865  54.353 -56.290  1.00  0.00     0.317 HD
BRANCH   2   4
HETATM    4  C   UNL     1     -42.363  53.929 -54.389  1.00  0.00     0.252 C 
HETATM    5  C   UNL     1     -43.634  54.621 -53.893  1.00  0.00     0.048 C 
BRANCH   4   6
HETATM    6  C   UNL     1     -41.407  53.626 -53.270  1.00  0.00     0.006 A 
HETATM    7  C   UNL     1     -40.478  52.600 -53.166  1.00  0.00     0.058 A 
HETATM    8  O   UNL     1     -39.818  52.673 -51.978  1.00  0.00    -0.320 OA
HETATM    9  C   UNL     1     -40.067  51.491 -54.052  1.00  0.00     0.077 C 
HETATM   10  C   UNL     1     -40.304  53.750 -51.307  1.00  0.00     0.050 A 
HETATM   11  C   UNL     1     -39.713  54.026 -49.982  1.00  0.00     0.076 C 
HETATM   12  C   UNL     1     -41.282  54.366 -52.053  1.00  0.00     0.044 A 
ENDBRANCH   4   6
ENDBRANCH   2   4
ENDBRANCH   1   2
BRANCH   1  13
HETATM   13  C   UNL     1     -42.513  56.561 -56.704  1.00  0.00     0.044 A 
HETATM   14  N   UNL     1     -43.106  55.542 -57.426  1.00  0.00    -0.338 N 
HETATM   15  H   UNL     1     -43.162  54.612 -57.010  1.00  0.00     0.168 HD
HETATM   16  C   UNL     1     -43.621  55.775 -58.606  1.00  0.00     0.158 A 
HETATM   17  N   UNL     1     -43.591  56.974 -59.148  1.00  0.00    -0.269 N 
HETATM   18  S   UNL     1     -44.398  54.572 -59.588  1.00  0.00    -0.064 SA
HETATM   19  C   UNL     1     -43.019  58.099 -58.517  1.00  0.00     0.255 A 
HETATM   20  C   UNL     1     -44.188  57.014 -60.392  1.00  0.00     0.109 A 
HETATM   21  O   UNL     1     -43.011  59.194 -59.045  1.00  0.00    -0.268 OA
HETATM   22  C   UNL     1     -42.458  57.809 -57.187  1.00  0.00     0.101 A 
HETATM   23  C   UNL     1     -44.671  55.825 -60.782  1.00  0.00     0.071 A 
ENDBRANCH   1  13
TORSDOF 4
ENDMDL
MODEL 6
REMARK VINA RESULT:      -6.9      2.636      7.562
REMARK  4 active torsions:
REMARK  status: ('A' for Active; 'I' for Inactive)
REMARK    1  A    between atoms: C_6  and  C_7 
REMARK    2  A    between atoms: C_7  and  N_8 
REMARK    3  A    between atoms: N_8  and  C_9 
REMARK    4  A    between atoms: C_9  and  C_10 
ROOT
HETATM    1  C   UNL     1     -43.390  55.601 -54.863  1.00  0.00     0.327 C 
ENDROOT
BRANCH   1   2
HETATM    2  N   UNL     1     -43.280  55.288 -56.297  1.00  0.00     0.097 N 
HETATM    3  H   UNL     1     -42.664  54.474 -56.400  1.00  0.00     0.317 HD
BRANCH   2   4
HETATM    4  C   UNL     1     -42.627  56.372 -57.062  1.00  0.00     0.252 C 
HETATM    5  C   UNL     1     -42.924  57.767 -56.510  1.00  0.00     0.048 C 
BRANCH   4   6
HETATM    6  C   UNL     1     -43.086  56.215 -58.485  1.00  0.00     0.006 A 
HETATM    7  C   UNL     1     -42.670  56.897 -59.619  1.00  0.00     0.058 A 
HETATM    8  O   UNL     1     -43.351  56.461 -60.715  1.00  0.00    -0.320 OA
HETATM    9  C   UNL     1     -41.670  57.955 -59.874  1.00  0.00     0.077 C 
HETATM   10  C   UNL     1     -44.203  55.487 -60.303  1.00  0.00     0.050 A 
HETATM   11  C   UNL     1     -45.042  54.859 -61.345  1.00  0.00     0.076 C 
HETATM   12  C   UNL     1     -44.083  55.300 -58.946  1.00  0.00     0.044 A 
ENDBRANCH   4   6
ENDBRANCH   2   4
ENDBRANCH   1   2
BRANCH   1  13
HETATM   13  C   UNL     1     -42.411  54.739 -54.087  1.00  0.00     0.044 A 
HETATM   14  N   UNL     1     -42.127  55.182 -52.808  1.00  0.00    -0.338 N 
HETATM   15  H   UNL     1     -42.587  56.027 -52.467  1.00  0.00     0.168 HD
HETATM   16  C   UNL     1     -41.312  54.510 -52.036  1.00  0.00     0.158 A 
HETATM   17  N   UNL     1     -40.734  53.400 -52.443  1.00  0.00    -0.269 N 
HETATM   18  S   UNL     1     -40.899  54.973 -50.414  1.00  0.00    -0.064 SA
HETATM   19  C   UNL     1     -40.939  52.838 -53.720  1.00  0.00     0.255 A 
HETATM   20  C   UNL     1     -39.915  52.841 -51.483  1.00  0.00     0.109 A 
HETATM   21  O   UNL     1     -40.391  51.809 -54.064  1.00  0.00    -0.268 OA
HETATM   22  C   UNL     1     -41.869  53.610 -54.563  1.00  0.00     0.101 A 
HETATM   23  C   UNL     1     -39.884  53.546 -50.342  1.00  0.00     0.071 A 
ENDBRANCH   1  13
TORSDOF 4
ENDMDL
MODEL 7
REMARK VINA RESULT:      -6.9      2.137      2.603
REMARK  4 active torsions:
REMARK  status: ('A' for Active; 'I' for Inactive)
REMARK    1  A    between atoms: C_6  and  C_7 
REMARK    2  A    between atoms: C_7  and  N_8 
REMARK    3  A    between atoms: N_8  and  C_9 
REMARK    4  A    between atoms: C_9  and  C_10 
ROOT
HETATM    1  C   UNL     1     -40.771  55.868 -54.248  1.00  0.00     0.327 C 
ENDROOT
BRANCH   1   2
HETATM    2  N   UNL     1     -41.371  55.511 -52.952  1.00  0.00     0.097 N 
HETATM    3  H   UNL     1     -40.611  55.300 -52.296  1.00  0.00     0.317 HD
BRANCH   2   4
HETATM    4  C   UNL     1     -42.178  54.274 -53.026  1.00  0.00     0.252 C 
HETATM    5  C   UNL     1     -43.166  54.126 -51.868  1.00  0.00     0.048 C 
BRANCH   4   6
HETATM    6  C   UNL     1     -41.196  53.137 -53.084  1.00  0.00     0.006 A 
HETATM    7  C   UNL     1     -40.219  52.777 -52.167  1.00  0.00     0.058 A 
HETATM    8  O   UNL     1     -39.530  51.688 -52.607  1.00  0.00    -0.320 OA
HETATM    9  C   UNL     1     -39.795  53.308 -50.855  1.00  0.00     0.077 C 
HETATM   10  C   UNL     1     -40.060  51.327 -53.804  1.00  0.00     0.050 A 
HETATM   11  C   UNL     1     -39.463  50.147 -54.463  1.00  0.00     0.076 C 
HETATM   12  C   UNL     1     -41.081  52.184 -54.143  1.00  0.00     0.044 A 
ENDBRANCH   4   6
ENDBRANCH   2   4
ENDBRANCH   1   2
BRANCH   1  13
HETATM   13  C   UNL     1     -41.869  56.304 -55.203  1.00  0.00     0.044 A 
HETATM   14  N   UNL     1     -42.586  57.416 -54.799  1.00  0.00    -0.338 N 
HETATM   15  H   UNL     1     -42.336  57.871 -53.921  1.00  0.00     0.168 HD
HETATM   16  C   UNL     1     -43.544  57.898 -55.549  1.00  0.00     0.158 A 
HETATM   17  N   UNL     1     -43.862  57.347 -56.701  1.00  0.00    -0.269 N 
HETATM   18  S   UNL     1     -44.495  59.292 -55.142  1.00  0.00    -0.064 SA
HETATM   19  C   UNL     1     -43.208  56.214 -57.229  1.00  0.00     0.255 A 
HETATM   20  C   UNL     1     -44.894  58.003 -57.341  1.00  0.00     0.109 A 
HETATM   21  O   UNL     1     -43.525  55.732 -58.300  1.00  0.00    -0.268 OA
HETATM   22  C   UNL     1     -42.128  55.701 -56.370  1.00  0.00     0.101 A 
HETATM   23  C   UNL     1     -45.351  59.060 -56.654  1.00  0.00     0.071 A 
ENDBRANCH   1  13
TORSDOF 4
ENDMDL
MODEL 8
REMARK VINA RESULT:      -6.8      4.654      5.876
REMARK  4 active torsions:
REMARK  status: ('A' for Active; 'I' for Inactive)
REMARK    1  A    between atoms: C_6  and  C_7 
REMARK    2  A    between atoms: C_7  and  N_8 
REMARK    3  A    between atoms: N_8  and  C_9 
REMARK    4  A    between atoms: C_9  and  C_10 
ROOT
HETATM    1  C   UNL     1     -43.091  55.914 -53.347  1.00  0.00     0.327 C 
ENDROOT
BRANCH   1   2
HETATM    2  N   UNL     1     -42.155  54.962 -52.727  1.00  0.00     0.097 N 
HETATM    3  H   UNL     1     -41.870  55.340 -51.817  1.00  0.00     0.317 HD
BRANCH   2   4
HETATM    4  C   UNL     1     -40.903  54.817 -53.500  1.00  0.00     0.252 C 
HETATM    5  C   UNL     1     -41.045  55.235 -54.964  1.00  0.00     0.048 C 
BRANCH   4   6
HETATM    6  C   UNL     1     -40.488  53.379 -53.357  1.00  0.00     0.006 A 
HETATM    7  C   UNL     1     -40.101  52.689 -52.217  1.00  0.00     0.058 A 
HETATM    8  O   UNL     1     -39.787  51.400 -52.523  1.00  0.00    -0.320 OA
HETATM    9  C   UNL     1     -39.972  53.051 -50.790  1.00  0.00     0.077 C 
HETATM   10  C   UNL     1     -39.979  51.240 -53.859  1.00  0.00     0.050 A 
HETATM   11  C   UNL     1     -39.707  49.897 -54.410  1.00  0.00     0.076 C 
HETATM   12  C   UNL     1     -40.405  52.423 -54.417  1.00  0.00     0.044 A 
ENDBRANCH   4   6
ENDBRANCH   2   4
ENDBRANCH   1   2
BRANCH   1  13
HETATM   13  C   UNL     1     -43.021  57.237 -52.604  1.00  0.00     0.044 A 
HETATM   14  N   UNL     1     -44.208  57.643 -52.021  1.00  0.00    -0.338 N 
HETATM   15  H   UNL     1     -45.029  57.044 -52.109  1.00  0.00     0.168 HD
HETATM   16  C   UNL     1     -44.266  58.758 -51.338  1.00  0.00     0.158 A 
HETATM   17  N   UNL     1     -43.211  59.529 -51.184  1.00  0.00    -0.269 N 
HETATM   18  S   UNL     1     -45.699  59.351 -50.558  1.00  0.00    -0.064 SA
HETATM   19  C   UNL     1     -41.942  59.230 -51.723  1.00  0.00     0.255 A 
HETATM   20  C   UNL     1     -43.476  60.654 -50.429  1.00  0.00     0.109 A 
HETATM   21  O   UNL     1     -40.987  59.963 -51.559  1.00  0.00    -0.268 OA
HETATM   22  C   UNL     1     -41.904  57.965 -52.477  1.00  0.00     0.101 A 
HETATM   23  C   UNL     1     -44.750  60.720 -50.015  1.00  0.00     0.071 A 
ENDBRANCH   1  13
TORSDOF 4
ENDMDL
MODEL 9
REMARK VINA RESULT:      -6.8      2.615      7.740
REMARK  4 active torsions:
REMARK  status: ('A' for Active; 'I' for Inactive)
REMARK    1  A    between atoms: C_6  and  C_7 
REMARK    2  A    between atoms: C_7  and  N_8 
REMARK    3  A    between atoms: N_8  and  C_9 
REMARK    4  A    between atoms: C_9  and  C_10 
ROOT
HETATM    1  C   UNL     1     -42.987  55.604 -55.249  1.00  0.00     0.327 C 
ENDROOT
BRANCH   1   2
HETATM    2  N   UNL     1     -42.182  55.748 -56.472  1.00  0.00     0.097 N 
HETATM    3  H   UNL     1     -41.194  55.802 -56.200  1.00  0.00     0.317 HD
BRANCH   2   4
HETATM    4  C   UNL     1     -42.460  57.014 -57.185  1.00  0.00     0.252 C 
HETATM    5  C   UNL     1     -43.423  57.933 -56.431  1.00  0.00     0.048 C 
BRANCH   4   6
HETATM    6  C   UNL     1     -42.987  56.625 -58.538  1.00  0.00     0.006 A 
HETATM    7  C   UNL     1     -42.707  57.180 -59.778  1.00  0.00     0.058 A 
HETATM    8  O   UNL     1     -43.409  56.542 -60.755  1.00  0.00    -0.320 OA
HETATM    9  C   UNL     1     -41.830  58.275 -60.241  1.00  0.00     0.077 C 
HETATM   10  C   UNL     1     -44.138  55.563 -60.160  1.00  0.00     0.050 A 
HETATM   11  C   UNL     1     -44.975  54.729 -61.047  1.00  0.00     0.076 C 
HETATM   12  C   UNL     1     -43.919  55.574 -58.802  1.00  0.00     0.044 A 
ENDBRANCH   4   6
ENDBRANCH   2   4
ENDBRANCH   1   2
BRANCH   1  13
HETATM   13  C   UNL     1     -42.167  54.885 -54.193  1.00  0.00     0.044 A 
HETATM   14  N   UNL     1     -41.666  53.655 -54.579  1.00  0.00    -0.338 N 
HETATM   15  H   UNL     1     -41.859  53.320 -55.524  1.00  0.00     0.168 HD
HETATM   16  C   UNL     1     -40.927  52.951 -53.761  1.00  0.00     0.158 A 
HETATM   17  N   UNL     1     -40.638  53.379 -52.550  1.00  0.00    -0.269 N 
HETATM   18  S   UNL     1     -40.241  51.404 -54.150  1.00  0.00    -0.064 SA
HETATM   19  C   UNL     1     -41.082  54.614 -52.034  1.00  0.00     0.255 A 
HETATM   20  C   UNL     1     -39.845  52.495 -51.845  1.00  0.00     0.109 A 
HETATM   21  O   UNL     1     -40.793  54.981 -50.911  1.00  0.00    -0.268 OA
HETATM   22  C   UNL     1     -41.901  55.389 -52.981  1.00  0.00     0.101 A 
HETATM   23  C   UNL     1     -39.539  51.391 -52.544  1.00  0.00     0.071 A 
ENDBRANCH   1  13
TORSDOF 4
ENDMDL
MODEL 10
REMARK VINA RESULT:      -6.8      4.724      5.693
REMARK  4 active torsions:
REMARK  status: ('A' for Active; 'I' for Inactive)
REMARK    1  A    between atoms: C_6  and  C_7 
REMARK    2  A    between atoms: C_7  and  N_8 
REMARK    3  A    between atoms: N_8  and  C_9 
REMARK    4  A    between atoms: C_9  and  C_10 
ROOT
HETATM    1  C   UNL     1     -41.593  56.194 -50.677  1.00  0.00     0.327 C 
ENDROOT
BRANCH   1   2
HETATM    2  N   UNL     1     -40.948  55.257 -51.611  1.00  0.00     0.097 N 
HETATM    3  H   UNL     1     -41.501  55.233 -52.474  1.00  0.00     0.317 HD
BRANCH   2   4
HETATM    4  C   UNL     1     -40.951  53.867 -51.107  1.00  0.00     0.252 C 
HETATM    5  C   UNL     1     -39.908  53.616 -50.016  1.00  0.00     0.048 C 
BRANCH   4   6
HETATM    6  C   UNL     1     -40.740  52.986 -52.307  1.00  0.00     0.006 A 
HETATM    7  C   UNL     1     -41.332  53.058 -53.560  1.00  0.00     0.058 A 
HETATM    8  O   UNL     1     -40.875  52.057 -54.361  1.00  0.00    -0.320 OA
HETATM    9  C   UNL     1     -42.313  53.970 -54.183  1.00  0.00     0.077 C 
HETATM   10  C   UNL     1     -39.977  51.336 -53.640  1.00  0.00     0.050 A 
HETATM   11  C   UNL     1     -39.341  50.194 -54.329  1.00  0.00     0.076 C 
HETATM   12  C   UNL     1     -39.861  51.861 -52.374  1.00  0.00     0.044 A 
ENDBRANCH   4   6
ENDBRANCH   2   4
ENDBRANCH   1   2
BRANCH   1  13
HETATM   13  C   UNL     1     -41.824  57.520 -51.380  1.00  0.00     0.044 A 
HETATM   14  N   UNL     1     -42.756  58.346 -50.778  1.00  0.00    -0.338 N 
HETATM   15  H   UNL     1     -43.208  58.033 -49.918  1.00  0.00     0.168 HD
HETATM   16  C   UNL     1     -43.025  59.523 -51.282  1.00  0.00     0.158 A 
HETATM   17  N   UNL     1     -42.429  59.960 -52.371  1.00  0.00    -0.269 N 
HETATM   18  S   UNL     1     -44.165  60.640 -50.599  1.00  0.00    -0.064 SA
HETATM   19  C   UNL     1     -41.459  59.220 -53.079  1.00  0.00     0.255 A 
HETATM   20  C   UNL     1     -42.846  61.224 -52.738  1.00  0.00     0.109 A 
HETATM   21  O   UNL     1     -40.926  59.656 -54.081  1.00  0.00    -0.268 OA
HETATM   22  C   UNL     1     -41.169  57.905 -52.483  1.00  0.00     0.101 A 
HETATM   23  C   UNL     1     -43.767  61.736 -51.908  1.00  0.00     0.071 A 
ENDBRANCH   1  13
TORSDOF 4
ENDMDL
