MODEL 1
REMARK VINA RESULT:      -8.1      0.000      0.000
REMARK  8 active torsions:
REMARK  status: ('A' for Active; 'I' for Inactive)
REMARK    1  A    between atoms: O_2  and  C_3 
REMARK    2  A    between atoms: C_6  and  C_7 
REMARK    3  A    between atoms: C_7  and  N_8 
REMARK    4  A    between atoms: C_7  and  C_27 
REMARK    5  A    between atoms: N_8  and  C_11 
REMARK    6  A    between atoms: C_11  and  C_12 
REMARK       I    between atoms: C_12  and  N_13 
REMARK    7  A    between atoms: N_13  and  C_14 
REMARK    8  A    between atoms: C_17  and  N_18 
ROOT
HETATM    1  N   UNL     1     -39.553  53.953 -51.247  1.00  0.00    -0.055 N 
HETATM    2  H   UNL     1     -38.713  53.355 -51.326  1.00  0.00     0.278 HD
HETATM    3  H   UNL     1     -39.307  54.783 -51.796  1.00  0.00     0.278 HD
ENDROOT
BRANCH   1   4
HETATM    4  C   UNL     1     -40.694  53.240 -51.895  1.00  0.00     0.252 C 
BRANCH   4   5
HETATM    5  C   UNL     1     -41.455  54.078 -52.914  1.00  0.00    -0.023 A 
HETATM    6  C   UNL     1     -42.859  54.077 -53.015  1.00  0.00     0.012 A 
HETATM    7  C   UNL     1     -43.516  54.867 -53.969  1.00  0.00     0.037 A 
HETATM    8  C   UNL     1     -42.786  55.681 -54.830  1.00  0.00     0.068 A 
HETATM    9  C   UNL     1     -41.395  55.695 -54.733  1.00  0.00     0.037 A 
HETATM   10  C   UNL     1     -40.734  54.911 -53.783  1.00  0.00     0.012 A 
BRANCH   8  11
HETATM   11  O   UNL     1     -43.300  56.494 -55.798  1.00  0.00    -0.356 OA
HETATM   12  C   UNL     1     -42.440  57.491 -56.337  1.00  0.00     0.210 C 
ENDBRANCH   8  11
ENDBRANCH   4   5
BRANCH   4  13
HETATM   13  C   UNL     1     -40.200  51.903 -52.421  1.00  0.00    -0.023 A 
HETATM   14  C   UNL     1     -40.234  51.648 -53.804  1.00  0.00     0.009 A 
HETATM   15  C   UNL     1     -39.853  50.404 -54.311  1.00  0.00     0.001 A 
HETATM   16  C   UNL     1     -39.437  49.395 -53.448  1.00  0.00     0.000 A 
HETATM   17  C   UNL     1     -39.400  49.627 -52.077  1.00  0.00     0.001 A 
HETATM   18  C   UNL     1     -39.783  50.868 -51.564  1.00  0.00     0.009 A 
ENDBRANCH   4  13
ENDBRANCH   1   4
BRANCH   1  19
HETATM   19  C   UNL     1     -39.692  54.291 -49.788  1.00  0.00     0.336 C 
BRANCH  19  20
HETATM   20  C   UNL     1     -40.687  55.441 -49.649  1.00  0.00     0.248 C 
HETATM   21  N   UNL     1     -40.596  56.400 -50.636  1.00  0.00    -0.326 N 
HETATM   22  H   UNL     1     -39.870  56.320 -51.339  1.00  0.00     0.169 HD
HETATM   23  O   UNL     1     -41.379  55.475 -48.634  1.00  0.00    -0.271 OA
BRANCH  21  24
HETATM   24  C   UNL     1     -41.392  57.560 -50.754  1.00  0.00     0.034 A 
HETATM   25  C   UNL     1     -41.004  58.821 -50.313  1.00  0.00     0.032 A 
HETATM   26  C   UNL     1     -41.880  59.913 -50.421  1.00  0.00     0.032 A 
HETATM   27  C   UNL     1     -43.155  59.778 -50.982  1.00  0.00     0.037 A 
HETATM   28  C   UNL     1     -43.520  58.510 -51.453  1.00  0.00     0.032 A 
HETATM   29  C   UNL     1     -42.658  57.413 -51.327  1.00  0.00     0.032 A 
BRANCH  27  30
HETATM   30  N   UNL     1     -44.059  60.870 -51.067  1.00  0.00    -0.318 N 
HETATM   31  C   UNL     1     -45.305  60.965 -50.424  1.00  0.00     0.224 C 
HETATM   32  O   UNL     1     -45.830  60.189 -49.641  1.00  0.00    -0.273 OA
HETATM   33  C   UNL     1     -45.996  62.205 -50.940  1.00  0.00     0.105 C 
HETATM   34  C   UNL     1     -44.856  63.022 -51.514  1.00  0.00     0.029 C 
HETATM   35  C   UNL     1     -43.880  61.967 -51.991  1.00  0.00     0.133 C 
ENDBRANCH  27  30
ENDBRANCH  21  24
ENDBRANCH  19  20
ENDBRANCH   1  19
TORSDOF 8
ENDMDL
MODEL 2
REMARK VINA RESULT:      -7.7      3.985      6.867
REMARK  8 active torsions:
REMARK  status: ('A' for Active; 'I' for Inactive)
REMARK    1  A    between atoms: O_2  and  C_3 
REMARK    2  A    between atoms: C_6  and  C_7 
REMARK    3  A    between atoms: C_7  and  N_8 
REMARK    4  A    between atoms: C_7  and  C_27 
REMARK    5  A    between atoms: N_8  and  C_11 
REMARK    6  A    between atoms: C_11  and  C_12 
REMARK       I    between atoms: C_12  and  N_13 
REMARK    7  A    between atoms: N_13  and  C_14 
REMARK    8  A    between atoms: C_17  and  N_18 
ROOT
HETATM    1  N   UNL     1     -40.886  53.858 -54.984  1.00  0.00    -0.055 N 
HETATM    2  H   UNL     1     -40.351  54.639 -55.402  1.00  0.00     0.278 HD
HETATM    3  H   UNL     1     -40.479  53.028 -55.426  1.00  0.00     0.278 HD
ENDROOT
BRANCH   1   4
HETATM    4  C   UNL     1     -40.607  53.836 -53.517  1.00  0.00     0.252 C 
BRANCH   4   5
HETATM    5  C   UNL     1     -41.679  54.506 -52.668  1.00  0.00    -0.023 A 
HETATM    6  C   UNL     1     -42.714  53.793 -52.033  1.00  0.00     0.012 A 
HETATM    7  C   UNL     1     -43.678  54.453 -51.259  1.00  0.00     0.037 A 
HETATM    8  C   UNL     1     -43.620  55.834 -51.094  1.00  0.00     0.068 A 
HETATM    9  C   UNL     1     -42.594  56.549 -51.711  1.00  0.00     0.037 A 
HETATM   10  C   UNL     1     -41.630  55.897 -52.483  1.00  0.00     0.012 A 
BRANCH   8  11
HETATM   11  O   UNL     1     -44.492  56.595 -50.370  1.00  0.00    -0.356 OA
HETATM   12  C   UNL     1     -45.028  57.752 -51.000  1.00  0.00     0.210 C 
ENDBRANCH   8  11
ENDBRANCH   4   5
BRANCH   4  13
HETATM   13  C   UNL     1     -40.276  52.411 -53.103  1.00  0.00    -0.023 A 
HETATM   14  C   UNL     1     -39.894  52.147 -51.775  1.00  0.00     0.009 A 
HETATM   15  C   UNL     1     -39.516  50.861 -51.383  1.00  0.00     0.001 A 
HETATM   16  C   UNL     1     -39.509  49.821 -52.308  1.00  0.00     0.000 A 
HETATM   17  C   UNL     1     -39.880  50.064 -53.627  1.00  0.00     0.001 A 
HETATM   18  C   UNL     1     -40.256  51.348 -54.025  1.00  0.00     0.009 A 
ENDBRANCH   4  13
ENDBRANCH   1   4
BRANCH   1  19
HETATM   19  C   UNL     1     -42.315  54.054 -55.410  1.00  0.00     0.336 C 
BRANCH  19  20
HETATM   20  C   UNL     1     -42.402  55.333 -56.239  1.00  0.00     0.248 C 
HETATM   21  N   UNL     1     -43.190  55.234 -57.367  1.00  0.00    -0.326 N 
HETATM   22  H   UNL     1     -43.607  54.340 -57.601  1.00  0.00     0.169 HD
HETATM   23  O   UNL     1     -41.686  56.275 -55.907  1.00  0.00    -0.271 OA
BRANCH  21  24
HETATM   24  C   UNL     1     -43.448  56.257 -58.303  1.00  0.00     0.034 A 
HETATM   25  C   UNL     1     -42.992  56.246 -59.618  1.00  0.00     0.032 A 
HETATM   26  C   UNL     1     -43.249  57.332 -60.469  1.00  0.00     0.032 A 
HETATM   27  C   UNL     1     -43.976  58.447 -60.038  1.00  0.00     0.037 A 
HETATM   28  C   UNL     1     -44.457  58.431 -58.722  1.00  0.00     0.032 A 
HETATM   29  C   UNL     1     -44.184  57.360 -57.862  1.00  0.00     0.032 A 
BRANCH  27  30
HETATM   30  N   UNL     1     -44.213  59.564 -60.882  1.00  0.00    -0.318 N 
HETATM   31  C   UNL     1     -43.233  60.401 -61.443  1.00  0.00     0.224 C 
HETATM   32  O   UNL     1     -42.017  60.318 -61.375  1.00  0.00    -0.273 OA
HETATM   33  C   UNL     1     -43.943  61.554 -62.114  1.00  0.00     0.105 C 
HETATM   34  C   UNL     1     -45.350  61.028 -62.305  1.00  0.00     0.029 C 
HETATM   35  C   UNL     1     -45.536  60.094 -61.128  1.00  0.00     0.133 C 
ENDBRANCH  27  30
ENDBRANCH  21  24
ENDBRANCH  19  20
ENDBRANCH   1  19
TORSDOF 8
ENDMDL
MODEL 3
REMARK VINA RESULT:      -7.7      3.402      8.928
REMARK  8 active torsions:
REMARK  status: ('A' for Active; 'I' for Inactive)
REMARK    1  A    between atoms: O_2  and  C_3 
REMARK    2  A    between atoms: C_6  and  C_7 
REMARK    3  A    between atoms: C_7  and  N_8 
REMARK    4  A    between atoms: C_7  and  C_27 
REMARK    5  A    between atoms: N_8  and  C_11 
REMARK    6  A    between atoms: C_11  and  C_12 
REMARK       I    between atoms: C_12  and  N_13 
REMARK    7  A    between atoms: N_13  and  C_14 
REMARK    8  A    between atoms: C_17  and  N_18 
ROOT
HETATM    1  N   UNL     1     -42.875  59.530 -55.645  1.00  0.00    -0.055 N 
HETATM    2  H   UNL     1     -43.585  60.276 -55.756  1.00  0.00     0.278 HD
HETATM    3  H   UNL     1     -43.437  58.675 -55.588  1.00  0.00     0.278 HD
ENDROOT
BRANCH   1   4
HETATM    4  C   UNL     1     -42.037  59.500 -56.881  1.00  0.00     0.252 C 
BRANCH   4   5
HETATM    5  C   UNL     1     -42.410  58.395 -57.861  1.00  0.00    -0.023 A 
HETATM    6  C   UNL     1     -42.215  58.503 -59.251  1.00  0.00     0.012 A 
HETATM    7  C   UNL     1     -42.572  57.459 -60.114  1.00  0.00     0.037 A 
HETATM    8  C   UNL     1     -43.119  56.284 -59.606  1.00  0.00     0.068 A 
HETATM    9  C   UNL     1     -43.309  56.163 -58.230  1.00  0.00     0.037 A 
HETATM   10  C   UNL     1     -42.953  57.200 -57.364  1.00  0.00     0.012 A 
BRANCH   8  11
HETATM   11  O   UNL     1     -43.507  55.196 -60.335  1.00  0.00    -0.356 OA
HETATM   12  C   UNL     1     -44.668  54.499 -59.897  1.00  0.00     0.210 C 
ENDBRANCH   8  11
ENDBRANCH   4   5
BRANCH   4  13
HETATM   13  C   UNL     1     -42.005  60.894 -57.485  1.00  0.00    -0.023 A 
HETATM   14  C   UNL     1     -43.174  61.676 -57.482  1.00  0.00     0.009 A 
HETATM   15  C   UNL     1     -43.195  62.932 -58.092  1.00  0.00     0.001 A 
HETATM   16  C   UNL     1     -42.053  63.425 -58.717  1.00  0.00     0.000 A 
HETATM   17  C   UNL     1     -40.888  62.664 -58.734  1.00  0.00     0.001 A 
HETATM   18  C   UNL     1     -40.863  61.407 -58.128  1.00  0.00     0.009 A 
ENDBRANCH   4  13
ENDBRANCH   1   4
BRANCH   1  19
HETATM   19  C   UNL     1     -42.174  59.808 -54.344  1.00  0.00     0.336 C 
BRANCH  19  20
HETATM   20  C   UNL     1     -41.344  58.581 -53.971  1.00  0.00     0.248 C 
HETATM   21  N   UNL     1     -42.009  57.379 -54.095  1.00  0.00    -0.326 N 
HETATM   22  H   UNL     1     -42.986  57.380 -54.365  1.00  0.00     0.169 HD
HETATM   23  O   UNL     1     -40.230  58.774 -53.488  1.00  0.00    -0.271 OA
BRANCH  21  24
HETATM   24  C   UNL     1     -41.483  56.097 -53.823  1.00  0.00     0.034 A 
HETATM   25  C   UNL     1     -40.606  55.420 -54.664  1.00  0.00     0.032 A 
HETATM   26  C   UNL     1     -40.173  54.123 -54.343  1.00  0.00     0.032 A 
HETATM   27  C   UNL     1     -40.590  53.478 -53.174  1.00  0.00     0.037 A 
HETATM   28  C   UNL     1     -41.447  54.185 -52.320  1.00  0.00     0.032 A 
HETATM   29  C   UNL     1     -41.901  55.469 -52.647  1.00  0.00     0.032 A 
BRANCH  27  30
HETATM   30  N   UNL     1     -40.182  52.155 -52.858  1.00  0.00    -0.318 N 
HETATM   31  C   UNL     1     -39.938  51.650 -51.569  1.00  0.00     0.224 C 
HETATM   32  O   UNL     1     -40.076  52.198 -50.487  1.00  0.00    -0.273 OA
HETATM   33  C   UNL     1     -39.354  50.264 -51.721  1.00  0.00     0.105 C 
HETATM   34  C   UNL     1     -39.759  49.872 -53.127  1.00  0.00     0.029 C 
HETATM   35  C   UNL     1     -39.785  51.195 -53.863  1.00  0.00     0.133 C 
ENDBRANCH  27  30
ENDBRANCH  21  24
ENDBRANCH  19  20
ENDBRANCH   1  19
TORSDOF 8
ENDMDL
MODEL 4
REMARK VINA RESULT:      -7.7     15.782     18.576
REMARK  8 active torsions:
REMARK  status: ('A' for Active; 'I' for Inactive)
REMARK    1  A    between atoms: O_2  and  C_3 
REMARK    2  A    between atoms: C_6  and  C_7 
REMARK    3  A    between atoms: C_7  and  N_8 
REMARK    4  A    between atoms: C_7  and  C_27 
REMARK    5  A    between atoms: N_8  and  C_11 
REMARK    6  A    between atoms: C_11  and  C_12 
REMARK       I    between atoms: C_12  and  N_13 
REMARK    7  A    between atoms: N_13  and  C_14 
REMARK    8  A    between atoms: C_17  and  N_18 
ROOT
HETATM    1  N   UNL     1     -35.514  41.942 -55.564  1.00  0.00    -0.055 N 
HETATM    2  H   UNL     1     -35.656  42.728 -56.222  1.00  0.00     0.278 HD
HETATM    3  H   UNL     1     -35.630  42.378 -54.644  1.00  0.00     0.278 HD
ENDROOT
BRANCH   1   4
HETATM    4  C   UNL     1     -36.602  40.944 -55.789  1.00  0.00     0.252 C 
BRANCH   4   5
HETATM    5  C   UNL     1     -37.743  41.028 -54.784  1.00  0.00    -0.023 A 
HETATM    6  C   UNL     1     -37.553  40.901 -53.395  1.00  0.00     0.012 A 
HETATM    7  C   UNL     1     -38.634  40.987 -52.507  1.00  0.00     0.037 A 
HETATM    8  C   UNL     1     -39.921  41.215 -52.987  1.00  0.00     0.068 A 
HETATM    9  C   UNL     1     -40.118  41.352 -54.361  1.00  0.00     0.037 A 
HETATM   10  C   UNL     1     -39.044  41.268 -55.251  1.00  0.00     0.012 A 
BRANCH   8  11
HETATM   11  O   UNL     1     -41.054  41.321 -52.233  1.00  0.00    -0.356 OA
HETATM   12  C   UNL     1     -41.658  40.112 -51.790  1.00  0.00     0.210 C 
ENDBRANCH   8  11
ENDBRANCH   4   5
BRANCH   4  13
HETATM   13  C   UNL     1     -37.037  41.015 -57.244  1.00  0.00    -0.023 A 
HETATM   14  C   UNL     1     -37.573  39.871 -57.862  1.00  0.00     0.009 A 
HETATM   15  C   UNL     1     -37.917  39.884 -59.215  1.00  0.00     0.001 A 
HETATM   16  C   UNL     1     -37.728  41.036 -59.973  1.00  0.00     0.000 A 
HETATM   17  C   UNL     1     -37.195  42.177 -59.381  1.00  0.00     0.001 A 
HETATM   18  C   UNL     1     -36.847  42.167 -58.028  1.00  0.00     0.009 A 
ENDBRANCH   4  13
ENDBRANCH   1   4
BRANCH   1  19
HETATM   19  C   UNL     1     -34.099  41.475 -55.768  1.00  0.00     0.336 C 
BRANCH  19  20
HETATM   20  C   UNL     1     -33.716  40.565 -54.603  1.00  0.00     0.248 C 
HETATM   21  N   UNL     1     -33.757  41.171 -53.364  1.00  0.00    -0.326 N 
HETATM   22  H   UNL     1     -33.979  42.158 -53.304  1.00  0.00     0.169 HD
HETATM   23  O   UNL     1     -33.298  39.441 -54.873  1.00  0.00    -0.271 OA
BRANCH  21  24
HETATM   24  C   UNL     1     -33.459  40.566 -52.124  1.00  0.00     0.034 A 
HETATM   25  C   UNL     1     -34.420  40.120 -51.223  1.00  0.00     0.032 A 
HETATM   26  C   UNL     1     -34.037  39.578 -49.985  1.00  0.00     0.032 A 
HETATM   27  C   UNL     1     -32.691  39.455 -49.623  1.00  0.00     0.037 A 
HETATM   28  C   UNL     1     -31.734  39.878 -50.554  1.00  0.00     0.032 A 
HETATM   29  C   UNL     1     -32.111  40.441 -51.780  1.00  0.00     0.032 A 
BRANCH  27  30
HETATM   30  N   UNL     1     -32.296  38.938 -48.361  1.00  0.00    -0.318 N 
HETATM   31  C   UNL     1     -31.398  39.540 -47.463  1.00  0.00     0.224 C 
HETATM   32  O   UNL     1     -30.835  40.621 -47.544  1.00  0.00    -0.273 OA
HETATM   33  C   UNL     1     -31.137  38.558 -46.345  1.00  0.00     0.105 C 
HETATM   34  C   UNL     1     -32.314  37.609 -46.438  1.00  0.00     0.029 C 
HETATM   35  C   UNL     1     -32.642  37.606 -47.916  1.00  0.00     0.133 C 
ENDBRANCH  27  30
ENDBRANCH  21  24
ENDBRANCH  19  20
ENDBRANCH   1  19
TORSDOF 8
ENDMDL
MODEL 5
REMARK VINA RESULT:      -7.6      4.570      8.007
REMARK  8 active torsions:
REMARK  status: ('A' for Active; 'I' for Inactive)
REMARK    1  A    between atoms: O_2  and  C_3 
REMARK    2  A    between atoms: C_6  and  C_7 
REMARK    3  A    between atoms: C_7  and  N_8 
REMARK    4  A    between atoms: C_7  and  C_27 
REMARK    5  A    between atoms: N_8  and  C_11 
REMARK    6  A    between atoms: C_11  and  C_12 
REMARK       I    between atoms: C_12  and  N_13 
REMARK    7  A    between atoms: N_13  and  C_14 
REMARK    8  A    between atoms: C_17  and  N_18 
ROOT
HETATM    1  N   UNL     1     -41.666  55.136 -55.759  1.00  0.00    -0.055 N 
HETATM    2  H   UNL     1     -41.118  55.999 -55.924  1.00  0.00     0.278 HD
HETATM    3  H   UNL     1     -41.012  54.388 -56.011  1.00  0.00     0.278 HD
ENDROOT
BRANCH   1   4
HETATM    4  C   UNL     1     -41.983  55.058 -54.301  1.00  0.00     0.252 C 
BRANCH   4   5
HETATM    5  C   UNL     1     -41.199  53.991 -53.549  1.00  0.00    -0.023 A 
HETATM    6  C   UNL     1     -41.010  54.017 -52.154  1.00  0.00     0.012 A 
HETATM    7  C   UNL     1     -40.283  53.011 -51.504  1.00  0.00     0.037 A 
HETATM    8  C   UNL     1     -39.741  51.954 -52.231  1.00  0.00     0.068 A 
HETATM    9  C   UNL     1     -39.929  51.915 -53.612  1.00  0.00     0.037 A 
HETATM   10  C   UNL     1     -40.655  52.915 -54.266  1.00  0.00     0.012 A 
BRANCH   8  11
HETATM   11  O   UNL     1     -39.016  50.916 -51.723  1.00  0.00    -0.356 OA
HETATM   12  C   UNL     1     -39.723  49.923 -50.988  1.00  0.00     0.210 C 
ENDBRANCH   8  11
ENDBRANCH   4   5
BRANCH   4  13
HETATM   13  C   UNL     1     -41.882  56.452 -53.703  1.00  0.00    -0.023 A 
HETATM   14  C   UNL     1     -43.002  57.012 -53.061  1.00  0.00     0.009 A 
HETATM   15  C   UNL     1     -42.963  58.316 -52.565  1.00  0.00     0.001 A 
HETATM   16  C   UNL     1     -41.810  59.083 -52.704  1.00  0.00     0.000 A 
HETATM   17  C   UNL     1     -40.694  58.548 -53.339  1.00  0.00     0.001 A 
HETATM   18  C   UNL     1     -40.729  57.246 -53.840  1.00  0.00     0.009 A 
ENDBRANCH   4  13
ENDBRANCH   1   4
BRANCH   1  19
HETATM   19  C   UNL     1     -42.826  55.186 -56.714  1.00  0.00     0.336 C 
BRANCH  19  20
HETATM   20  C   UNL     1     -43.001  56.628 -57.187  1.00  0.00     0.248 C 
HETATM   21  N   UNL     1     -41.994  57.087 -58.010  1.00  0.00    -0.326 N 
HETATM   22  H   UNL     1     -41.201  56.486 -58.205  1.00  0.00     0.169 HD
HETATM   23  O   UNL     1     -43.931  57.274 -56.709  1.00  0.00    -0.271 OA
BRANCH  21  24
HETATM   24  C   UNL     1     -41.907  58.370 -58.592  1.00  0.00     0.034 A 
HETATM   25  C   UNL     1     -41.718  59.544 -57.869  1.00  0.00     0.032 A 
HETATM   26  C   UNL     1     -41.696  60.786 -58.523  1.00  0.00     0.032 A 
HETATM   27  C   UNL     1     -41.847  60.888 -59.911  1.00  0.00     0.037 A 
HETATM   28  C   UNL     1     -42.002  59.696 -60.630  1.00  0.00     0.032 A 
HETATM   29  C   UNL     1     -42.048  58.456 -59.980  1.00  0.00     0.032 A 
BRANCH  27  30
HETATM   30  N   UNL     1     -41.857  62.142 -60.577  1.00  0.00    -0.318 N 
HETATM   31  C   UNL     1     -40.750  62.986 -60.770  1.00  0.00     0.224 C 
HETATM   32  O   UNL     1     -39.580  62.804 -60.473  1.00  0.00    -0.273 OA
HETATM   33  C   UNL     1     -41.257  64.282 -61.359  1.00  0.00     0.105 C 
HETATM   34  C   UNL     1     -42.610  63.899 -61.922  1.00  0.00     0.029 C 
HETATM   35  C   UNL     1     -43.076  62.801 -60.990  1.00  0.00     0.133 C 
ENDBRANCH  27  30
ENDBRANCH  21  24
ENDBRANCH  19  20
ENDBRANCH   1  19
TORSDOF 8
ENDMDL
MODEL 6
REMARK VINA RESULT:      -7.6      4.235      9.203
REMARK  8 active torsions:
REMARK  status: ('A' for Active; 'I' for Inactive)
REMARK    1  A    between atoms: O_2  and  C_3 
REMARK    2  A    between atoms: C_6  and  C_7 
REMARK    3  A    between atoms: C_7  and  N_8 
REMARK    4  A    between atoms: C_7  and  C_27 
REMARK    5  A    between atoms: N_8  and  C_11 
REMARK    6  A    between atoms: C_11  and  C_12 
REMARK       I    between atoms: C_12  and  N_13 
REMARK    7  A    between atoms: N_13  and  C_14 
REMARK    8  A    between atoms: C_17  and  N_18 
ROOT
HETATM    1  N   UNL     1     -42.393  57.890 -57.479  1.00  0.00    -0.055 N 
HETATM    2  H   UNL     1     -42.274  56.869 -57.596  1.00  0.00     0.278 HD
HETATM    3  H   UNL     1     -41.512  58.274 -57.834  1.00  0.00     0.278 HD
ENDROOT
BRANCH   1   4
HETATM    4  C   UNL     1     -43.522  58.330 -58.353  1.00  0.00     0.252 C 
BRANCH   4   5
HETATM    5  C   UNL     1     -43.152  59.421 -59.348  1.00  0.00    -0.023 A 
HETATM    6  C   UNL     1     -43.648  60.736 -59.266  1.00  0.00     0.012 A 
HETATM    7  C   UNL     1     -43.277  61.709 -60.205  1.00  0.00     0.037 A 
HETATM    8  C   UNL     1     -42.396  61.391 -61.234  1.00  0.00     0.068 A 
HETATM    9  C   UNL     1     -41.893  60.093 -61.320  1.00  0.00     0.037 A 
HETATM   10  C   UNL     1     -42.257  59.119 -60.387  1.00  0.00     0.012 A 
BRANCH   8  11
HETATM   11  O   UNL     1     -41.957  62.240 -62.209  1.00  0.00    -0.356 OA
HETATM   12  C   UNL     1     -40.574  62.574 -62.208  1.00  0.00     0.210 C 
ENDBRANCH   8  11
ENDBRANCH   4   5
BRANCH   4  13
HETATM   13  C   UNL     1     -44.166  57.101 -58.974  1.00  0.00    -0.023 A 
HETATM   14  C   UNL     1     -43.499  55.864 -58.912  1.00  0.00     0.009 A 
HETATM   15  C   UNL     1     -44.032  54.734 -59.535  1.00  0.00     0.001 A 
HETATM   16  C   UNL     1     -45.234  54.819 -60.231  1.00  0.00     0.000 A 
HETATM   17  C   UNL     1     -45.906  56.035 -60.307  1.00  0.00     0.001 A 
HETATM   18  C   UNL     1     -45.376  57.170 -59.689  1.00  0.00     0.009 A 
ENDBRANCH   4  13
ENDBRANCH   1   4
BRANCH   1  19
HETATM   19  C   UNL     1     -42.532  58.131 -56.001  1.00  0.00     0.336 C 
BRANCH  19  20
HETATM   20  C   UNL     1     -42.552  56.779 -55.291  1.00  0.00     0.248 C 
HETATM   21  N   UNL     1     -41.306  56.275 -54.982  1.00  0.00    -0.326 N 
HETATM   22  H   UNL     1     -40.480  56.783 -55.278  1.00  0.00     0.169 HD
HETATM   23  O   UNL     1     -43.638  56.216 -55.170  1.00  0.00    -0.271 OA
BRANCH  21  24
HETATM   24  C   UNL     1     -41.033  55.055 -54.325  1.00  0.00     0.034 A 
HETATM   25  C   UNL     1     -41.265  54.829 -52.972  1.00  0.00     0.032 A 
HETATM   26  C   UNL     1     -40.914  53.602 -52.386  1.00  0.00     0.032 A 
HETATM   27  C   UNL     1     -40.339  52.569 -53.135  1.00  0.00     0.037 A 
HETATM   28  C   UNL     1     -40.142  52.799 -54.503  1.00  0.00     0.032 A 
HETATM   29  C   UNL     1     -40.469  54.029 -55.087  1.00  0.00     0.032 A 
BRANCH  27  30
HETATM   30  N   UNL     1     -39.952  51.337 -52.544  1.00  0.00    -0.318 N 
HETATM   31  C   UNL     1     -39.804  50.109 -53.211  1.00  0.00     0.224 C 
HETATM   32  O   UNL     1     -39.914  49.860 -54.402  1.00  0.00    -0.273 OA
HETATM   33  C   UNL     1     -39.561  49.044 -52.167  1.00  0.00     0.105 C 
HETATM   34  C   UNL     1     -39.099  49.840 -50.964  1.00  0.00     0.029 C 
HETATM   35  C   UNL     1     -39.834  51.156 -51.114  1.00  0.00     0.133 C 
ENDBRANCH  27  30
ENDBRANCH  21  24
ENDBRANCH  19  20
ENDBRANCH   1  19
TORSDOF 8
ENDMDL
MODEL 7
REMARK VINA RESULT:      -7.6      2.652      5.265
REMARK  8 active torsions:
REMARK  status: ('A' for Active; 'I' for Inactive)
REMARK    1  A    between atoms: O_2  and  C_3 
REMARK    2  A    between atoms: C_6  and  C_7 
REMARK    3  A    between atoms: C_7  and  N_8 
REMARK    4  A    between atoms: C_7  and  C_27 
REMARK    5  A    between atoms: N_8  and  C_11 
REMARK    6  A    between atoms: C_11  and  C_12 
REMARK       I    between atoms: C_12  and  N_13 
REMARK    7  A    between atoms: N_13  and  C_14 
REMARK    8  A    between atoms: C_17  and  N_18 
ROOT
HETATM    1  N   UNL     1     -43.006  56.289 -54.323  1.00  0.00    -0.055 N 
HETATM    2  H   UNL     1     -42.505  57.117 -54.690  1.00  0.00     0.278 HD
HETATM    3  H   UNL     1     -42.935  55.611 -55.089  1.00  0.00     0.278 HD
ENDROOT
BRANCH   1   4
HETATM    4  C   UNL     1     -42.260  55.783 -53.133  1.00  0.00     0.252 C 
BRANCH   4   5
HETATM    5  C   UNL     1     -41.438  54.529 -53.398  1.00  0.00    -0.023 A 
HETATM    6  C   UNL     1     -40.929  54.198 -54.668  1.00  0.00     0.012 A 
HETATM    7  C   UNL     1     -40.176  53.033 -54.864  1.00  0.00     0.037 A 
HETATM    8  C   UNL     1     -39.907  52.183 -53.796  1.00  0.00     0.068 A 
HETATM    9  C   UNL     1     -40.399  52.505 -52.532  1.00  0.00     0.037 A 
HETATM   10  C   UNL     1     -41.150  53.666 -52.329  1.00  0.00     0.012 A 
BRANCH   8  11
HETATM   11  O   UNL     1     -39.189  51.023 -53.851  1.00  0.00    -0.356 OA
HETATM   12  C   UNL     1     -39.756  49.874 -53.231  1.00  0.00     0.210 C 
ENDBRANCH   8  11
ENDBRANCH   4   5
BRANCH   4  13
HETATM   13  C   UNL     1     -41.474  56.933 -52.523  1.00  0.00    -0.023 A 
HETATM   14  C   UNL     1     -40.844  57.865 -53.368  1.00  0.00     0.009 A 
HETATM   15  C   UNL     1     -40.058  58.891 -52.839  1.00  0.00     0.001 A 
HETATM   16  C   UNL     1     -39.885  59.001 -51.463  1.00  0.00     0.000 A 
HETATM   17  C   UNL     1     -40.497  58.087 -50.611  1.00  0.00     0.001 A 
HETATM   18  C   UNL     1     -41.282  57.057 -51.135  1.00  0.00     0.009 A 
ENDBRANCH   4  13
ENDBRANCH   1   4
BRANCH   1  19
HETATM   19  C   UNL     1     -44.431  56.720 -54.111  1.00  0.00     0.336 C 
BRANCH  19  20
HETATM   20  C   UNL     1     -44.427  58.095 -53.447  1.00  0.00     0.248 C 
HETATM   21  N   UNL     1     -44.539  58.070 -52.073  1.00  0.00    -0.326 N 
HETATM   22  H   UNL     1     -44.666  57.180 -51.603  1.00  0.00     0.169 HD
HETATM   23  O   UNL     1     -44.448  59.081 -54.181  1.00  0.00    -0.271 OA
BRANCH  21  24
HETATM   24  C   UNL     1     -44.557  59.187 -51.211  1.00  0.00     0.034 A 
HETATM   25  C   UNL     1     -43.475  60.041 -51.018  1.00  0.00     0.032 A 
HETATM   26  C   UNL     1     -43.561  61.100 -50.100  1.00  0.00     0.032 A 
HETATM   27  C   UNL     1     -44.726  61.342 -49.365  1.00  0.00     0.037 A 
HETATM   28  C   UNL     1     -45.818  60.495 -49.594  1.00  0.00     0.032 A 
HETATM   29  C   UNL     1     -45.731  59.423 -50.491  1.00  0.00     0.032 A 
BRANCH  27  30
HETATM   30  N   UNL     1     -44.810  62.391 -48.411  1.00  0.00    -0.318 N 
HETATM   31  C   UNL     1     -44.926  62.238 -47.019  1.00  0.00     0.224 C 
HETATM   32  O   UNL     1     -44.919  61.215 -46.353  1.00  0.00    -0.273 OA
HETATM   33  C   UNL     1     -45.166  63.606 -46.424  1.00  0.00     0.105 C 
HETATM   34  C   UNL     1     -44.683  64.544 -47.510  1.00  0.00     0.029 C 
HETATM   35  C   UNL     1     -44.971  63.779 -48.784  1.00  0.00     0.133 C 
ENDBRANCH  27  30
ENDBRANCH  21  24
ENDBRANCH  19  20
ENDBRANCH   1  19
TORSDOF 8
ENDMDL
MODEL 8
REMARK VINA RESULT:      -7.5      4.229      9.141
REMARK  8 active torsions:
REMARK  status: ('A' for Active; 'I' for Inactive)
REMARK    1  A    between atoms: O_2  and  C_3 
REMARK    2  A    between atoms: C_6  and  C_7 
REMARK    3  A    between atoms: C_7  and  N_8 
REMARK    4  A    between atoms: C_7  and  C_27 
REMARK    5  A    between atoms: N_8  and  C_11 
REMARK    6  A    between atoms: C_11  and  C_12 
REMARK       I    between atoms: C_12  and  N_13 
REMARK    7  A    between atoms: N_13  and  C_14 
REMARK    8  A    between atoms: C_17  and  N_18 
ROOT
HETATM    1  N   UNL     1     -42.086  58.878 -56.887  1.00  0.00    -0.055 N 
HETATM    2  H   UNL     1     -41.656  57.958 -57.087  1.00  0.00     0.278 HD
HETATM    3  H   UNL     1     -41.279  59.500 -56.782  1.00  0.00     0.278 HD
ENDROOT
BRANCH   1   4
HETATM    4  C   UNL     1     -42.884  59.287 -58.081  1.00  0.00     0.252 C 
BRANCH   4   5
HETATM    5  C   UNL     1     -42.211  60.341 -58.950  1.00  0.00    -0.023 A 
HETATM    6  C   UNL     1     -42.463  60.476 -60.329  1.00  0.00     0.012 A 
HETATM    7  C   UNL     1     -41.821  61.463 -61.088  1.00  0.00     0.037 A 
HETATM    8  C   UNL     1     -40.926  62.342 -60.484  1.00  0.00     0.068 A 
HETATM    9  C   UNL     1     -40.676  62.223 -59.117  1.00  0.00     0.037 A 
HETATM   10  C   UNL     1     -41.314  61.241 -58.354  1.00  0.00     0.012 A 
BRANCH   8  11
HETATM   11  O   UNL     1     -40.238  63.344 -61.105  1.00  0.00    -0.356 OA
HETATM   12  C   UNL     1     -39.337  62.971 -62.141  1.00  0.00     0.210 C 
ENDBRANCH   8  11
ENDBRANCH   4   5
BRANCH   4  13
HETATM   13  C   UNL     1     -43.320  58.038 -58.830  1.00  0.00    -0.023 A 
HETATM   14  C   UNL     1     -44.676  57.866 -59.161  1.00  0.00     0.009 A 
HETATM   15  C   UNL     1     -45.117  56.698 -59.786  1.00  0.00     0.001 A 
HETATM   16  C   UNL     1     -44.215  55.683 -60.087  1.00  0.00     0.000 A 
HETATM   17  C   UNL     1     -42.869  55.832 -59.765  1.00  0.00     0.001 A 
HETATM   18  C   UNL     1     -42.424  56.997 -59.137  1.00  0.00     0.009 A 
ENDBRANCH   4  13
ENDBRANCH   1   4
BRANCH   1  19
HETATM   19  C   UNL     1     -42.825  58.722 -55.586  1.00  0.00     0.336 C 
BRANCH  19  20
HETATM   20  C   UNL     1     -42.092  57.687 -54.735  1.00  0.00     0.248 C 
HETATM   21  N   UNL     1     -42.181  56.392 -55.204  1.00  0.00    -0.326 N 
HETATM   22  H   UNL     1     -42.746  56.201 -56.024  1.00  0.00     0.169 HD
HETATM   23  O   UNL     1     -41.608  58.066 -53.671  1.00  0.00    -0.271 OA
BRANCH  21  24
HETATM   24  C   UNL     1     -41.599  55.247 -54.620  1.00  0.00     0.034 A 
HETATM   25  C   UNL     1     -40.429  54.647 -55.076  1.00  0.00     0.032 A 
HETATM   26  C   UNL     1     -39.947  53.476 -54.469  1.00  0.00     0.032 A 
HETATM   27  C   UNL     1     -40.609  52.884 -53.388  1.00  0.00     0.037 A 
HETATM   28  C   UNL     1     -41.767  53.517 -52.918  1.00  0.00     0.032 A 
HETATM   29  C   UNL     1     -42.265  54.673 -53.534  1.00  0.00     0.032 A 
BRANCH  27  30
HETATM   30  N   UNL     1     -40.146  51.683 -52.789  1.00  0.00    -0.318 N 
HETATM   31  C   UNL     1     -39.929  50.460 -53.446  1.00  0.00     0.224 C 
HETATM   32  O   UNL     1     -40.031  50.193 -54.633  1.00  0.00    -0.273 OA
HETATM   33  C   UNL     1     -39.617  49.421 -52.394  1.00  0.00     0.105 C 
HETATM   34  C   UNL     1     -39.196  50.254 -51.201  1.00  0.00     0.029 C 
HETATM   35  C   UNL     1     -40.009  51.522 -51.358  1.00  0.00     0.133 C 
ENDBRANCH  27  30
ENDBRANCH  21  24
ENDBRANCH  19  20
ENDBRANCH   1  19
TORSDOF 8
ENDMDL
MODEL 9
REMARK VINA RESULT:      -7.5     15.915     18.848
REMARK  8 active torsions:
REMARK  status: ('A' for Active; 'I' for Inactive)
REMARK    1  A    between atoms: O_2  and  C_3 
REMARK    2  A    between atoms: C_6  and  C_7 
REMARK    3  A    between atoms: C_7  and  N_8 
REMARK    4  A    between atoms: C_7  and  C_27 
REMARK    5  A    between atoms: N_8  and  C_11 
REMARK    6  A    between atoms: C_11  and  C_12 
REMARK       I    between atoms: C_12  and  N_13 
REMARK    7  A    between atoms: N_13  and  C_14 
REMARK    8  A    between atoms: C_17  and  N_18 
ROOT
HETATM    1  N   UNL     1     -33.612  41.613 -51.142  1.00  0.00    -0.055 N 
HETATM    2  H   UNL     1     -33.237  41.891 -50.219  1.00  0.00     0.278 HD
HETATM    3  H   UNL     1     -32.881  41.913 -51.795  1.00  0.00     0.278 HD
ENDROOT
BRANCH   1   4
HETATM    4  C   UNL     1     -33.730  40.125 -51.167  1.00  0.00     0.252 C 
BRANCH   4   5
HETATM    5  C   UNL     1     -33.173  39.476 -52.428  1.00  0.00    -0.023 A 
HETATM    6  C   UNL     1     -33.644  38.250 -52.934  1.00  0.00     0.012 A 
HETATM    7  C   UNL     1     -33.102  37.692 -54.100  1.00  0.00     0.037 A 
HETATM    8  C   UNL     1     -32.090  38.354 -54.789  1.00  0.00     0.068 A 
HETATM    9  C   UNL     1     -31.622  39.573 -54.302  1.00  0.00     0.037 A 
HETATM   10  C   UNL     1     -32.159  40.135 -53.140  1.00  0.00     0.012 A 
BRANCH   8  11
HETATM   11  O   UNL     1     -31.479  37.922 -55.931  1.00  0.00    -0.356 OA
HETATM   12  C   UNL     1     -31.158  38.903 -56.910  1.00  0.00     0.210 C 
ENDBRANCH   8  11
ENDBRANCH   4   5
BRANCH   4  13
HETATM   13  C   UNL     1     -33.166  39.567 -49.871  1.00  0.00    -0.023 A 
HETATM   14  C   UNL     1     -33.904  38.611 -49.149  1.00  0.00     0.009 A 
HETATM   15  C   UNL     1     -33.446  38.133 -47.920  1.00  0.00     0.001 A 
HETATM   16  C   UNL     1     -32.247  38.602 -47.390  1.00  0.00     0.000 A 
HETATM   17  C   UNL     1     -31.505  39.551 -48.087  1.00  0.00     0.001 A 
HETATM   18  C   UNL     1     -31.960  40.034 -49.315  1.00  0.00     0.009 A 
ENDBRANCH   4  13
ENDBRANCH   1   4
BRANCH   1  19
HETATM   19  C   UNL     1     -34.874  42.407 -51.339  1.00  0.00     0.336 C 
BRANCH  19  20
HETATM   20  C   UNL     1     -35.587  41.882 -52.584  1.00  0.00     0.248 C 
HETATM   21  N   UNL     1     -34.982  42.222 -53.776  1.00  0.00    -0.326 N 
HETATM   22  H   UNL     1     -34.163  42.819 -53.763  1.00  0.00     0.169 HD
HETATM   23  O   UNL     1     -36.671  41.326 -52.426  1.00  0.00    -0.271 OA
BRANCH  21  24
HETATM   24  C   UNL     1     -35.422  41.868 -55.070  1.00  0.00     0.034 A 
HETATM   25  C   UNL     1     -36.627  42.286 -55.626  1.00  0.00     0.032 A 
HETATM   26  C   UNL     1     -37.013  41.843 -56.902  1.00  0.00     0.032 A 
HETATM   27  C   UNL     1     -36.204  40.986 -57.657  1.00  0.00     0.037 A 
HETATM   28  C   UNL     1     -34.979  40.600 -57.098  1.00  0.00     0.032 A 
HETATM   29  C   UNL     1     -34.600  41.020 -55.817  1.00  0.00     0.032 A 
BRANCH  27  30
HETATM   30  N   UNL     1     -36.601  40.508 -58.934  1.00  0.00    -0.318 N 
HETATM   31  C   UNL     1     -37.176  41.274 -59.963  1.00  0.00     0.224 C 
HETATM   32  O   UNL     1     -37.394  42.474 -60.001  1.00  0.00    -0.273 OA
HETATM   33  C   UNL     1     -37.600  40.325 -61.060  1.00  0.00     0.105 C 
HETATM   34  C   UNL     1     -36.780  39.083 -60.778  1.00  0.00     0.029 C 
HETATM   35  C   UNL     1     -36.626  39.102 -59.272  1.00  0.00     0.133 C 
ENDBRANCH  27  30
ENDBRANCH  21  24
ENDBRANCH  19  20
ENDBRANCH   1  19
TORSDOF 8
ENDMDL
MODEL 10
REMARK VINA RESULT:      -7.5      1.905      8.372
REMARK  8 active torsions:
REMARK  status: ('A' for Active; 'I' for Inactive)
REMARK    1  A    between atoms: O_2  and  C_3 
REMARK    2  A    between atoms: C_6  and  C_7 
REMARK    3  A    between atoms: C_7  and  N_8 
REMARK    4  A    between atoms: C_7  and  C_27 
REMARK    5  A    between atoms: N_8  and  C_11 
REMARK    6  A    between atoms: C_11  and  C_12 
REMARK       I    between atoms: C_12  and  N_13 
REMARK    7  A    between atoms: N_13  and  C_14 
REMARK    8  A    between atoms: C_17  and  N_18 
ROOT
HETATM    1  N   UNL     1     -43.026  59.640 -50.638  1.00  0.00    -0.055 N 
HETATM    2  H   UNL     1     -43.535  60.258 -49.983  1.00  0.00     0.278 HD
HETATM    3  H   UNL     1     -43.403  58.710 -50.428  1.00  0.00     0.278 HD
ENDROOT
BRANCH   1   4
HETATM    4  C   UNL     1     -43.395  60.031 -52.031  1.00  0.00     0.252 C 
BRANCH   4   5
HETATM    5  C   UNL     1     -43.304  58.896 -53.042  1.00  0.00    -0.023 A 
HETATM    6  C   UNL     1     -42.352  58.865 -54.079  1.00  0.00     0.012 A 
HETATM    7  C   UNL     1     -42.305  57.798 -54.986  1.00  0.00     0.037 A 
HETATM    8  C   UNL     1     -43.198  56.737 -54.868  1.00  0.00     0.068 A 
HETATM    9  C   UNL     1     -44.140  56.754 -53.839  1.00  0.00     0.037 A 
HETATM   10  C   UNL     1     -44.191  57.814 -52.931  1.00  0.00     0.012 A 
BRANCH   8  11
HETATM   11  O   UNL     1     -43.258  55.642 -55.680  1.00  0.00    -0.356 OA
HETATM   12  C   UNL     1     -42.905  54.386 -55.111  1.00  0.00     0.210 C 
ENDBRANCH   8  11
ENDBRANCH   4   5
BRANCH   4  13
HETATM   13  C   UNL     1     -44.739  60.742 -51.999  1.00  0.00    -0.023 A 
HETATM   14  C   UNL     1     -45.410  61.006 -53.207  1.00  0.00     0.009 A 
HETATM   15  C   UNL     1     -46.610  61.719 -53.216  1.00  0.00     0.001 A 
HETATM   16  C   UNL     1     -47.158  62.181 -52.023  1.00  0.00     0.000 A 
HETATM   17  C   UNL     1     -46.507  61.932 -50.819  1.00  0.00     0.001 A 
HETATM   18  C   UNL     1     -45.305  61.223 -50.805  1.00  0.00     0.009 A 
ENDBRANCH   4  13
ENDBRANCH   1   4
BRANCH   1  19
HETATM   19  C   UNL     1     -41.573  59.734 -50.258  1.00  0.00     0.336 C 
BRANCH  19  20
HETATM   20  C   UNL     1     -40.910  58.389 -50.548  1.00  0.00     0.248 C 
HETATM   21  N   UNL     1     -41.680  57.289 -50.234  1.00  0.00    -0.326 N 
HETATM   22  H   UNL     1     -42.585  57.428 -49.798  1.00  0.00     0.169 HD
HETATM   23  O   UNL     1     -39.735  58.401 -50.909  1.00  0.00    -0.271 OA
BRANCH  21  24
HETATM   24  C   UNL     1     -41.318  55.935 -50.402  1.00  0.00     0.034 A 
HETATM   25  C   UNL     1     -40.836  55.124 -49.380  1.00  0.00     0.032 A 
HETATM   26  C   UNL     1     -40.448  53.801 -49.646  1.00  0.00     0.032 A 
HETATM   27  C   UNL     1     -40.544  53.252 -50.930  1.00  0.00     0.037 A 
HETATM   28  C   UNL     1     -41.062  54.070 -51.942  1.00  0.00     0.032 A 
HETATM   29  C   UNL     1     -41.429  55.397 -51.687  1.00  0.00     0.032 A 
BRANCH  27  30
HETATM   30  N   UNL     1     -40.124  51.925 -51.214  1.00  0.00    -0.318 N 
HETATM   31  C   UNL     1     -39.705  51.440 -52.465  1.00  0.00     0.224 C 
HETATM   32  O   UNL     1     -39.561  52.041 -53.517  1.00  0.00    -0.273 OA
HETATM   33  C   UNL     1     -39.530  49.944 -52.342  1.00  0.00     0.105 C 
HETATM   34  C   UNL     1     -39.400  49.733 -50.847  1.00  0.00     0.029 C 
HETATM   35  C   UNL     1     -40.251  50.842 -50.265  1.00  0.00     0.133 C 
ENDBRANCH  27  30
ENDBRANCH  21  24
ENDBRANCH  19  20
ENDBRANCH   1  19
TORSDOF 8
ENDMDL
