MODEL 1
REMARK VINA RESULT:      -8.5      0.000      0.000
REMARK  9 active torsions:
REMARK  status: ('A' for Active; 'I' for Inactive)
REMARK    1  A    between atoms: C_2  and  C_3 
REMARK    2  A    between atoms: C_6  and  N_7 
REMARK       I    between atoms: N_7  and  C_8 
REMARK    3  A    between atoms: C_8  and  C_9 
REMARK    4  A    between atoms: C_9  and  S_10 
REMARK    5  A    between atoms: S_10  and  C_11 
REMARK    6  A    between atoms: C_15  and  C_16 
REMARK       I    between atoms: C_16  and  N_17 
REMARK    7  A    between atoms: N_17  and  C_18 
REMARK    8  A    between atoms: C_19  and  O_20 
REMARK    9  A    between atoms: C_27  and  C_28 
ROOT
HETATM    1  C   UNL     1     -42.667  58.591 -55.713  1.00  0.00     0.087 C 
HETATM    2  N   UNL     1     -41.959  59.644 -56.278  1.00  0.00    -0.353 N 
HETATM    3  C   UNL     1     -41.793  59.832 -57.643  1.00  0.00     0.019 C 
HETATM    4  C   UNL     1     -41.246  61.178 -58.060  1.00  0.00     0.069 C 
HETATM    5  C   UNL     1     -42.151  58.852 -58.504  1.00  0.00     0.046 C 
HETATM    6  C   UNL     1     -42.535  57.473 -57.973  1.00  0.00     0.104 C 
HETATM    7  C   UNL     1     -42.875  57.482 -56.472  1.00  0.00     0.055 C 
HETATM    8  C   UNL     1     -43.332  56.168 -55.860  1.00  0.00     0.019 C 
HETATM    9  N   UNL     1     -43.711  55.077 -55.353  1.00  0.00    -0.096 N 
HETATM   10  H   UNL     1     -41.871  60.491 -55.725  1.00  0.00     0.166 HD
ENDROOT
BRANCH   1  11
HETATM   11  S   UNL     1     -43.408  58.657 -54.117  1.00  0.00    -0.102 SA
BRANCH  11  12
HETATM   12  C   UNL     1     -42.159  58.131 -52.929  1.00  0.00     0.184 C 
BRANCH  12  13
HETATM   13  C   UNL     1     -42.106  56.659 -52.527  1.00  0.00     0.231 C 
HETATM   14  N   UNL     1     -40.920  55.995 -52.754  1.00  0.00    -0.327 N 
HETATM   15  H   UNL     1     -40.113  56.573 -52.966  1.00  0.00     0.169 HD
HETATM   16  O   UNL     1     -43.138  56.133 -52.110  1.00  0.00    -0.272 OA
BRANCH  14  17
HETATM   17  C   UNL     1     -40.752  54.605 -52.955  1.00  0.00     0.034 A 
HETATM   18  C   UNL     1     -40.664  54.003 -54.211  1.00  0.00     0.030 A 
HETATM   19  C   UNL     1     -40.288  52.659 -54.334  1.00  0.00     0.009 A 
HETATM   20  C   UNL     1     -39.996  51.892 -53.201  1.00  0.00    -0.058 A 
HETATM   21  C   UNL     1     -40.147  52.477 -51.940  1.00  0.00     0.009 A 
HETATM   22  C   UNL     1     -40.534  53.816 -51.819  1.00  0.00     0.030 A 
BRANCH  20  23
HETATM   23  C   UNL     1     -39.444  50.496 -53.342  1.00  0.00     0.034 C 
HETATM   24  C   UNL     1     -39.850  49.868 -54.670  1.00  0.00     0.010 C 
ENDBRANCH  20  23
ENDBRANCH  14  17
ENDBRANCH  12  13
ENDBRANCH  11  12
ENDBRANCH   1  11
BRANCH   6  25
HETATM   25  C   UNL     1     -43.634  56.788 -58.783  1.00  0.00    -0.044 A 
HETATM   26  C   UNL     1     -43.332  55.636 -59.532  1.00  0.00     0.008 A 
HETATM   27  C   UNL     1     -44.313  55.009 -60.300  1.00  0.00     0.001 A 
HETATM   28  C   UNL     1     -45.608  55.520 -60.327  1.00  0.00     0.000 A 
HETATM   29  C   UNL     1     -45.925  56.654 -59.583  1.00  0.00     0.001 A 
HETATM   30  C   UNL     1     -44.948  57.284 -58.812  1.00  0.00     0.008 A 
ENDBRANCH   6  25
BRANCH   5  31
HETATM   31  C   UNL     1     -42.458  59.260 -59.909  1.00  0.00     0.255 C 
HETATM   32  N   UNL     1     -43.467  60.175 -60.059  1.00  0.00    -0.321 N 
HETATM   33  H   UNL     1     -44.042  60.424 -59.263  1.00  0.00     0.169 HD
HETATM   34  O   UNL     1     -41.771  58.794 -60.814  1.00  0.00    -0.268 OA
BRANCH  32  35
HETATM   35  C   UNL     1     -43.768  60.907 -61.237  1.00  0.00     0.068 A 
HETATM   36  C   UNL     1     -45.025  60.691 -61.837  1.00  0.00     0.095 A 
HETATM   37  C   UNL     1     -45.389  61.427 -62.972  1.00  0.00     0.039 A 
HETATM   38  C   UNL     1     -44.512  62.364 -63.518  1.00  0.00     0.003 A 
HETATM   39  C   UNL     1     -43.268  62.574 -62.936  1.00  0.00     0.002 A 
HETATM   40  C   UNL     1     -42.900  61.851 -61.800  1.00  0.00     0.032 A 
BRANCH  36  41
HETATM   41  O   UNL     1     -45.823  59.749 -61.227  1.00  0.00    -0.354 OA
HETATM   42  C   UNL     1     -47.224  60.004 -61.252  1.00  0.00     0.210 C 
ENDBRANCH  36  41
ENDBRANCH  32  35
ENDBRANCH   5  31
TORSDOF 9
ENDMDL
MODEL 2
REMARK VINA RESULT:      -8.5      2.303     10.386
REMARK  9 active torsions:
REMARK  status: ('A' for Active; 'I' for Inactive)
REMARK    1  A    between atoms: C_2  and  C_3 
REMARK    2  A    between atoms: C_6  and  N_7 
REMARK       I    between atoms: N_7  and  C_8 
REMARK    3  A    between atoms: C_8  and  C_9 
REMARK    4  A    between atoms: C_9  and  S_10 
REMARK    5  A    between atoms: S_10  and  C_11 
REMARK    6  A    between atoms: C_15  and  C_16 
REMARK       I    between atoms: C_16  and  N_17 
REMARK    7  A    between atoms: N_17  and  C_18 
REMARK    8  A    between atoms: C_19  and  O_20 
REMARK    9  A    between atoms: C_27  and  C_28 
ROOT
HETATM    1  C   UNL     1     -43.479  57.554 -56.788  1.00  0.00     0.087 C 
HETATM    2  N   UNL     1     -43.392  56.168 -56.771  1.00  0.00    -0.353 N 
HETATM    3  C   UNL     1     -42.968  55.424 -55.679  1.00  0.00     0.019 C 
HETATM    4  C   UNL     1     -43.215  53.936 -55.760  1.00  0.00     0.069 C 
HETATM    5  C   UNL     1     -42.407  56.049 -54.619  1.00  0.00     0.046 C 
HETATM    6  C   UNL     1     -42.050  57.532 -54.708  1.00  0.00     0.104 C 
HETATM    7  C   UNL     1     -42.761  58.250 -55.868  1.00  0.00     0.055 C 
HETATM    8  C   UNL     1     -42.522  59.745 -56.004  1.00  0.00     0.019 C 
HETATM    9  N   UNL     1     -42.322  60.986 -56.115  1.00  0.00    -0.096 N 
HETATM   10  H   UNL     1     -43.986  55.659 -57.419  1.00  0.00     0.166 HD
ENDROOT
BRANCH   1  11
HETATM   11  S   UNL     1     -44.555  58.451 -57.855  1.00  0.00    -0.102 SA
BRANCH  11  12
HETATM   12  C   UNL     1     -43.846  58.377 -59.510  1.00  0.00     0.184 C 
BRANCH  12  13
HETATM   13  C   UNL     1     -42.523  59.092 -59.772  1.00  0.00     0.231 C 
HETATM   14  N   UNL     1     -42.453  60.422 -59.418  1.00  0.00    -0.327 N 
HETATM   15  H   UNL     1     -43.198  60.769 -58.821  1.00  0.00     0.169 HD
HETATM   16  O   UNL     1     -41.633  58.472 -60.355  1.00  0.00    -0.272 OA
BRANCH  14  17
HETATM   17  C   UNL     1     -41.603  61.405 -59.976  1.00  0.00     0.034 A 
HETATM   18  C   UNL     1     -40.611  62.076 -59.259  1.00  0.00     0.030 A 
HETATM   19  C   UNL     1     -39.671  62.877 -59.921  1.00  0.00     0.009 A 
HETATM   20  C   UNL     1     -39.709  63.023 -61.311  1.00  0.00    -0.058 A 
HETATM   21  C   UNL     1     -40.742  62.403 -62.021  1.00  0.00     0.009 A 
HETATM   22  C   UNL     1     -41.687  61.613 -61.357  1.00  0.00     0.030 A 
BRANCH  20  23
HETATM   23  C   UNL     1     -38.610  63.758 -62.036  1.00  0.00     0.034 C 
HETATM   24  C   UNL     1     -38.650  63.483 -63.535  1.00  0.00     0.010 C 
ENDBRANCH  20  23
ENDBRANCH  14  17
ENDBRANCH  12  13
ENDBRANCH  11  12
ENDBRANCH   1  11
BRANCH   6  25
HETATM   25  C   UNL     1     -42.236  58.288 -53.393  1.00  0.00    -0.044 A 
HETATM   26  C   UNL     1     -41.108  58.743 -52.685  1.00  0.00     0.008 A 
HETATM   27  C   UNL     1     -41.253  59.412 -51.471  1.00  0.00     0.001 A 
HETATM   28  C   UNL     1     -42.523  59.640 -50.949  1.00  0.00     0.000 A 
HETATM   29  C   UNL     1     -43.650  59.204 -51.642  1.00  0.00     0.001 A 
HETATM   30  C   UNL     1     -43.511  58.536 -52.859  1.00  0.00     0.008 A 
ENDBRANCH   6  25
BRANCH   5  31
HETATM   31  C   UNL     1     -42.456  55.337 -53.305  1.00  0.00     0.255 C 
HETATM   32  N   UNL     1     -41.247  55.124 -52.695  1.00  0.00    -0.321 N 
HETATM   33  H   UNL     1     -40.389  55.318 -53.197  1.00  0.00     0.169 HD
HETATM   34  O   UNL     1     -43.555  55.035 -52.848  1.00  0.00    -0.268 OA
BRANCH  32  35
HETATM   35  C   UNL     1     -41.047  54.716 -51.350  1.00  0.00     0.068 A 
HETATM   36  C   UNL     1     -40.537  53.421 -51.130  1.00  0.00     0.095 A 
HETATM   37  C   UNL     1     -40.274  52.991 -49.822  1.00  0.00     0.039 A 
HETATM   38  C   UNL     1     -40.522  53.832 -48.738  1.00  0.00     0.003 A 
HETATM   39  C   UNL     1     -41.033  55.107 -48.950  1.00  0.00     0.002 A 
HETATM   40  C   UNL     1     -41.292  55.546 -50.249  1.00  0.00     0.032 A 
BRANCH  36  41
HETATM   41  O   UNL     1     -40.321  52.664 -52.259  1.00  0.00    -0.354 OA
HETATM   42  C   UNL     1     -39.465  51.538 -52.105  1.00  0.00     0.210 C 
ENDBRANCH  36  41
ENDBRANCH  32  35
ENDBRANCH   5  31
TORSDOF 9
ENDMDL
MODEL 3
REMARK VINA RESULT:      -8.4      1.876      2.863
REMARK  9 active torsions:
REMARK  status: ('A' for Active; 'I' for Inactive)
REMARK    1  A    between atoms: C_2  and  C_3 
REMARK    2  A    between atoms: C_6  and  N_7 
REMARK       I    between atoms: N_7  and  C_8 
REMARK    3  A    between atoms: C_8  and  C_9 
REMARK    4  A    between atoms: C_9  and  S_10 
REMARK    5  A    between atoms: S_10  and  C_11 
REMARK    6  A    between atoms: C_15  and  C_16 
REMARK       I    between atoms: C_16  and  N_17 
REMARK    7  A    between atoms: N_17  and  C_18 
REMARK    8  A    between atoms: C_19  and  O_20 
REMARK    9  A    between atoms: C_27  and  C_28 
ROOT
HETATM    1  C   UNL     1     -43.397  57.761 -54.287  1.00  0.00     0.087 C 
HETATM    2  N   UNL     1     -43.018  59.093 -54.194  1.00  0.00    -0.353 N 
HETATM    3  C   UNL     1     -42.705  59.896 -55.282  1.00  0.00     0.019 C 
HETATM    4  C   UNL     1     -42.599  61.377 -54.999  1.00  0.00     0.069 C 
HETATM    5  C   UNL     1     -42.551  59.338 -56.504  1.00  0.00     0.046 C 
HETATM    6  C   UNL     1     -42.513  57.818 -56.650  1.00  0.00     0.104 C 
HETATM    7  C   UNL     1     -43.078  57.084 -55.422  1.00  0.00     0.055 C 
HETATM    8  C   UNL     1     -43.143  55.567 -55.494  1.00  0.00     0.019 C 
HETATM    9  N   UNL     1     -43.196  54.308 -55.556  1.00  0.00    -0.096 N 
HETATM   10  H   UNL     1     -43.323  59.604 -53.371  1.00  0.00     0.166 HD
ENDROOT
BRANCH   1  11
HETATM   11  S   UNL     1     -44.368  56.934 -53.072  1.00  0.00    -0.102 SA
BRANCH  11  12
HETATM   12  C   UNL     1     -43.333  56.733 -51.611  1.00  0.00     0.184 C 
BRANCH  12  13
HETATM   13  C   UNL     1     -42.697  55.371 -51.347  1.00  0.00     0.231 C 
HETATM   14  N   UNL     1     -41.370  55.225 -51.695  1.00  0.00    -0.327 N 
HETATM   15  H   UNL     1     -40.861  56.080 -51.896  1.00  0.00     0.169 HD
HETATM   16  O   UNL     1     -43.417  54.466 -50.925  1.00  0.00    -0.272 OA
BRANCH  14  17
HETATM   17  C   UNL     1     -40.710  54.020 -52.030  1.00  0.00     0.034 A 
HETATM   18  C   UNL     1     -40.221  53.111 -51.090  1.00  0.00     0.030 A 
HETATM   19  C   UNL     1     -39.770  51.846 -51.488  1.00  0.00     0.009 A 
HETATM   20  C   UNL     1     -39.796  51.469 -52.834  1.00  0.00    -0.058 A 
HETATM   21  C   UNL     1     -40.224  52.404 -53.782  1.00  0.00     0.009 A 
HETATM   22  C   UNL     1     -40.663  53.671 -53.384  1.00  0.00     0.030 A 
BRANCH  20  23
HETATM   23  C   UNL     1     -39.456  50.058 -53.243  1.00  0.00     0.034 C 
HETATM   24  C   UNL     1     -39.819  49.798 -54.700  1.00  0.00     0.010 C 
ENDBRANCH  20  23
ENDBRANCH  14  17
ENDBRANCH  12  13
ENDBRANCH  11  12
ENDBRANCH   1  11
BRANCH   6  25
HETATM   25  C   UNL     1     -43.153  57.309 -57.940  1.00  0.00    -0.044 A 
HETATM   26  C   UNL     1     -44.548  57.393 -58.106  1.00  0.00     0.008 A 
HETATM   27  C   UNL     1     -45.157  56.912 -59.265  1.00  0.00     0.001 A 
HETATM   28  C   UNL     1     -44.384  56.345 -60.274  1.00  0.00     0.000 A 
HETATM   29  C   UNL     1     -43.001  56.263 -60.129  1.00  0.00     0.001 A 
HETATM   30  C   UNL     1     -42.386  56.745 -58.973  1.00  0.00     0.008 A 
ENDBRANCH   6  25
BRANCH   5  31
HETATM   31  C   UNL     1     -42.744  60.231 -57.688  1.00  0.00     0.255 C 
HETATM   32  N   UNL     1     -41.667  60.353 -58.527  1.00  0.00    -0.321 N 
HETATM   33  H   UNL     1     -40.771  59.968 -58.254  1.00  0.00     0.169 HD
HETATM   34  O   UNL     1     -43.845  60.750 -57.852  1.00  0.00    -0.268 OA
BRANCH  32  35
HETATM   35  C   UNL     1     -41.679  60.915 -59.831  1.00  0.00     0.068 A 
HETATM   36  C   UNL     1     -40.937  62.096 -60.039  1.00  0.00     0.095 A 
HETATM   37  C   UNL     1     -40.875  62.661 -61.319  1.00  0.00     0.039 A 
HETATM   38  C   UNL     1     -41.551  62.069 -62.387  1.00  0.00     0.003 A 
HETATM   39  C   UNL     1     -42.290  60.910 -62.184  1.00  0.00     0.002 A 
HETATM   40  C   UNL     1     -42.352  60.336 -60.913  1.00  0.00     0.032 A 
BRANCH  36  41
HETATM   41  O   UNL     1     -40.302  62.605 -58.928  1.00  0.00    -0.354 OA
HETATM   42  C   UNL     1     -40.903  63.751 -58.334  1.00  0.00     0.210 C 
ENDBRANCH  36  41
ENDBRANCH  32  35
ENDBRANCH   5  31
TORSDOF 9
ENDMDL
MODEL 4
REMARK VINA RESULT:      -8.3      2.708      4.090
REMARK  9 active torsions:
REMARK  status: ('A' for Active; 'I' for Inactive)
REMARK    1  A    between atoms: C_2  and  C_3 
REMARK    2  A    between atoms: C_6  and  N_7 
REMARK       I    between atoms: N_7  and  C_8 
REMARK    3  A    between atoms: C_8  and  C_9 
REMARK    4  A    between atoms: C_9  and  S_10 
REMARK    5  A    between atoms: S_10  and  C_11 
REMARK    6  A    between atoms: C_15  and  C_16 
REMARK       I    between atoms: C_16  and  N_17 
REMARK    7  A    between atoms: N_17  and  C_18 
REMARK    8  A    between atoms: C_19  and  O_20 
REMARK    9  A    between atoms: C_27  and  C_28 
ROOT
HETATM    1  C   UNL     1     -43.428  60.550 -53.690  1.00  0.00     0.087 C 
HETATM    2  N   UNL     1     -44.457  61.206 -54.352  1.00  0.00    -0.353 N 
HETATM    3  C   UNL     1     -45.104  60.712 -55.476  1.00  0.00     0.019 C 
HETATM    4  C   UNL     1     -46.374  61.429 -55.873  1.00  0.00     0.069 C 
HETATM    5  C   UNL     1     -44.604  59.631 -56.117  1.00  0.00     0.046 C 
HETATM    6  C   UNL     1     -43.229  59.086 -55.736  1.00  0.00     0.104 C 
HETATM    7  C   UNL     1     -42.744  59.588 -54.365  1.00  0.00     0.055 C 
HETATM    8  C   UNL     1     -41.413  59.052 -53.865  1.00  0.00     0.019 C 
HETATM    9  N   UNL     1     -40.307  58.607 -53.452  1.00  0.00    -0.096 N 
HETATM   10  H   UNL     1     -45.002  61.873 -53.814  1.00  0.00     0.166 HD
ENDROOT
BRANCH   1  11
HETATM   11  S   UNL     1     -43.037  60.810 -51.993  1.00  0.00    -0.102 SA
BRANCH  11  12
HETATM   12  C   UNL     1     -44.156  59.781 -51.025  1.00  0.00     0.184 C 
BRANCH  12  13
HETATM   13  C   UNL     1     -44.181  58.278 -51.291  1.00  0.00     0.231 C 
HETATM   14  N   UNL     1     -43.221  57.517 -50.657  1.00  0.00    -0.327 N 
HETATM   15  H   UNL     1     -42.713  57.970 -49.903  1.00  0.00     0.169 HD
HETATM   16  O   UNL     1     -44.989  57.847 -52.113  1.00  0.00    -0.272 OA
BRANCH  14  17
HETATM   17  C   UNL     1     -42.707  56.271 -51.085  1.00  0.00     0.034 A 
HETATM   18  C   UNL     1     -43.429  55.077 -51.054  1.00  0.00     0.030 A 
HETATM   19  C   UNL     1     -42.936  53.928 -51.687  1.00  0.00     0.009 A 
HETATM   20  C   UNL     1     -41.710  53.954 -52.360  1.00  0.00    -0.058 A 
HETATM   21  C   UNL     1     -40.958  55.132 -52.336  1.00  0.00     0.009 A 
HETATM   22  C   UNL     1     -41.446  56.275 -51.693  1.00  0.00     0.030 A 
BRANCH  20  23
HETATM   23  C   UNL     1     -41.254  52.766 -53.169  1.00  0.00     0.034 C 
HETATM   24  C   UNL     1     -40.297  53.183 -54.280  1.00  0.00     0.010 C 
ENDBRANCH  20  23
ENDBRANCH  14  17
ENDBRANCH  12  13
ENDBRANCH  11  12
ENDBRANCH   1  11
BRANCH   6  25
HETATM   25  C   UNL     1     -43.122  57.565 -55.837  1.00  0.00    -0.044 A 
HETATM   26  C   UNL     1     -42.504  56.982 -56.958  1.00  0.00     0.008 A 
HETATM   27  C   UNL     1     -42.418  55.596 -57.082  1.00  0.00     0.001 A 
HETATM   28  C   UNL     1     -42.944  54.774 -56.090  1.00  0.00     0.000 A 
HETATM   29  C   UNL     1     -43.550  55.336 -54.969  1.00  0.00     0.001 A 
HETATM   30  C   UNL     1     -43.637  56.722 -54.838  1.00  0.00     0.008 A 
ENDBRANCH   6  25
BRANCH   5  31
HETATM   31  C   UNL     1     -45.558  58.831 -56.946  1.00  0.00     0.255 C 
HETATM   32  N   UNL     1     -45.315  58.822 -58.295  1.00  0.00    -0.321 N 
HETATM   33  H   UNL     1     -44.617  59.445 -58.684  1.00  0.00     0.169 HD
HETATM   34  O   UNL     1     -46.450  58.212 -56.373  1.00  0.00    -0.268 OA
BRANCH  32  35
HETATM   35  C   UNL     1     -45.900  57.947 -59.247  1.00  0.00     0.068 A 
HETATM   36  C   UNL     1     -46.970  58.444 -60.019  1.00  0.00     0.095 A 
HETATM   37  C   UNL     1     -47.547  57.636 -61.008  1.00  0.00     0.039 A 
HETATM   38  C   UNL     1     -47.077  56.340 -61.225  1.00  0.00     0.003 A 
HETATM   39  C   UNL     1     -46.029  55.844 -60.461  1.00  0.00     0.002 A 
HETATM   40  C   UNL     1     -45.443  56.644 -59.478  1.00  0.00     0.032 A 
BRANCH  36  41
HETATM   41  O   UNL     1     -47.363  59.732 -59.735  1.00  0.00    -0.354 OA
HETATM   42  C   UNL     1     -47.198  60.683 -60.782  1.00  0.00     0.210 C 
ENDBRANCH  36  41
ENDBRANCH  32  35
ENDBRANCH   5  31
TORSDOF 9
ENDMDL
MODEL 5
REMARK VINA RESULT:      -8.2      3.654      9.647
REMARK  9 active torsions:
REMARK  status: ('A' for Active; 'I' for Inactive)
REMARK    1  A    between atoms: C_2  and  C_3 
REMARK    2  A    between atoms: C_6  and  N_7 
REMARK       I    between atoms: N_7  and  C_8 
REMARK    3  A    between atoms: C_8  and  C_9 
REMARK    4  A    between atoms: C_9  and  S_10 
REMARK    5  A    between atoms: S_10  and  C_11 
REMARK    6  A    between atoms: C_15  and  C_16 
REMARK       I    between atoms: C_16  and  N_17 
REMARK    7  A    between atoms: N_17  and  C_18 
REMARK    8  A    between atoms: C_19  and  O_20 
REMARK    9  A    between atoms: C_27  and  C_28 
ROOT
HETATM    1  C   UNL     1     -43.298  57.107 -57.037  1.00  0.00     0.087 C 
HETATM    2  N   UNL     1     -43.363  55.723 -56.940  1.00  0.00    -0.353 N 
HETATM    3  C   UNL     1     -42.965  54.997 -55.825  1.00  0.00     0.019 C 
HETATM    4  C   UNL     1     -43.380  53.544 -55.803  1.00  0.00     0.069 C 
HETATM    5  C   UNL     1     -42.282  55.612 -54.833  1.00  0.00     0.046 C 
HETATM    6  C   UNL     1     -41.769  57.038 -55.029  1.00  0.00     0.104 C 
HETATM    7  C   UNL     1     -42.459  57.767 -56.196  1.00  0.00     0.055 C 
HETATM    8  C   UNL     1     -42.063  59.215 -56.434  1.00  0.00     0.019 C 
HETATM    9  N   UNL     1     -41.734  60.417 -56.631  1.00  0.00    -0.096 N 
HETATM   10  H   UNL     1     -44.044  55.250 -57.526  1.00  0.00     0.166 HD
ENDROOT
BRANCH   1  11
HETATM   11  S   UNL     1     -44.324  58.060 -58.104  1.00  0.00    -0.102 SA
BRANCH  11  12
HETATM   12  C   UNL     1     -45.868  58.365 -57.226  1.00  0.00     0.184 C 
BRANCH  12  13
HETATM   13  C   UNL     1     -45.802  58.848 -55.779  1.00  0.00     0.231 C 
HETATM   14  N   UNL     1     -46.002  60.195 -55.563  1.00  0.00    -0.327 N 
HETATM   15  H   UNL     1     -46.386  60.724 -56.340  1.00  0.00     0.169 HD
HETATM   16  O   UNL     1     -45.494  58.034 -54.908  1.00  0.00    -0.272 OA
BRANCH  14  17
HETATM   17  C   UNL     1     -45.519  60.959 -54.476  1.00  0.00     0.034 A 
HETATM   18  C   UNL     1     -46.199  61.112 -53.266  1.00  0.00     0.030 A 
HETATM   19  C   UNL     1     -45.569  61.704 -52.163  1.00  0.00     0.009 A 
HETATM   20  C   UNL     1     -44.249  62.157 -52.252  1.00  0.00    -0.058 A 
HETATM   21  C   UNL     1     -43.591  62.062 -53.483  1.00  0.00     0.009 A 
HETATM   22  C   UNL     1     -44.226  61.482 -54.586  1.00  0.00     0.030 A 
BRANCH  20  23
HETATM   23  C   UNL     1     -43.523  62.651 -51.027  1.00  0.00     0.034 C 
HETATM   24  C   UNL     1     -43.956  61.890 -49.779  1.00  0.00     0.010 C 
ENDBRANCH  20  23
ENDBRANCH  14  17
ENDBRANCH  12  13
ENDBRANCH  11  12
ENDBRANCH   1  11
BRANCH   6  25
HETATM   25  C   UNL     1     -41.799  57.881 -53.756  1.00  0.00    -0.044 A 
HETATM   26  C   UNL     1     -40.601  58.411 -53.243  1.00  0.00     0.008 A 
HETATM   27  C   UNL     1     -40.601  59.162 -52.068  1.00  0.00     0.001 A 
HETATM   28  C   UNL     1     -41.795  59.399 -51.393  1.00  0.00     0.000 A 
HETATM   29  C   UNL     1     -42.991  58.889 -51.893  1.00  0.00     0.001 A 
HETATM   30  C   UNL     1     -42.997  58.139 -53.070  1.00  0.00     0.008 A 
ENDBRANCH   6  25
BRANCH   5  31
HETATM   31  C   UNL     1     -42.339  54.984 -53.477  1.00  0.00     0.255 C 
HETATM   32  N   UNL     1     -41.133  54.807 -52.850  1.00  0.00    -0.321 N 
HETATM   33  H   UNL     1     -40.273  54.967 -53.359  1.00  0.00     0.169 HD
HETATM   34  O   UNL     1     -43.440  54.714 -53.007  1.00  0.00    -0.268 OA
BRANCH  32  35
HETATM   35  C   UNL     1     -40.940  54.484 -51.481  1.00  0.00     0.068 A 
HETATM   36  C   UNL     1     -40.492  53.183 -51.174  1.00  0.00     0.095 A 
HETATM   37  C   UNL     1     -40.237  52.833 -49.842  1.00  0.00     0.039 A 
HETATM   38  C   UNL     1     -40.433  53.759 -48.817  1.00  0.00     0.003 A 
HETATM   39  C   UNL     1     -40.882  55.039 -49.114  1.00  0.00     0.002 A 
HETATM   40  C   UNL     1     -41.132  55.400 -50.439  1.00  0.00     0.032 A 
BRANCH  36  41
HETATM   41  O   UNL     1     -40.326  52.340 -52.250  1.00  0.00    -0.354 OA
HETATM   42  C   UNL     1     -39.343  51.321 -52.101  1.00  0.00     0.210 C 
ENDBRANCH  36  41
ENDBRANCH  32  35
ENDBRANCH   5  31
TORSDOF 9
ENDMDL
MODEL 6
REMARK VINA RESULT:      -8.2      2.496      4.166
REMARK  9 active torsions:
REMARK  status: ('A' for Active; 'I' for Inactive)
REMARK    1  A    between atoms: C_2  and  C_3 
REMARK    2  A    between atoms: C_6  and  N_7 
REMARK       I    between atoms: N_7  and  C_8 
REMARK    3  A    between atoms: C_8  and  C_9 
REMARK    4  A    between atoms: C_9  and  S_10 
REMARK    5  A    between atoms: S_10  and  C_11 
REMARK    6  A    between atoms: C_15  and  C_16 
REMARK       I    between atoms: C_16  and  N_17 
REMARK    7  A    between atoms: N_17  and  C_18 
REMARK    8  A    between atoms: C_19  and  O_20 
REMARK    9  A    between atoms: C_27  and  C_28 
ROOT
HETATM    1  C   UNL     1     -42.730  58.425 -54.382  1.00  0.00     0.087 C 
HETATM    2  N   UNL     1     -42.705  57.229 -55.087  1.00  0.00    -0.353 N 
HETATM    3  C   UNL     1     -43.433  56.987 -56.244  1.00  0.00     0.019 C 
HETATM    4  C   UNL     1     -43.052  55.744 -57.014  1.00  0.00     0.069 C 
HETATM    5  C   UNL     1     -44.388  57.863 -56.630  1.00  0.00     0.046 C 
HETATM    6  C   UNL     1     -44.808  58.996 -55.696  1.00  0.00     0.104 C 
HETATM    7  C   UNL     1     -43.786  59.258 -54.575  1.00  0.00     0.055 C 
HETATM    8  C   UNL     1     -44.082  60.410 -53.628  1.00  0.00     0.019 C 
HETATM    9  N   UNL     1     -44.328  61.366 -52.843  1.00  0.00    -0.096 N 
HETATM   10  H   UNL     1     -41.877  56.649 -54.985  1.00  0.00     0.166 HD
ENDROOT
BRANCH   1  11
HETATM   11  S   UNL     1     -41.418  58.974 -53.344  1.00  0.00    -0.102 SA
BRANCH  11  12
HETATM   12  C   UNL     1     -41.546  58.058 -51.797  1.00  0.00     0.184 C 
BRANCH  12  13
HETATM   13  C   UNL     1     -41.828  56.559 -51.855  1.00  0.00     0.231 C 
HETATM   14  N   UNL     1     -40.742  55.727 -52.027  1.00  0.00    -0.327 N 
HETATM   15  H   UNL     1     -39.828  56.146 -51.887  1.00  0.00     0.169 HD
HETATM   16  O   UNL     1     -43.002  56.188 -51.833  1.00  0.00    -0.272 OA
BRANCH  14  17
HETATM   17  C   UNL     1     -40.747  54.434 -52.600  1.00  0.00     0.034 A 
HETATM   18  C   UNL     1     -41.052  54.174 -53.937  1.00  0.00     0.030 A 
HETATM   19  C   UNL     1     -40.833  52.903 -54.484  1.00  0.00     0.009 A 
HETATM   20  C   UNL     1     -40.306  51.869 -53.703  1.00  0.00    -0.058 A 
HETATM   21  C   UNL     1     -40.061  52.113 -52.348  1.00  0.00     0.009 A 
HETATM   22  C   UNL     1     -40.293  53.379 -51.800  1.00  0.00     0.030 A 
BRANCH  20  23
HETATM   23  C   UNL     1     -39.927  50.552 -54.330  1.00  0.00     0.034 C 
HETATM   24  C   UNL     1     -39.555  49.519 -53.272  1.00  0.00     0.010 C 
ENDBRANCH  20  23
ENDBRANCH  14  17
ENDBRANCH  12  13
ENDBRANCH  11  12
ENDBRANCH   1  11
BRANCH   6  25
HETATM   25  C   UNL     1     -45.173  60.289 -56.424  1.00  0.00    -0.044 A 
HETATM   26  C   UNL     1     -46.526  60.615 -56.631  1.00  0.00     0.008 A 
HETATM   27  C   UNL     1     -46.881  61.776 -57.315  1.00  0.00     0.001 A 
HETATM   28  C   UNL     1     -45.893  62.630 -57.798  1.00  0.00     0.000 A 
HETATM   29  C   UNL     1     -44.549  62.326 -57.593  1.00  0.00     0.001 A 
HETATM   30  C   UNL     1     -44.188  61.166 -56.907  1.00  0.00     0.008 A 
ENDBRANCH   6  25
BRANCH   5  31
HETATM   31  C   UNL     1     -44.760  57.869 -58.079  1.00  0.00     0.255 C 
HETATM   32  N   UNL     1     -46.031  57.450 -58.372  1.00  0.00    -0.321 N 
HETATM   33  H   UNL     1     -46.603  57.033 -57.647  1.00  0.00     0.169 HD
HETATM   34  O   UNL     1     -43.935  58.282 -58.890  1.00  0.00    -0.268 OA
BRANCH  32  35
HETATM   35  C   UNL     1     -46.702  57.609 -59.613  1.00  0.00     0.068 A 
HETATM   36  C   UNL     1     -46.784  56.485 -60.459  1.00  0.00     0.095 A 
HETATM   37  C   UNL     1     -47.480  56.578 -61.672  1.00  0.00     0.039 A 
HETATM   38  C   UNL     1     -48.084  57.777 -62.050  1.00  0.00     0.003 A 
HETATM   39  C   UNL     1     -47.998  58.890 -61.223  1.00  0.00     0.002 A 
HETATM   40  C   UNL     1     -47.313  58.805 -60.010  1.00  0.00     0.032 A 
BRANCH  36  41
HETATM   41  O   UNL     1     -46.161  55.346 -60.001  1.00  0.00    -0.354 OA
HETATM   42  C   UNL     1     -45.004  54.933 -60.720  1.00  0.00     0.210 C 
ENDBRANCH  36  41
ENDBRANCH  32  35
ENDBRANCH   5  31
TORSDOF 9
ENDMDL
MODEL 7
REMARK VINA RESULT:      -8.2      4.988      7.920
REMARK  9 active torsions:
REMARK  status: ('A' for Active; 'I' for Inactive)
REMARK    1  A    between atoms: C_2  and  C_3 
REMARK    2  A    between atoms: C_6  and  N_7 
REMARK       I    between atoms: N_7  and  C_8 
REMARK    3  A    between atoms: C_8  and  C_9 
REMARK    4  A    between atoms: C_9  and  S_10 
REMARK    5  A    between atoms: S_10  and  C_11 
REMARK    6  A    between atoms: C_15  and  C_16 
REMARK       I    between atoms: C_16  and  N_17 
REMARK    7  A    between atoms: N_17  and  C_18 
REMARK    8  A    between atoms: C_19  and  O_20 
REMARK    9  A    between atoms: C_27  and  C_28 
ROOT
HETATM    1  C   UNL     1     -44.144  58.744 -52.608  1.00  0.00     0.087 C 
HETATM    2  N   UNL     1     -44.473  59.551 -53.689  1.00  0.00    -0.353 N 
HETATM    3  C   UNL     1     -44.040  59.331 -54.989  1.00  0.00     0.019 C 
HETATM    4  C   UNL     1     -44.732  60.143 -56.060  1.00  0.00     0.069 C 
HETATM    5  C   UNL     1     -43.080  58.410 -55.230  1.00  0.00     0.046 C 
HETATM    6  C   UNL     1     -42.330  57.767 -54.065  1.00  0.00     0.104 C 
HETATM    7  C   UNL     1     -43.052  57.943 -52.717  1.00  0.00     0.055 C 
HETATM    8  C   UNL     1     -42.417  57.284 -51.503  1.00  0.00     0.019 C 
HETATM    9  N   UNL     1     -41.889  56.737 -50.497  1.00  0.00    -0.096 N 
HETATM   10  H   UNL     1     -45.329  60.092 -53.619  1.00  0.00     0.166 HD
ENDROOT
BRANCH   1  11
HETATM   11  S   UNL     1     -45.127  58.614 -51.152  1.00  0.00    -0.102 SA
BRANCH  11  12
HETATM   12  C   UNL     1     -45.431  60.290 -50.564  1.00  0.00     0.184 C 
BRANCH  12  13
HETATM   13  C   UNL     1     -44.759  60.744 -49.271  1.00  0.00     0.231 C 
HETATM   14  N   UNL     1     -45.449  60.519 -48.098  1.00  0.00    -0.327 N 
HETATM   15  H   UNL     1     -46.240  59.885 -48.156  1.00  0.00     0.169 HD
HETATM   16  O   UNL     1     -43.693  61.356 -49.353  1.00  0.00    -0.272 OA
BRANCH  14  17
HETATM   17  C   UNL     1     -45.327  61.244 -46.890  1.00  0.00     0.034 A 
HETATM   18  C   UNL     1     -44.759  60.728 -45.724  1.00  0.00     0.030 A 
HETATM   19  C   UNL     1     -44.479  61.565 -44.636  1.00  0.00     0.009 A 
HETATM   20  C   UNL     1     -44.766  62.932 -44.694  1.00  0.00    -0.058 A 
HETATM   21  C   UNL     1     -45.394  63.437 -45.837  1.00  0.00     0.009 A 
HETATM   22  C   UNL     1     -45.684  62.597 -46.918  1.00  0.00     0.030 A 
BRANCH  20  23
HETATM   23  C   UNL     1     -44.325  63.856 -43.587  1.00  0.00     0.034 C 
HETATM   24  C   UNL     1     -43.257  63.208 -42.713  1.00  0.00     0.010 C 
ENDBRANCH  20  23
ENDBRANCH  14  17
ENDBRANCH  12  13
ENDBRANCH  11  12
ENDBRANCH   1  11
BRANCH   6  25
HETATM   25  C   UNL     1     -41.959  56.305 -54.305  1.00  0.00    -0.044 A 
HETATM   26  C   UNL     1     -42.951  55.311 -54.224  1.00  0.00     0.008 A 
HETATM   27  C   UNL     1     -42.631  53.968 -54.415  1.00  0.00     0.001 A 
HETATM   28  C   UNL     1     -41.318  53.598 -54.693  1.00  0.00     0.000 A 
HETATM   29  C   UNL     1     -40.325  54.570 -54.786  1.00  0.00     0.001 A 
HETATM   30  C   UNL     1     -40.641  55.917 -54.598  1.00  0.00     0.008 A 
ENDBRANCH   6  25
BRANCH   5  31
HETATM   31  C   UNL     1     -43.021  57.833 -56.608  1.00  0.00     0.255 C 
HETATM   32  N   UNL     1     -44.036  56.973 -56.940  1.00  0.00    -0.321 N 
HETATM   33  H   UNL     1     -44.682  56.659 -56.226  1.00  0.00     0.169 HD
HETATM   34  O   UNL     1     -42.113  58.193 -57.352  1.00  0.00    -0.268 OA
BRANCH  32  35
HETATM   35  C   UNL     1     -44.349  56.509 -58.244  1.00  0.00     0.068 A 
HETATM   36  C   UNL     1     -45.421  57.130 -58.918  1.00  0.00     0.095 A 
HETATM   37  C   UNL     1     -45.736  56.742 -60.228  1.00  0.00     0.039 A 
HETATM   38  C   UNL     1     -45.003  55.739 -60.863  1.00  0.00     0.003 A 
HETATM   39  C   UNL     1     -43.952  55.119 -60.200  1.00  0.00     0.002 A 
HETATM   40  C   UNL     1     -43.627  55.503 -58.898  1.00  0.00     0.032 A 
BRANCH  36  41
HETATM   41  O   UNL     1     -46.083  58.109 -58.212  1.00  0.00    -0.354 OA
HETATM   42  C   UNL     1     -46.792  59.069 -58.988  1.00  0.00     0.210 C 
ENDBRANCH  36  41
ENDBRANCH  32  35
ENDBRANCH   5  31
TORSDOF 9
ENDMDL
MODEL 8
REMARK VINA RESULT:      -8.1      2.832      4.529
REMARK  9 active torsions:
REMARK  status: ('A' for Active; 'I' for Inactive)
REMARK    1  A    between atoms: C_2  and  C_3 
REMARK    2  A    between atoms: C_6  and  N_7 
REMARK       I    between atoms: N_7  and  C_8 
REMARK    3  A    between atoms: C_8  and  C_9 
REMARK    4  A    between atoms: C_9  and  S_10 
REMARK    5  A    between atoms: S_10  and  C_11 
REMARK    6  A    between atoms: C_15  and  C_16 
REMARK       I    between atoms: C_16  and  N_17 
REMARK    7  A    between atoms: N_17  and  C_18 
REMARK    8  A    between atoms: C_19  and  O_20 
REMARK    9  A    between atoms: C_27  and  C_28 
ROOT
HETATM    1  C   UNL     1     -42.341  57.982 -53.052  1.00  0.00     0.087 C 
HETATM    2  N   UNL     1     -42.416  56.855 -53.860  1.00  0.00    -0.353 N 
HETATM    3  C   UNL     1     -43.124  56.792 -55.052  1.00  0.00     0.019 C 
HETATM    4  C   UNL     1     -42.848  55.585 -55.918  1.00  0.00     0.069 C 
HETATM    5  C   UNL     1     -43.966  57.796 -55.386  1.00  0.00     0.046 C 
HETATM    6  C   UNL     1     -44.298  58.885 -54.367  1.00  0.00     0.104 C 
HETATM    7  C   UNL     1     -43.296  58.938 -53.200  1.00  0.00     0.055 C 
HETATM    8  C   UNL     1     -43.502  60.031 -52.164  1.00  0.00     0.019 C 
HETATM    9  N   UNL     1     -43.675  60.938 -51.305  1.00  0.00    -0.096 N 
HETATM   10  H   UNL     1     -41.659  56.182 -53.786  1.00  0.00     0.166 HD
ENDROOT
BRANCH   1  11
HETATM   11  S   UNL     1     -41.018  58.296 -51.934  1.00  0.00    -0.102 SA
BRANCH  11  12
HETATM   12  C   UNL     1     -41.265  57.227 -50.505  1.00  0.00     0.184 C 
BRANCH  12  13
HETATM   13  C   UNL     1     -41.570  55.750 -50.740  1.00  0.00     0.231 C 
HETATM   14  N   UNL     1     -40.492  54.891 -50.789  1.00  0.00    -0.327 N 
HETATM   15  H   UNL     1     -39.607  55.260 -50.455  1.00  0.00     0.169 HD
HETATM   16  O   UNL     1     -42.737  55.425 -50.957  1.00  0.00    -0.272 OA
BRANCH  14  17
HETATM   17  C   UNL     1     -40.427  53.649 -51.462  1.00  0.00     0.034 A 
HETATM   18  C   UNL     1     -40.548  53.504 -52.845  1.00  0.00     0.030 A 
HETATM   19  C   UNL     1     -40.264  52.278 -53.461  1.00  0.00     0.009 A 
HETATM   20  C   UNL     1     -39.857  51.175 -52.704  1.00  0.00    -0.058 A 
HETATM   21  C   UNL     1     -39.799  51.303 -51.313  1.00  0.00     0.009 A 
HETATM   22  C   UNL     1     -40.094  52.525 -50.698  1.00  0.00     0.030 A 
BRANCH  20  23
HETATM   23  C   UNL     1     -39.405  49.906 -53.380  1.00  0.00     0.034 C 
HETATM   24  C   UNL     1     -39.900  49.835 -54.820  1.00  0.00     0.010 C 
ENDBRANCH  20  23
ENDBRANCH  14  17
ENDBRANCH  12  13
ENDBRANCH  11  12
ENDBRANCH   1  11
BRANCH   6  25
HETATM   25  C   UNL     1     -44.497  60.266 -54.988  1.00  0.00    -0.044 A 
HETATM   26  C   UNL     1     -43.376  61.042 -55.337  1.00  0.00     0.008 A 
HETATM   27  C   UNL     1     -43.535  62.316 -55.881  1.00  0.00     0.001 A 
HETATM   28  C   UNL     1     -44.811  62.831 -56.088  1.00  0.00     0.000 A 
HETATM   29  C   UNL     1     -45.931  62.072 -55.757  1.00  0.00     0.001 A 
HETATM   30  C   UNL     1     -45.778  60.795 -55.214  1.00  0.00     0.008 A 
ENDBRANCH   6  25
BRANCH   5  31
HETATM   31  C   UNL     1     -44.282  57.965 -56.838  1.00  0.00     0.255 C 
HETATM   32  N   UNL     1     -45.549  57.608 -57.220  1.00  0.00    -0.321 N 
HETATM   33  H   UNL     1     -46.155  57.129 -56.565  1.00  0.00     0.169 HD
HETATM   34  O   UNL     1     -43.419  58.443 -57.569  1.00  0.00    -0.268 OA
BRANCH  32  35
HETATM   35  C   UNL     1     -46.168  57.914 -58.460  1.00  0.00     0.068 A 
HETATM   36  C   UNL     1     -46.001  56.996 -59.517  1.00  0.00     0.095 A 
HETATM   37  C   UNL     1     -46.636  57.228 -60.745  1.00  0.00     0.039 A 
HETATM   38  C   UNL     1     -47.423  58.364 -60.930  1.00  0.00     0.003 A 
HETATM   39  C   UNL     1     -47.583  59.276 -59.894  1.00  0.00     0.002 A 
HETATM   40  C   UNL     1     -46.961  59.050 -58.665  1.00  0.00     0.032 A 
BRANCH  36  41
HETATM   41  O   UNL     1     -45.209  55.905 -59.240  1.00  0.00    -0.354 OA
HETATM   42  C   UNL     1     -43.997  55.805 -59.980  1.00  0.00     0.210 C 
ENDBRANCH  36  41
ENDBRANCH  32  35
ENDBRANCH   5  31
TORSDOF 9
ENDMDL
MODEL 9
REMARK VINA RESULT:      -7.9      2.637      4.495
REMARK  9 active torsions:
REMARK  status: ('A' for Active; 'I' for Inactive)
REMARK    1  A    between atoms: C_2  and  C_3 
REMARK    2  A    between atoms: C_6  and  N_7 
REMARK       I    between atoms: N_7  and  C_8 
REMARK    3  A    between atoms: C_8  and  C_9 
REMARK    4  A    between atoms: C_9  and  S_10 
REMARK    5  A    between atoms: S_10  and  C_11 
REMARK    6  A    between atoms: C_15  and  C_16 
REMARK       I    between atoms: C_16  and  N_17 
REMARK    7  A    between atoms: N_17  and  C_18 
REMARK    8  A    between atoms: C_19  and  O_20 
REMARK    9  A    between atoms: C_27  and  C_28 
ROOT
HETATM    1  C   UNL     1     -44.600  57.924 -53.070  1.00  0.00     0.087 C 
HETATM    2  N   UNL     1     -44.070  57.067 -54.025  1.00  0.00    -0.353 N 
HETATM    3  C   UNL     1     -43.585  57.475 -55.260  1.00  0.00     0.019 C 
HETATM    4  C   UNL     1     -42.794  56.443 -56.031  1.00  0.00     0.069 C 
HETATM    5  C   UNL     1     -43.804  58.742 -55.681  1.00  0.00     0.046 C 
HETATM    6  C   UNL     1     -44.755  59.651 -54.905  1.00  0.00     0.104 C 
HETATM    7  C   UNL     1     -45.036  59.145 -53.479  1.00  0.00     0.055 C 
HETATM    8  C   UNL     1     -45.922  60.013 -52.601  1.00  0.00     0.019 C 
HETATM    9  N   UNL     1     -46.658  60.735 -51.874  1.00  0.00    -0.096 N 
HETATM   10  H   UNL     1     -43.686  56.187 -53.695  1.00  0.00     0.166 HD
ENDROOT
BRANCH   1  11
HETATM   11  S   UNL     1     -44.631  57.565 -51.346  1.00  0.00    -0.102 SA
BRANCH  11  12
HETATM   12  C   UNL     1     -42.948  57.140 -50.861  1.00  0.00     0.184 C 
BRANCH  12  13
HETATM   13  C   UNL     1     -42.533  55.671 -50.870  1.00  0.00     0.231 C 
HETATM   14  N   UNL     1     -41.347  55.363 -51.503  1.00  0.00    -0.327 N 
HETATM   15  H   UNL     1     -40.738  56.144 -51.724  1.00  0.00     0.169 HD
HETATM   16  O   UNL     1     -43.312  54.845 -50.395  1.00  0.00    -0.272 OA
BRANCH  14  17
HETATM   17  C   UNL     1     -40.994  54.123 -52.084  1.00  0.00     0.034 A 
HETATM   18  C   UNL     1     -41.184  53.810 -53.431  1.00  0.00     0.030 A 
HETATM   19  C   UNL     1     -40.621  52.651 -53.981  1.00  0.00     0.009 A 
HETATM   20  C   UNL     1     -39.860  51.782 -53.191  1.00  0.00    -0.058 A 
HETATM   21  C   UNL     1     -39.725  52.062 -51.828  1.00  0.00     0.009 A 
HETATM   22  C   UNL     1     -40.298  53.215 -51.278  1.00  0.00     0.030 A 
BRANCH  20  23
HETATM   23  C   UNL     1     -39.129  50.621 -53.815  1.00  0.00     0.034 C 
HETATM   24  C   UNL     1     -40.057  49.782 -54.687  1.00  0.00     0.010 C 
ENDBRANCH  20  23
ENDBRANCH  14  17
ENDBRANCH  12  13
ENDBRANCH  11  12
ENDBRANCH   1  11
BRANCH   6  25
HETATM   25  C   UNL     1     -44.331  61.118 -54.896  1.00  0.00    -0.044 A 
HETATM   26  C   UNL     1     -43.367  61.560 -53.972  1.00  0.00     0.008 A 
HETATM   27  C   UNL     1     -42.984  62.900 -53.929  1.00  0.00     0.001 A 
HETATM   28  C   UNL     1     -43.553  63.815 -54.809  1.00  0.00     0.000 A 
HETATM   29  C   UNL     1     -44.502  63.392 -55.737  1.00  0.00     0.001 A 
HETATM   30  C   UNL     1     -44.887  62.052 -55.786  1.00  0.00     0.008 A 
ENDBRANCH   6  25
BRANCH   5  31
HETATM   31  C   UNL     1     -42.861  59.291 -56.704  1.00  0.00     0.255 C 
HETATM   32  N   UNL     1     -43.389  59.504 -57.950  1.00  0.00    -0.321 N 
HETATM   33  H   UNL     1     -44.318  59.163 -58.168  1.00  0.00     0.169 HD
HETATM   34  O   UNL     1     -41.713  59.552 -56.356  1.00  0.00    -0.268 OA
BRANCH  32  35
HETATM   35  C   UNL     1     -42.789  60.248 -59.000  1.00  0.00     0.068 A 
HETATM   36  C   UNL     1     -42.497  59.567 -60.199  1.00  0.00     0.095 A 
HETATM   37  C   UNL     1     -41.951  60.270 -61.282  1.00  0.00     0.039 A 
HETATM   38  C   UNL     1     -41.687  61.635 -61.177  1.00  0.00     0.003 A 
HETATM   39  C   UNL     1     -41.966  62.309 -59.994  1.00  0.00     0.002 A 
HETATM   40  C   UNL     1     -42.516  61.618 -58.913  1.00  0.00     0.032 A 
BRANCH  36  41
HETATM   41  O   UNL     1     -42.794  58.223 -60.209  1.00  0.00    -0.354 OA
HETATM   42  C   UNL     1     -41.681  57.335 -60.180  1.00  0.00     0.210 C 
ENDBRANCH  36  41
ENDBRANCH  32  35
ENDBRANCH   5  31
TORSDOF 9
ENDMDL
MODEL 10
REMARK VINA RESULT:      -7.8      2.662      4.705
REMARK  9 active torsions:
REMARK  status: ('A' for Active; 'I' for Inactive)
REMARK    1  A    between atoms: C_2  and  C_3 
REMARK    2  A    between atoms: C_6  and  N_7 
REMARK       I    between atoms: N_7  and  C_8 
REMARK    3  A    between atoms: C_8  and  C_9 
REMARK    4  A    between atoms: C_9  and  S_10 
REMARK    5  A    between atoms: S_10  and  C_11 
REMARK    6  A    between atoms: C_15  and  C_16 
REMARK       I    between atoms: C_16  and  N_17 
REMARK    7  A    between atoms: N_17  and  C_18 
REMARK    8  A    between atoms: C_19  and  O_20 
REMARK    9  A    between atoms: C_27  and  C_28 
ROOT
HETATM    1  C   UNL     1     -42.138  58.063 -52.498  1.00  0.00     0.087 C 
HETATM    2  N   UNL     1     -42.029  57.100 -53.492  1.00  0.00    -0.353 N 
HETATM    3  C   UNL     1     -42.585  57.217 -54.759  1.00  0.00     0.019 C 
HETATM    4  C   UNL     1     -42.116  56.205 -55.779  1.00  0.00     0.069 C 
HETATM    5  C   UNL     1     -43.459  58.216 -55.018  1.00  0.00     0.046 C 
HETATM    6  C   UNL     1     -43.992  59.079 -53.877  1.00  0.00     0.104 C 
HETATM    7  C   UNL     1     -43.141  58.975 -52.599  1.00  0.00     0.055 C 
HETATM    8  C   UNL     1     -43.552  59.846 -51.423  1.00  0.00     0.019 C 
HETATM    9  N   UNL     1     -43.895  60.569 -50.448  1.00  0.00    -0.096 N 
HETATM   10  H   UNL     1     -41.235  56.469 -53.440  1.00  0.00     0.166 HD
ENDROOT
BRANCH   1  11
HETATM   11  S   UNL     1     -40.983  58.241 -51.181  1.00  0.00    -0.102 SA
BRANCH  11  12
HETATM   12  C   UNL     1     -41.446  57.056 -49.904  1.00  0.00     0.184 C 
BRANCH  12  13
HETATM   13  C   UNL     1     -41.640  55.594 -50.299  1.00  0.00     0.231 C 
HETATM   14  N   UNL     1     -40.552  54.948 -50.848  1.00  0.00    -0.327 N 
HETATM   15  H   UNL     1     -39.656  55.415 -50.754  1.00  0.00     0.169 HD
HETATM   16  O   UNL     1     -42.764  55.106 -50.186  1.00  0.00    -0.272 OA
BRANCH  14  17
HETATM   17  C   UNL     1     -40.580  53.838 -51.725  1.00  0.00     0.034 A 
HETATM   18  C   UNL     1     -41.175  53.855 -52.987  1.00  0.00     0.030 A 
HETATM   19  C   UNL     1     -40.982  52.794 -53.882  1.00  0.00     0.009 A 
HETATM   20  C   UNL     1     -40.191  51.696 -53.527  1.00  0.00    -0.058 A 
HETATM   21  C   UNL     1     -39.648  51.650 -52.240  1.00  0.00     0.009 A 
HETATM   22  C   UNL     1     -39.852  52.705 -51.343  1.00  0.00     0.030 A 
BRANCH  20  23
HETATM   23  C   UNL     1     -39.858  50.632 -54.542  1.00  0.00     0.034 C 
HETATM   24  C   UNL     1     -39.326  49.371 -53.872  1.00  0.00     0.010 C 
ENDBRANCH  20  23
ENDBRANCH  14  17
ENDBRANCH  12  13
ENDBRANCH  11  12
ENDBRANCH   1  11
BRANCH   6  25
HETATM   25  C   UNL     1     -44.225  60.538 -54.267  1.00  0.00    -0.044 A 
HETATM   26  C   UNL     1     -45.528  60.982 -54.558  1.00  0.00     0.008 A 
HETATM   27  C   UNL     1     -45.760  62.302 -54.942  1.00  0.00     0.001 A 
HETATM   28  C   UNL     1     -44.698  63.197 -55.036  1.00  0.00     0.000 A 
HETATM   29  C   UNL     1     -43.404  62.775 -54.743  1.00  0.00     0.001 A 
HETATM   30  C   UNL     1     -43.166  61.456 -54.356  1.00  0.00     0.008 A 
ENDBRANCH   6  25
BRANCH   5  31
HETATM   31  C   UNL     1     -43.615  58.629 -56.447  1.00  0.00     0.255 C 
HETATM   32  N   UNL     1     -42.504  59.176 -57.036  1.00  0.00    -0.321 N 
HETATM   33  H   UNL     1     -41.696  59.404 -56.469  1.00  0.00     0.169 HD
HETATM   34  O   UNL     1     -44.690  58.415 -57.001  1.00  0.00    -0.268 OA
BRANCH  32  35
HETATM   35  C   UNL     1     -42.315  59.399 -58.425  1.00  0.00     0.068 A 
HETATM   36  C   UNL     1     -42.183  60.734 -58.859  1.00  0.00     0.095 A 
HETATM   37  C   UNL     1     -41.943  61.003 -60.213  1.00  0.00     0.039 A 
HETATM   38  C   UNL     1     -41.845  59.960 -61.135  1.00  0.00     0.003 A 
HETATM   39  C   UNL     1     -41.983  58.644 -60.712  1.00  0.00     0.002 A 
HETATM   40  C   UNL     1     -42.215  58.366 -59.364  1.00  0.00     0.032 A 
BRANCH  36  41
HETATM   41  O   UNL     1     -42.292  61.694 -57.879  1.00  0.00    -0.354 OA
HETATM   42  C   UNL     1     -42.201  63.046 -58.313  1.00  0.00     0.210 C 
ENDBRANCH  36  41
ENDBRANCH  32  35
ENDBRANCH   5  31
TORSDOF 9
ENDMDL
