MODEL 1
REMARK VINA RESULT:      -7.6      0.000      0.000
REMARK  3 active torsions:
REMARK  status: ('A' for Active; 'I' for Inactive)
REMARK    1  A    between atoms: N_6  and  C_7 
REMARK    2  A    between atoms: C_7  and  C_8 
REMARK    3  A    between atoms: N_10  and  C_11 
ROOT
HETATM    1  C   UNL     1     -40.211  52.188 -52.270  1.00  0.00     0.073 A 
HETATM    2  C   UNL     1     -39.967  50.866 -51.819  1.00  0.00     0.062 A 
HETATM    3 CL   UNL     1     -40.178  50.359 -50.178  1.00  0.00    -0.082 Cl
HETATM    4  C   UNL     1     -39.599  49.843 -52.710  1.00  0.00     0.026 A 
HETATM    5  C   UNL     1     -39.493  50.088 -54.073  1.00  0.00     0.003 A 
HETATM    6  C   UNL     1     -39.766  51.359 -54.557  1.00  0.00     0.025 A 
HETATM    7  C   UNL     1     -40.118  52.397 -53.676  1.00  0.00     0.072 A 
HETATM    8  C   UNL     1     -40.388  53.680 -54.269  1.00  0.00     0.102 C 
HETATM    9  N   UNL     1     -40.636  54.689 -54.791  1.00  0.00    -0.191 NA
ENDROOT
BRANCH   1  10
HETATM   10  N   UNL     1     -40.528  53.291 -51.445  1.00  0.00    -0.378 N 
HETATM   11  C   UNL     1     -41.941  53.361 -51.036  1.00  0.00     0.129 C 
HETATM   12  C   UNL     1     -42.276  54.819 -50.633  1.00  0.00     0.032 C 
HETATM   13  C   UNL     1     -41.317  55.278 -49.519  1.00  0.00     0.009 C 
HETATM   14  C   UNL     1     -39.847  55.073 -49.902  1.00  0.00     0.020 C 
HETATM   15  C   UNL     1     -39.590  53.634 -50.359  1.00  0.00     0.123 C 
BRANCH  12  16
HETATM   16  C   UNL     1     -42.210  55.729 -51.881  1.00  0.00     0.278 C 
BRANCH  16  17
HETATM   17  N   UNL     1     -43.504  56.302 -52.311  1.00  0.00     0.092 N 
HETATM   18  C   UNL     1     -43.514  56.678 -53.738  1.00  0.00     0.300 C 
HETATM   19  C   UNL     1     -42.666  57.918 -54.101  1.00  0.00     0.264 C 
HETATM   20  N   UNL     1     -43.014  59.096 -53.205  1.00  0.00    -0.072 N 
HETATM   21  C   UNL     1     -42.146  60.285 -53.487  1.00  0.00     0.269 C 
HETATM   22  H   UNL     1     -43.986  59.356 -53.414  1.00  0.00     0.279 HD
HETATM   23  C   UNL     1     -42.975  58.720 -51.730  1.00  0.00     0.264 C 
HETATM   24  C   UNL     1     -43.852  57.478 -51.481  1.00  0.00     0.300 C 
ENDBRANCH  16  17
ENDBRANCH  12  16
ENDBRANCH   1  10
TORSDOF 3
ENDMDL
MODEL 2
REMARK VINA RESULT:      -7.6      0.893      1.341
REMARK  3 active torsions:
REMARK  status: ('A' for Active; 'I' for Inactive)
REMARK    1  A    between atoms: N_6  and  C_7 
REMARK    2  A    between atoms: C_7  and  C_8 
REMARK    3  A    between atoms: N_10  and  C_11 
ROOT
HETATM    1  C   UNL     1     -40.186  52.196 -52.296  1.00  0.00     0.073 A 
HETATM    2  C   UNL     1     -39.980  50.873 -51.826  1.00  0.00     0.062 A 
HETATM    3 CL   UNL     1     -40.222  50.391 -50.181  1.00  0.00    -0.082 Cl
HETATM    4  C   UNL     1     -39.627  49.831 -52.701  1.00  0.00     0.026 A 
HETATM    5  C   UNL     1     -39.500  50.057 -54.065  1.00  0.00     0.003 A 
HETATM    6  C   UNL     1     -39.735  51.328 -54.567  1.00  0.00     0.025 A 
HETATM    7  C   UNL     1     -40.072  52.386 -53.702  1.00  0.00     0.072 A 
HETATM    8  C   UNL     1     -40.302  53.668 -54.314  1.00  0.00     0.102 C 
HETATM    9  N   UNL     1     -40.519  54.677 -54.851  1.00  0.00    -0.191 NA
ENDROOT
BRANCH   1  10
HETATM   10  N   UNL     1     -40.483  53.316 -51.488  1.00  0.00    -0.378 N 
HETATM   11  C   UNL     1     -41.919  53.513 -51.223  1.00  0.00     0.129 C 
HETATM   12  C   UNL     1     -42.160  54.992 -50.830  1.00  0.00     0.032 C 
HETATM   13  C   UNL     1     -41.282  55.351 -49.617  1.00  0.00     0.009 C 
HETATM   14  C   UNL     1     -39.806  55.014 -49.851  1.00  0.00     0.020 C 
HETATM   15  C   UNL     1     -39.635  53.562 -50.306  1.00  0.00     0.123 C 
BRANCH  12  16
HETATM   16  C   UNL     1     -41.883  55.903 -52.048  1.00  0.00     0.278 C 
BRANCH  16  17
HETATM   17  N   UNL     1     -42.825  57.031 -52.216  1.00  0.00     0.092 N 
HETATM   18  C   UNL     1     -43.980  56.686 -53.067  1.00  0.00     0.300 C 
HETATM   19  C   UNL     1     -43.667  56.518 -54.571  1.00  0.00     0.264 C 
HETATM   20  N   UNL     1     -42.912  57.724 -55.108  1.00  0.00    -0.072 N 
HETATM   21  C   UNL     1     -42.528  57.546 -56.546  1.00  0.00     0.269 C 
HETATM   22  H   UNL     1     -43.548  58.528 -55.047  1.00  0.00     0.279 HD
HETATM   23  C   UNL     1     -41.701  58.065 -54.250  1.00  0.00     0.264 C 
HETATM   24  C   UNL     1     -42.126  58.211 -52.776  1.00  0.00     0.300 C 
ENDBRANCH  16  17
ENDBRANCH  12  16
ENDBRANCH   1  10
TORSDOF 3
ENDMDL
MODEL 3
REMARK VINA RESULT:      -7.2      2.084      3.871
REMARK  3 active torsions:
REMARK  status: ('A' for Active; 'I' for Inactive)
REMARK    1  A    between atoms: N_6  and  C_7 
REMARK    2  A    between atoms: C_7  and  C_8 
REMARK    3  A    between atoms: N_10  and  C_11 
ROOT
HETATM    1  C   UNL     1     -40.941  53.554 -52.502  1.00  0.00     0.073 A 
HETATM    2  C   UNL     1     -40.352  52.403 -53.083  1.00  0.00     0.062 A 
HETATM    3 CL   UNL     1     -40.202  52.159 -54.790  1.00  0.00    -0.082 Cl
HETATM    4  C   UNL     1     -39.774  51.396 -52.289  1.00  0.00     0.026 A 
HETATM    5  C   UNL     1     -39.734  51.513 -50.906  1.00  0.00     0.003 A 
HETATM    6  C   UNL     1     -40.262  52.645 -50.306  1.00  0.00     0.025 A 
HETATM    7  C   UNL     1     -40.859  53.653 -51.084  1.00  0.00     0.072 A 
HETATM    8  C   UNL     1     -41.375  54.793 -50.374  1.00  0.00     0.102 C 
HETATM    9  N   UNL     1     -41.744  55.714 -49.767  1.00  0.00    -0.191 NA
ENDROOT
BRANCH   1  10
HETATM   10  N   UNL     1     -41.595  54.587 -53.212  1.00  0.00    -0.378 N 
HETATM   11  C   UNL     1     -40.701  55.430 -54.024  1.00  0.00     0.129 C 
HETATM   12  C   UNL     1     -41.397  56.789 -54.290  1.00  0.00     0.032 C 
HETATM   13  C   UNL     1     -42.756  56.546 -54.971  1.00  0.00     0.009 C 
HETATM   14  C   UNL     1     -43.627  55.558 -54.187  1.00  0.00     0.020 C 
HETATM   15  C   UNL     1     -42.865  54.263 -53.890  1.00  0.00     0.123 C 
BRANCH  12  16
HETATM   16  C   UNL     1     -41.532  57.570 -52.963  1.00  0.00     0.278 C 
BRANCH  16  17
HETATM   17  N   UNL     1     -40.829  58.870 -52.924  1.00  0.00     0.092 N 
HETATM   18  C   UNL     1     -40.283  59.183 -51.589  1.00  0.00     0.300 C 
HETATM   19  C   UNL     1     -41.333  59.541 -50.513  1.00  0.00     0.264 C 
HETATM   20  N   UNL     1     -42.270  60.631 -51.009  1.00  0.00    -0.072 N 
HETATM   21  C   UNL     1     -43.346  60.937 -50.011  1.00  0.00     0.269 C 
HETATM   22  H   UNL     1     -41.703  61.479 -51.134  1.00  0.00     0.279 HD
HETATM   23  C   UNL     1     -42.858  60.299 -52.373  1.00  0.00     0.264 C 
HETATM   24  C   UNL     1     -41.729  59.960 -53.365  1.00  0.00     0.300 C 
ENDBRANCH  16  17
ENDBRANCH  12  16
ENDBRANCH   1  10
TORSDOF 3
ENDMDL
MODEL 4
REMARK VINA RESULT:      -7.1      2.216      3.507
REMARK  3 active torsions:
REMARK  status: ('A' for Active; 'I' for Inactive)
REMARK    1  A    between atoms: N_6  and  C_7 
REMARK    2  A    between atoms: C_7  and  C_8 
REMARK    3  A    between atoms: N_10  and  C_11 
ROOT
HETATM    1  C   UNL     1     -41.203  53.570 -52.549  1.00  0.00     0.073 A 
HETATM    2  C   UNL     1     -41.314  52.928 -53.809  1.00  0.00     0.062 A 
HETATM    3 CL   UNL     1     -42.388  53.451 -55.061  1.00  0.00    -0.082 Cl
HETATM    4  C   UNL     1     -40.488  51.844 -54.154  1.00  0.00     0.026 A 
HETATM    5  C   UNL     1     -39.510  51.385 -53.280  1.00  0.00     0.003 A 
HETATM    6  C   UNL     1     -39.344  52.016 -52.057  1.00  0.00     0.025 A 
HETATM    7  C   UNL     1     -40.174  53.091 -51.689  1.00  0.00     0.072 A 
HETATM    8  C   UNL     1     -39.924  53.686 -50.403  1.00  0.00     0.102 C 
HETATM    9  N   UNL     1     -39.664  54.164 -49.376  1.00  0.00    -0.191 NA
ENDROOT
BRANCH   1  10
HETATM   10  N   UNL     1     -42.025  54.625 -52.092  1.00  0.00    -0.378 N 
HETATM   11  C   UNL     1     -42.037  55.812 -52.964  1.00  0.00     0.129 C 
HETATM   12  C   UNL     1     -42.490  57.040 -52.136  1.00  0.00     0.032 C 
HETATM   13  C   UNL     1     -43.866  56.757 -51.507  1.00  0.00     0.009 C 
HETATM   14  C   UNL     1     -43.880  55.447 -50.712  1.00  0.00     0.020 C 
HETATM   15  C   UNL     1     -43.357  54.282 -51.557  1.00  0.00     0.123 C 
BRANCH  12  16
HETATM   16  C   UNL     1     -41.414  57.375 -51.077  1.00  0.00     0.278 C 
BRANCH  16  17
HETATM   17  N   UNL     1     -40.578  58.556 -51.382  1.00  0.00     0.092 N 
HETATM   18  C   UNL     1     -40.626  59.578 -50.318  1.00  0.00     0.300 C 
HETATM   19  C   UNL     1     -41.958  60.354 -50.207  1.00  0.00     0.264 C 
HETATM   20  N   UNL     1     -42.370  60.923 -51.555  1.00  0.00    -0.072 N 
HETATM   21  C   UNL     1     -43.700  61.611 -51.487  1.00  0.00     0.269 C 
HETATM   22  H   UNL     1     -41.664  61.624 -51.814  1.00  0.00     0.279 HD
HETATM   23  C   UNL     1     -42.350  59.865 -52.650  1.00  0.00     0.264 C 
HETATM   24  C   UNL     1     -40.981  59.158 -52.673  1.00  0.00     0.300 C 
ENDBRANCH  16  17
ENDBRANCH  12  16
ENDBRANCH   1  10
TORSDOF 3
ENDMDL
MODEL 5
REMARK VINA RESULT:      -6.8      2.586      3.677
REMARK  3 active torsions:
REMARK  status: ('A' for Active; 'I' for Inactive)
REMARK    1  A    between atoms: N_6  and  C_7 
REMARK    2  A    between atoms: C_7  and  C_8 
REMARK    3  A    between atoms: N_10  and  C_11 
ROOT
HETATM    1  C   UNL     1     -41.325  53.593 -52.630  1.00  0.00     0.073 A 
HETATM    2  C   UNL     1     -41.420  52.969 -53.900  1.00  0.00     0.062 A 
HETATM    3 CL   UNL     1     -42.534  53.462 -55.129  1.00  0.00    -0.082 Cl
HETATM    4  C   UNL     1     -40.546  51.934 -54.275  1.00  0.00     0.026 A 
HETATM    5  C   UNL     1     -39.537  51.508 -53.422  1.00  0.00     0.003 A 
HETATM    6  C   UNL     1     -39.386  52.123 -52.189  1.00  0.00     0.025 A 
HETATM    7  C   UNL     1     -40.263  53.149 -51.791  1.00  0.00     0.072 A 
HETATM    8  C   UNL     1     -40.027  53.731 -50.497  1.00  0.00     0.102 C 
HETATM    9  N   UNL     1     -39.778  54.202 -49.463  1.00  0.00    -0.191 NA
ENDROOT
BRANCH   1  10
HETATM   10  N   UNL     1     -42.192  54.596 -52.142  1.00  0.00    -0.378 N 
HETATM   11  C   UNL     1     -42.590  55.599 -53.146  1.00  0.00     0.129 C 
HETATM   12  C   UNL     1     -43.050  56.886 -52.416  1.00  0.00     0.032 C 
HETATM   13  C   UNL     1     -44.191  56.544 -51.441  1.00  0.00     0.009 C 
HETATM   14  C   UNL     1     -43.815  55.404 -50.488  1.00  0.00     0.020 C 
HETATM   15  C   UNL     1     -43.301  54.185 -51.259  1.00  0.00     0.123 C 
BRANCH  12  16
HETATM   16  C   UNL     1     -41.841  57.538 -51.706  1.00  0.00     0.278 C 
BRANCH  16  17
HETATM   17  N   UNL     1     -41.562  58.936 -52.097  1.00  0.00     0.092 N 
HETATM   18  C   UNL     1     -40.355  59.063 -52.938  1.00  0.00     0.300 C 
HETATM   19  C   UNL     1     -39.013  58.833 -52.206  1.00  0.00     0.264 C 
HETATM   20  N   UNL     1     -38.921  59.693 -50.956  1.00  0.00    -0.072 N 
HETATM   21  C   UNL     1     -37.661  59.426 -50.188  1.00  0.00     0.269 C 
HETATM   22  H   UNL     1     -38.902  60.673 -51.266  1.00  0.00     0.279 HD
HETATM   23  C   UNL     1     -40.151  59.544 -50.070  1.00  0.00     0.264 C 
HETATM   24  C   UNL     1     -41.427  59.794 -50.897  1.00  0.00     0.300 C 
ENDBRANCH  16  17
ENDBRANCH  12  16
ENDBRANCH   1  10
TORSDOF 3
ENDMDL
MODEL 6
REMARK VINA RESULT:      -6.6      2.164      3.425
REMARK  3 active torsions:
REMARK  status: ('A' for Active; 'I' for Inactive)
REMARK    1  A    between atoms: N_6  and  C_7 
REMARK    2  A    between atoms: C_7  and  C_8 
REMARK    3  A    between atoms: N_10  and  C_11 
ROOT
HETATM    1  C   UNL     1     -41.143  54.594 -51.698  1.00  0.00     0.073 A 
HETATM    2  C   UNL     1     -40.856  53.817 -50.547  1.00  0.00     0.062 A 
HETATM    3 CL   UNL     1     -41.306  54.280 -48.941  1.00  0.00    -0.082 Cl
HETATM    4  C   UNL     1     -40.238  52.558 -50.647  1.00  0.00     0.026 A 
HETATM    5  C   UNL     1     -39.915  52.018 -51.885  1.00  0.00     0.003 A 
HETATM    6  C   UNL     1     -40.219  52.730 -53.035  1.00  0.00     0.025 A 
HETATM    7  C   UNL     1     -40.821  53.999 -52.952  1.00  0.00     0.072 A 
HETATM    8  C   UNL     1     -41.103  54.661 -54.198  1.00  0.00     0.102 C 
HETATM    9  N   UNL     1     -41.351  55.144 -55.226  1.00  0.00    -0.191 NA
ENDROOT
BRANCH   1  10
HETATM   10  N   UNL     1     -41.706  55.890 -51.694  1.00  0.00    -0.378 N 
HETATM   11  C   UNL     1     -43.163  55.921 -51.477  1.00  0.00     0.129 C 
HETATM   12  C   UNL     1     -43.723  57.258 -52.023  1.00  0.00     0.032 C 
HETATM   13  C   UNL     1     -43.001  58.435 -51.341  1.00  0.00     0.009 C 
HETATM   14  C   UNL     1     -41.477  58.321 -51.454  1.00  0.00     0.020 C 
HETATM   15  C   UNL     1     -40.986  56.954 -50.968  1.00  0.00     0.123 C 
BRANCH  12  16
HETATM   16  C   UNL     1     -43.580  57.290 -53.562  1.00  0.00     0.278 C 
BRANCH  16  17
HETATM   17  N   UNL     1     -43.741  58.624 -54.181  1.00  0.00     0.092 N 
HETATM   18  C   UNL     1     -45.093  58.836 -54.733  1.00  0.00     0.300 C 
HETATM   19  C   UNL     1     -45.419  58.030 -56.011  1.00  0.00     0.264 C 
HETATM   20  N   UNL     1     -44.341  58.225 -57.066  1.00  0.00    -0.072 N 
HETATM   21  C   UNL     1     -44.597  57.388 -58.284  1.00  0.00     0.269 C 
HETATM   22  H   UNL     1     -44.372  59.213 -57.349  1.00  0.00     0.279 HD
HETATM   23  C   UNL     1     -42.947  57.977 -56.508  1.00  0.00     0.264 C 
HETATM   24  C   UNL     1     -42.728  58.828 -55.242  1.00  0.00     0.300 C 
ENDBRANCH  16  17
ENDBRANCH  12  16
ENDBRANCH   1  10
TORSDOF 3
ENDMDL
MODEL 7
REMARK VINA RESULT:      -6.5      2.338      3.425
REMARK  3 active torsions:
REMARK  status: ('A' for Active; 'I' for Inactive)
REMARK    1  A    between atoms: N_6  and  C_7 
REMARK    2  A    between atoms: C_7  and  C_8 
REMARK    3  A    between atoms: N_10  and  C_11 
ROOT
HETATM    1  C   UNL     1     -40.638  53.642 -51.887  1.00  0.00     0.073 A 
HETATM    2  C   UNL     1     -40.257  53.105 -53.144  1.00  0.00     0.062 A 
HETATM    3 CL   UNL     1     -40.297  54.003 -54.622  1.00  0.00    -0.082 Cl
HETATM    4  C   UNL     1     -39.744  51.801 -53.258  1.00  0.00     0.026 A 
HETATM    5  C   UNL     1     -39.562  51.004 -52.135  1.00  0.00     0.003 A 
HETATM    6  C   UNL     1     -39.883  51.511 -50.885  1.00  0.00     0.025 A 
HETATM    7  C   UNL     1     -40.414  52.808 -50.755  1.00  0.00     0.072 A 
HETATM    8  C   UNL     1     -40.712  53.250 -49.418  1.00  0.00     0.102 C 
HETATM    9  N   UNL     1     -40.901  53.584 -48.321  1.00  0.00    -0.191 NA
ENDROOT
BRANCH   1  10
HETATM   10  N   UNL     1     -41.216  54.915 -51.681  1.00  0.00    -0.378 N 
HETATM   11  C   UNL     1     -42.685  54.907 -51.573  1.00  0.00     0.129 C 
HETATM   12  C   UNL     1     -43.220  56.324 -51.898  1.00  0.00     0.032 C 
HETATM   13  C   UNL     1     -42.565  57.350 -50.954  1.00  0.00     0.009 C 
HETATM   14  C   UNL     1     -41.036  57.257 -50.971  1.00  0.00     0.020 C 
HETATM   15  C   UNL     1     -40.566  55.822 -50.716  1.00  0.00     0.123 C 
BRANCH  12  16
HETATM   16  C   UNL     1     -42.963  56.646 -53.388  1.00  0.00     0.278 C 
BRANCH  16  17
HETATM   17  N   UNL     1     -44.016  56.189 -54.321  1.00  0.00     0.092 N 
HETATM   18  C   UNL     1     -43.492  55.315 -55.388  1.00  0.00     0.300 C 
HETATM   19  C   UNL     1     -42.632  56.023 -56.459  1.00  0.00     0.264 C 
HETATM   20  N   UNL     1     -43.357  57.233 -57.026  1.00  0.00    -0.072 N 
HETATM   21  C   UNL     1     -42.508  57.982 -58.009  1.00  0.00     0.269 C 
HETATM   22  H   UNL     1     -44.184  56.881 -57.525  1.00  0.00     0.279 HD
HETATM   23  C   UNL     1     -43.874  58.153 -55.928  1.00  0.00     0.264 C 
HETATM   24  C   UNL     1     -44.716  57.347 -54.921  1.00  0.00     0.300 C 
ENDBRANCH  16  17
ENDBRANCH  12  16
ENDBRANCH   1  10
TORSDOF 3
ENDMDL
MODEL 8
REMARK VINA RESULT:      -6.4      2.255      4.535
REMARK  3 active torsions:
REMARK  status: ('A' for Active; 'I' for Inactive)
REMARK    1  A    between atoms: N_6  and  C_7 
REMARK    2  A    between atoms: C_7  and  C_8 
REMARK    3  A    between atoms: N_10  and  C_11 
ROOT
HETATM    1  C   UNL     1     -41.110  54.673 -52.236  1.00  0.00     0.073 A 
HETATM    2  C   UNL     1     -40.384  53.458 -52.151  1.00  0.00     0.062 A 
HETATM    3 CL   UNL     1     -40.117  52.405 -53.498  1.00  0.00    -0.082 Cl
HETATM    4  C   UNL     1     -39.760  53.058 -50.956  1.00  0.00     0.026 A 
HETATM    5  C   UNL     1     -39.808  53.860 -49.823  1.00  0.00     0.003 A 
HETATM    6  C   UNL     1     -40.473  55.076 -49.881  1.00  0.00     0.025 A 
HETATM    7  C   UNL     1     -41.117  55.482 -51.064  1.00  0.00     0.072 A 
HETATM    8  C   UNL     1     -41.777  56.760 -51.030  1.00  0.00     0.102 C 
HETATM    9  N   UNL     1     -42.263  57.815 -50.975  1.00  0.00    -0.191 NA
ENDROOT
BRANCH   1  10
HETATM   10  N   UNL     1     -41.817  55.128 -53.371  1.00  0.00    -0.378 N 
HETATM   11  C   UNL     1     -40.968  55.705 -54.428  1.00  0.00     0.129 C 
HETATM   12  C   UNL     1     -41.834  56.629 -55.320  1.00  0.00     0.032 C 
HETATM   13  C   UNL     1     -43.021  55.830 -55.889  1.00  0.00     0.009 C 
HETATM   14  C   UNL     1     -43.819  55.121 -54.790  1.00  0.00     0.020 C 
HETATM   15  C   UNL     1     -42.904  54.279 -53.896  1.00  0.00     0.123 C 
BRANCH  12  16
HETATM   16  C   UNL     1     -42.289  57.860 -54.502  1.00  0.00     0.278 C 
BRANCH  16  17
HETATM   17  N   UNL     1     -41.770  59.160 -54.981  1.00  0.00     0.092 N 
HETATM   18  C   UNL     1     -42.173  60.287 -54.118  1.00  0.00     0.300 C 
HETATM   19  C   UNL     1     -43.667  60.677 -54.196  1.00  0.00     0.264 C 
HETATM   20  N   UNL     1     -44.100  60.888 -55.638  1.00  0.00    -0.072 N 
HETATM   21  C   UNL     1     -45.565  61.188 -55.742  1.00  0.00     0.269 C 
HETATM   22  H   UNL     1     -43.583  61.703 -55.991  1.00  0.00     0.279 HD
HETATM   23  C   UNL     1     -43.711  59.713 -56.526  1.00  0.00     0.264 C 
HETATM   24  C   UNL     1     -42.208  59.412 -56.373  1.00  0.00     0.300 C 
ENDBRANCH  16  17
ENDBRANCH  12  16
ENDBRANCH   1  10
TORSDOF 3
ENDMDL
MODEL 9
REMARK VINA RESULT:      -6.3     14.230     16.856
REMARK  3 active torsions:
REMARK  status: ('A' for Active; 'I' for Inactive)
REMARK    1  A    between atoms: N_6  and  C_7 
REMARK    2  A    between atoms: C_7  and  C_8 
REMARK    3  A    between atoms: N_10  and  C_11 
ROOT
HETATM    1  C   UNL     1     -34.394  40.671 -53.571  1.00  0.00     0.073 A 
HETATM    2  C   UNL     1     -34.532  40.710 -52.161  1.00  0.00     0.062 A 
HETATM    3 CL   UNL     1     -36.055  40.835 -51.349  1.00  0.00    -0.082 Cl
HETATM    4  C   UNL     1     -33.420  40.575 -51.311  1.00  0.00     0.026 A 
HETATM    5  C   UNL     1     -32.148  40.365 -51.829  1.00  0.00     0.003 A 
HETATM    6  C   UNL     1     -31.981  40.278 -53.202  1.00  0.00     0.025 A 
HETATM    7  C   UNL     1     -33.080  40.429 -54.066  1.00  0.00     0.072 A 
HETATM    8  C   UNL     1     -32.811  40.319 -55.476  1.00  0.00     0.102 C 
HETATM    9  N   UNL     1     -32.559  40.183 -56.603  1.00  0.00    -0.191 NA
ENDROOT
BRANCH   1  10
HETATM   10  N   UNL     1     -35.440  40.856 -54.503  1.00  0.00    -0.378 N 
HETATM   11  C   UNL     1     -36.426  39.762 -54.539  1.00  0.00     0.129 C 
HETATM   12  C   UNL     1     -37.163  39.793 -55.901  1.00  0.00     0.032 C 
HETATM   13  C   UNL     1     -37.810  41.176 -56.103  1.00  0.00     0.009 C 
HETATM   14  C   UNL     1     -36.802  42.317 -55.929  1.00  0.00     0.020 C 
HETATM   15  C   UNL     1     -36.053  42.195 -54.598  1.00  0.00     0.123 C 
BRANCH  12  16
HETATM   16  C   UNL     1     -36.174  39.433 -57.033  1.00  0.00     0.278 C 
BRANCH  16  17
HETATM   17  N   UNL     1     -36.346  38.083 -57.613  1.00  0.00     0.092 N 
HETATM   18  C   UNL     1     -35.450  37.837 -58.759  1.00  0.00     0.300 C 
HETATM   19  C   UNL     1     -35.803  38.608 -60.052  1.00  0.00     0.264 C 
HETATM   20  N   UNL     1     -37.263  38.407 -60.424  1.00  0.00    -0.072 N 
HETATM   21  C   UNL     1     -37.647  39.211 -61.629  1.00  0.00     0.269 C 
HETATM   22  H   UNL     1     -37.379  37.412 -60.656  1.00  0.00     0.279 HD
HETATM   23  C   UNL     1     -38.193  38.688 -59.252  1.00  0.00     0.264 C 
HETATM   24  C   UNL     1     -37.753  37.870 -58.022  1.00  0.00     0.300 C 
ENDBRANCH  16  17
ENDBRANCH  12  16
ENDBRANCH   1  10
TORSDOF 3
ENDMDL
MODEL 10
REMARK VINA RESULT:      -6.2      2.367      4.745
REMARK  3 active torsions:
REMARK  status: ('A' for Active; 'I' for Inactive)
REMARK    1  A    between atoms: N_6  and  C_7 
REMARK    2  A    between atoms: C_7  and  C_8 
REMARK    3  A    between atoms: N_10  and  C_11 
ROOT
HETATM    1  C   UNL     1     -41.666  54.995 -53.182  1.00  0.00     0.073 A 
HETATM    2  C   UNL     1     -40.710  54.051 -53.635  1.00  0.00     0.062 A 
HETATM    3 CL   UNL     1     -39.895  54.168 -55.158  1.00  0.00    -0.082 Cl
HETATM    4  C   UNL     1     -40.302  52.975 -52.828  1.00  0.00     0.026 A 
HETATM    5  C   UNL     1     -40.800  52.820 -51.541  1.00  0.00     0.003 A 
HETATM    6  C   UNL     1     -41.705  53.747 -51.048  1.00  0.00     0.025 A 
HETATM    7  C   UNL     1     -42.137  54.819 -51.849  1.00  0.00     0.072 A 
HETATM    8  C   UNL     1     -43.074  55.734 -51.250  1.00  0.00     0.102 C 
HETATM    9  N   UNL     1     -43.797  56.471 -50.717  1.00  0.00    -0.191 NA
ENDROOT
BRANCH   1  10
HETATM   10  N   UNL     1     -42.180  56.071 -53.940  1.00  0.00    -0.378 N 
HETATM   11  C   UNL     1     -41.230  57.176 -54.153  1.00  0.00     0.129 C 
HETATM   12  C   UNL     1     -42.023  58.464 -54.486  1.00  0.00     0.032 C 
HETATM   13  C   UNL     1     -42.920  58.214 -55.713  1.00  0.00     0.009 C 
HETATM   14  C   UNL     1     -43.809  56.978 -55.536  1.00  0.00     0.020 C 
HETATM   15  C   UNL     1     -42.981  55.753 -55.138  1.00  0.00     0.123 C 
BRANCH  12  16
HETATM   16  C   UNL     1     -42.832  58.910 -53.246  1.00  0.00     0.278 C 
BRANCH  16  17
HETATM   17  N   UNL     1     -42.340  60.137 -52.582  1.00  0.00     0.092 N 
HETATM   18  C   UNL     1     -42.616  60.150 -51.132  1.00  0.00     0.300 C 
HETATM   19  C   UNL     1     -44.099  60.345 -50.743  1.00  0.00     0.264 C 
HETATM   20  N   UNL     1     -44.689  61.560 -51.440  1.00  0.00    -0.072 N 
HETATM   21  C   UNL     1     -46.149  61.721 -51.139  1.00  0.00     0.269 C 
HETATM   22  H   UNL     1     -44.197  62.385 -51.074  1.00  0.00     0.279 HD
HETATM   23  C   UNL     1     -44.433  61.536 -52.941  1.00  0.00     0.264 C 
HETATM   24  C   UNL     1     -42.929  61.339 -53.214  1.00  0.00     0.300 C 
ENDBRANCH  16  17
ENDBRANCH  12  16
ENDBRANCH   1  10
TORSDOF 3
ENDMDL
