MODEL 1
REMARK VINA RESULT:      -7.7      0.000      0.000
REMARK  5 active torsions:
REMARK  status: ('A' for Active; 'I' for Inactive)
REMARK    1  A    between atoms: C_4  and  S_5 
REMARK    2  A    between atoms: S_5  and  C_6 
REMARK    3  A    between atoms: C_6  and  C_7 
REMARK       I    between atoms: C_7  and  N_8 
REMARK    4  A    between atoms: N_8  and  C_9 
REMARK    5  A    between atoms: C_11  and  C_12 
ROOT
HETATM    1  C   UNL     1     -41.055  54.960 -54.356  1.00  0.00     0.035 A 
HETATM    2  C   UNL     1     -40.687  53.612 -54.412  1.00  0.00     0.042 A 
HETATM    3  C   UNL     1     -40.442  52.871 -53.242  1.00  0.00    -0.021 A 
HETATM    4  C   UNL     1     -40.578  53.510 -52.003  1.00  0.00     0.012 A 
HETATM    5  C   UNL     1     -40.953  54.852 -51.934  1.00  0.00     0.003 A 
HETATM    6  C   UNL     1     -41.192  55.572 -53.106  1.00  0.00     0.029 A 
ENDROOT
BRANCH   1   7
HETATM    7  N   UNL     1     -41.303  55.756 -55.493  1.00  0.00    -0.327 N 
HETATM    8  C   UNL     1     -42.515  56.257 -55.931  1.00  0.00     0.231 C 
HETATM    9  O   UNL     1     -43.600  56.098 -55.375  1.00  0.00    -0.272 OA
HETATM   10  H   UNL     1     -40.517  55.921 -56.114  1.00  0.00     0.169 HD
BRANCH   8  11
HETATM   11  C   UNL     1     -42.435  57.144 -57.167  1.00  0.00     0.182 C 
BRANCH  11  12
HETATM   12  S   UNL     1     -43.988  58.039 -57.513  1.00  0.00    -0.121 SA
BRANCH  12  13
HETATM   13  C   UNL     1     -44.629  56.985 -58.801  1.00  0.00     0.001 A 
HETATM   14  C   UNL     1     -45.926  57.188 -59.282  1.00  0.00     0.018 A 
HETATM   15  C   UNL     1     -46.441  56.361 -60.284  1.00  0.00     0.001 A 
HETATM   16  C   UNL     1     -45.659  55.335 -60.814  1.00  0.00     0.000 A 
HETATM   17  C   UNL     1     -44.359  55.140 -60.349  1.00  0.00     0.001 A 
HETATM   18  C   UNL     1     -43.844  55.966 -59.349  1.00  0.00     0.018 A 
ENDBRANCH  12  13
ENDBRANCH  11  12
ENDBRANCH   8  11
ENDBRANCH   1   7
BRANCH   3  19
HETATM   19  C   UNL     1     -40.044  51.472 -53.338  1.00  0.00     0.010 A 
HETATM   20  C   UNL     1     -40.007  50.597 -54.453  1.00  0.00     0.152 A 
HETATM   21  N   UNL     1     -39.586  49.369 -54.138  1.00  0.00    -0.187 NA
HETATM   22  N   UNL     1     -39.359  49.446 -52.819  1.00  0.00    -0.289 N 
HETATM   23  H   UNL     1     -39.030  48.616 -52.339  1.00  0.00     0.188 HD
HETATM   24  C   UNL     1     -39.616  50.680 -52.293  1.00  0.00     0.123 A 
ENDBRANCH   3  19
TORSDOF 5
ENDMDL
MODEL 2
REMARK VINA RESULT:      -7.7      3.343      7.805
REMARK  5 active torsions:
REMARK  status: ('A' for Active; 'I' for Inactive)
REMARK    1  A    between atoms: C_4  and  S_5 
REMARK    2  A    between atoms: S_5  and  C_6 
REMARK    3  A    between atoms: C_6  and  C_7 
REMARK       I    between atoms: C_7  and  N_8 
REMARK    4  A    between atoms: N_8  and  C_9 
REMARK    5  A    between atoms: C_11  and  C_12 
ROOT
HETATM    1  C   UNL     1     -43.380  55.842 -54.376  1.00  0.00     0.035 A 
HETATM    2  C   UNL     1     -42.879  55.889 -55.681  1.00  0.00     0.042 A 
HETATM    3  C   UNL     1     -43.349  56.831 -56.613  1.00  0.00    -0.021 A 
HETATM    4  C   UNL     1     -44.335  57.739 -56.208  1.00  0.00     0.012 A 
HETATM    5  C   UNL     1     -44.836  57.709 -54.906  1.00  0.00     0.003 A 
HETATM    6  C   UNL     1     -44.358  56.765 -53.995  1.00  0.00     0.029 A 
ENDROOT
BRANCH   1   7
HETATM    7  N   UNL     1     -42.956  54.914 -53.402  1.00  0.00    -0.327 N 
HETATM    8  C   UNL     1     -42.009  55.096 -52.411  1.00  0.00     0.231 C 
HETATM    9  O   UNL     1     -41.376  56.130 -52.204  1.00  0.00    -0.272 OA
HETATM   10  H   UNL     1     -43.328  53.973 -53.478  1.00  0.00     0.169 HD
BRANCH   8  11
HETATM   11  C   UNL     1     -41.828  53.911 -51.471  1.00  0.00     0.182 C 
BRANCH  11  12
HETATM   12  S   UNL     1     -40.076  53.496 -51.164  1.00  0.00    -0.121 SA
BRANCH  12  13
HETATM   13  C   UNL     1     -39.952  52.050 -52.200  1.00  0.00     0.001 A 
HETATM   14  C   UNL     1     -40.177  52.160 -53.576  1.00  0.00     0.018 A 
HETATM   15  C   UNL     1     -40.092  51.031 -54.394  1.00  0.00     0.001 A 
HETATM   16  C   UNL     1     -39.773  49.790 -53.842  1.00  0.00     0.000 A 
HETATM   17  C   UNL     1     -39.532  49.679 -52.474  1.00  0.00     0.001 A 
HETATM   18  C   UNL     1     -39.616  50.807 -51.656  1.00  0.00     0.018 A 
ENDBRANCH  12  13
ENDBRANCH  11  12
ENDBRANCH   8  11
ENDBRANCH   1   7
BRANCH   3  19
HETATM   19  C   UNL     1     -42.816  56.839 -57.969  1.00  0.00     0.010 A 
HETATM   20  C   UNL     1     -42.927  55.884 -59.011  1.00  0.00     0.152 A 
HETATM   21  N   UNL     1     -42.285  56.249 -60.124  1.00  0.00    -0.187 NA
HETATM   22  N   UNL     1     -41.752  57.436 -59.801  1.00  0.00    -0.289 N 
HETATM   23  H   UNL     1     -41.200  57.921 -60.500  1.00  0.00     0.188 HD
HETATM   24  C   UNL     1     -42.039  57.834 -58.526  1.00  0.00     0.123 A 
ENDBRANCH   3  19
TORSDOF 5
ENDMDL
MODEL 3
REMARK VINA RESULT:      -7.6      2.506      3.530
REMARK  5 active torsions:
REMARK  status: ('A' for Active; 'I' for Inactive)
REMARK    1  A    between atoms: C_4  and  S_5 
REMARK    2  A    between atoms: S_5  and  C_6 
REMARK    3  A    between atoms: C_6  and  C_7 
REMARK       I    between atoms: C_7  and  N_8 
REMARK    4  A    between atoms: N_8  and  C_9 
REMARK    5  A    between atoms: C_11  and  C_12 
ROOT
HETATM    1  C   UNL     1     -41.394  53.176 -53.928  1.00  0.00     0.035 A 
HETATM    2  C   UNL     1     -41.453  53.672 -52.622  1.00  0.00     0.042 A 
HETATM    3  C   UNL     1     -40.614  53.170 -51.610  1.00  0.00    -0.021 A 
HETATM    4  C   UNL     1     -39.703  52.158 -51.936  1.00  0.00     0.012 A 
HETATM    5  C   UNL     1     -39.628  51.663 -53.238  1.00  0.00     0.003 A 
HETATM    6  C   UNL     1     -40.470  52.171 -54.229  1.00  0.00     0.029 A 
ENDROOT
BRANCH   1   7
HETATM    7  N   UNL     1     -42.216  53.632 -54.980  1.00  0.00    -0.327 N 
HETATM    8  C   UNL     1     -42.182  54.860 -55.613  1.00  0.00     0.231 C 
HETATM    9  O   UNL     1     -41.399  55.775 -55.364  1.00  0.00    -0.272 OA
HETATM   10  H   UNL     1     -42.976  53.021 -55.261  1.00  0.00     0.169 HD
BRANCH   8  11
HETATM   11  C   UNL     1     -43.166  55.017 -56.766  1.00  0.00     0.182 C 
BRANCH  11  12
HETATM   12  S   UNL     1     -42.907  56.543 -57.733  1.00  0.00    -0.121 SA
BRANCH  12  13
HETATM   13  C   UNL     1     -44.172  56.304 -58.967  1.00  0.00     0.001 A 
HETATM   14  C   UNL     1     -44.030  55.292 -59.920  1.00  0.00     0.018 A 
HETATM   15  C   UNL     1     -45.011  55.103 -60.896  1.00  0.00     0.001 A 
HETATM   16  C   UNL     1     -46.142  55.919 -60.917  1.00  0.00     0.000 A 
HETATM   17  C   UNL     1     -46.296  56.919 -59.959  1.00  0.00     0.001 A 
HETATM   18  C   UNL     1     -45.316  57.108 -58.983  1.00  0.00     0.018 A 
ENDBRANCH  12  13
ENDBRANCH  11  12
ENDBRANCH   8  11
ENDBRANCH   1   7
BRANCH   3  19
HETATM   19  C   UNL     1     -40.715  53.698 -50.256  1.00  0.00     0.010 A 
HETATM   20  C   UNL     1     -40.507  53.070 -49.002  1.00  0.00     0.152 A 
HETATM   21  N   UNL     1     -40.706  53.892 -47.968  1.00  0.00    -0.187 NA
HETATM   22  N   UNL     1     -41.049  55.049 -48.551  1.00  0.00    -0.289 N 
HETATM   23  H   UNL     1     -41.259  55.843 -47.956  1.00  0.00     0.188 HD
HETATM   24  C   UNL     1     -41.070  54.987 -49.915  1.00  0.00     0.123 A 
ENDBRANCH   3  19
TORSDOF 5
ENDMDL
MODEL 4
REMARK VINA RESULT:      -7.6      1.739      2.181
REMARK  5 active torsions:
REMARK  status: ('A' for Active; 'I' for Inactive)
REMARK    1  A    between atoms: C_4  and  S_5 
REMARK    2  A    between atoms: S_5  and  C_6 
REMARK    3  A    between atoms: C_6  and  C_7 
REMARK       I    between atoms: C_7  and  N_8 
REMARK    4  A    between atoms: N_8  and  C_9 
REMARK    5  A    between atoms: C_11  and  C_12 
ROOT
HETATM    1  C   UNL     1     -41.370  54.755 -52.770  1.00  0.00     0.035 A 
HETATM    2  C   UNL     1     -40.990  53.452 -53.108  1.00  0.00     0.042 A 
HETATM    3  C   UNL     1     -40.313  52.626 -52.193  1.00  0.00    -0.021 A 
HETATM    4  C   UNL     1     -40.028  53.131 -50.918  1.00  0.00     0.012 A 
HETATM    5  C   UNL     1     -40.412  54.425 -50.566  1.00  0.00     0.003 A 
HETATM    6  C   UNL     1     -41.081  55.232 -51.488  1.00  0.00     0.029 A 
ENDROOT
BRANCH   1   7
HETATM    7  N   UNL     1     -42.040  55.632 -53.648  1.00  0.00    -0.327 N 
HETATM    8  C   UNL     1     -43.273  55.456 -54.247  1.00  0.00     0.231 C 
HETATM    9  O   UNL     1     -44.013  54.485 -54.096  1.00  0.00    -0.272 OA
HETATM   10  H   UNL     1     -41.530  56.459 -53.942  1.00  0.00     0.169 HD
BRANCH   8  11
HETATM   11  C   UNL     1     -43.749  56.630 -55.095  1.00  0.00     0.182 C 
BRANCH  11  12
HETATM   12  S   UNL     1     -42.388  57.707 -55.662  1.00  0.00    -0.121 SA
BRANCH  12  13
HETATM   13  C   UNL     1     -42.459  57.341 -57.406  1.00  0.00     0.001 A 
HETATM   14  C   UNL     1     -41.963  58.266 -58.330  1.00  0.00     0.018 A 
HETATM   15  C   UNL     1     -42.023  57.993 -59.699  1.00  0.00     0.001 A 
HETATM   16  C   UNL     1     -42.570  56.791 -60.148  1.00  0.00     0.000 A 
HETATM   17  C   UNL     1     -43.050  55.859 -59.230  1.00  0.00     0.001 A 
HETATM   18  C   UNL     1     -42.990  56.131 -57.862  1.00  0.00     0.018 A 
ENDBRANCH  12  13
ENDBRANCH  11  12
ENDBRANCH   8  11
ENDBRANCH   1   7
BRANCH   3  19
HETATM   19  C   UNL     1     -39.916  51.280 -52.585  1.00  0.00     0.010 A 
HETATM   20  C   UNL     1     -39.802  50.688 -53.868  1.00  0.00     0.152 A 
HETATM   21  N   UNL     1     -39.411  49.412 -53.821  1.00  0.00    -0.187 NA
HETATM   22  N   UNL     1     -39.281  49.175 -52.508  1.00  0.00    -0.289 N 
HETATM   23  H   UNL     1     -38.992  48.248 -52.213  1.00  0.00     0.188 HD
HETATM   24  C   UNL     1     -39.571  50.257 -51.727  1.00  0.00     0.123 A 
ENDBRANCH   3  19
TORSDOF 5
ENDMDL
MODEL 5
REMARK VINA RESULT:      -7.5      2.988      5.115
REMARK  5 active torsions:
REMARK  status: ('A' for Active; 'I' for Inactive)
REMARK    1  A    between atoms: C_4  and  S_5 
REMARK    2  A    between atoms: S_5  and  C_6 
REMARK    3  A    between atoms: C_6  and  C_7 
REMARK       I    between atoms: C_7  and  N_8 
REMARK    4  A    between atoms: N_8  and  C_9 
REMARK    5  A    between atoms: C_11  and  C_12 
ROOT
HETATM    1  C   UNL     1     -40.794  53.969 -54.056  1.00  0.00     0.035 A 
HETATM    2  C   UNL     1     -40.904  54.290 -52.699  1.00  0.00     0.042 A 
HETATM    3  C   UNL     1     -40.449  53.412 -51.700  1.00  0.00    -0.021 A 
HETATM    4  C   UNL     1     -39.869  52.198 -52.088  1.00  0.00     0.012 A 
HETATM    5  C   UNL     1     -39.744  51.871 -53.438  1.00  0.00     0.003 A 
HETATM    6  C   UNL     1     -40.204  52.754 -54.417  1.00  0.00     0.029 A 
ENDROOT
BRANCH   1   7
HETATM    7  N   UNL     1     -41.241  54.803 -55.101  1.00  0.00    -0.327 N 
HETATM    8  C   UNL     1     -42.492  54.830 -55.690  1.00  0.00     0.231 C 
HETATM    9  O   UNL     1     -43.447  54.121 -55.379  1.00  0.00    -0.272 OA
HETATM   10  H   UNL     1     -40.547  55.406 -55.532  1.00  0.00     0.169 HD
BRANCH   8  11
HETATM   11  C   UNL     1     -42.677  55.903 -56.756  1.00  0.00     0.182 C 
BRANCH  11  12
HETATM   12  S   UNL     1     -43.727  57.291 -56.206  1.00  0.00    -0.121 SA
BRANCH  12  13
HETATM   13  C   UNL     1     -42.957  57.608 -54.629  1.00  0.00     0.001 A 
HETATM   14  C   UNL     1     -41.736  58.286 -54.577  1.00  0.00     0.018 A 
HETATM   15  C   UNL     1     -41.120  58.530 -53.347  1.00  0.00     0.001 A 
HETATM   16  C   UNL     1     -41.727  58.106 -52.165  1.00  0.00     0.000 A 
HETATM   17  C   UNL     1     -42.953  57.444 -52.211  1.00  0.00     0.001 A 
HETATM   18  C   UNL     1     -43.569  57.200 -53.440  1.00  0.00     0.018 A 
ENDBRANCH  12  13
ENDBRANCH  11  12
ENDBRANCH   8  11
ENDBRANCH   1   7
BRANCH   3  19
HETATM   19  C   UNL     1     -40.596  53.771 -50.295  1.00  0.00     0.010 A 
HETATM   20  C   UNL     1     -40.984  54.993 -49.690  1.00  0.00     0.152 A 
HETATM   21  N   UNL     1     -40.994  54.935 -48.356  1.00  0.00    -0.187 NA
HETATM   22  N   UNL     1     -40.605  53.679 -48.096  1.00  0.00    -0.289 N 
HETATM   23  H   UNL     1     -40.528  53.390 -47.127  1.00  0.00     0.188 HD
HETATM   24  C   UNL     1     -40.355  52.942 -49.219  1.00  0.00     0.123 A 
ENDBRANCH   3  19
TORSDOF 5
ENDMDL
MODEL 6
REMARK VINA RESULT:      -7.3      3.738      4.740
REMARK  5 active torsions:
REMARK  status: ('A' for Active; 'I' for Inactive)
REMARK    1  A    between atoms: C_4  and  S_5 
REMARK    2  A    between atoms: S_5  and  C_6 
REMARK    3  A    between atoms: C_6  and  C_7 
REMARK       I    between atoms: C_7  and  N_8 
REMARK    4  A    between atoms: N_8  and  C_9 
REMARK    5  A    between atoms: C_11  and  C_12 
ROOT
HETATM    1  C   UNL     1     -41.452  55.711 -50.373  1.00  0.00     0.035 A 
HETATM    2  C   UNL     1     -41.154  54.837 -51.423  1.00  0.00     0.042 A 
HETATM    3  C   UNL     1     -40.586  53.573 -51.185  1.00  0.00    -0.021 A 
HETATM    4  C   UNL     1     -40.325  53.194 -49.862  1.00  0.00     0.012 A 
HETATM    5  C   UNL     1     -40.627  54.053 -48.805  1.00  0.00     0.003 A 
HETATM    6  C   UNL     1     -41.189  55.305 -49.061  1.00  0.00     0.029 A 
ENDROOT
BRANCH   1   7
HETATM    7  N   UNL     1     -42.011  56.993 -50.551  1.00  0.00    -0.327 N 
HETATM    8  C   UNL     1     -41.348  58.189 -50.750  1.00  0.00     0.231 C 
HETATM    9  O   UNL     1     -40.128  58.330 -50.821  1.00  0.00    -0.272 OA
HETATM   10  H   UNL     1     -43.018  57.069 -50.444  1.00  0.00     0.169 HD
BRANCH   8  11
HETATM   11  C   UNL     1     -42.251  59.395 -50.976  1.00  0.00     0.182 C 
BRANCH  11  12
HETATM   12  S   UNL     1     -42.282  59.957 -52.713  1.00  0.00    -0.121 SA
BRANCH  12  13
HETATM   13  C   UNL     1     -42.614  58.391 -53.500  1.00  0.00     0.001 A 
HETATM   14  C   UNL     1     -43.909  57.867 -53.484  1.00  0.00     0.018 A 
HETATM   15  C   UNL     1     -44.176  56.636 -54.089  1.00  0.00     0.001 A 
HETATM   16  C   UNL     1     -43.152  55.931 -54.721  1.00  0.00     0.000 A 
HETATM   17  C   UNL     1     -41.862  56.457 -54.754  1.00  0.00     0.001 A 
HETATM   18  C   UNL     1     -41.595  57.687 -54.150  1.00  0.00     0.018 A 
ENDBRANCH  12  13
ENDBRANCH  11  12
ENDBRANCH   8  11
ENDBRANCH   1   7
BRANCH   3  19
HETATM   19  C   UNL     1     -40.273  52.695 -52.305  1.00  0.00     0.010 A 
HETATM   20  C   UNL     1     -39.506  51.503 -52.358  1.00  0.00     0.152 A 
HETATM   21  N   UNL     1     -39.440  50.981 -53.586  1.00  0.00    -0.187 NA
HETATM   22  N   UNL     1     -40.156  51.837 -54.328  1.00  0.00    -0.289 N 
HETATM   23  H   UNL     1     -40.248  51.652 -55.321  1.00  0.00     0.188 HD
HETATM   24  C   UNL     1     -40.674  52.878 -53.612  1.00  0.00     0.123 A 
ENDBRANCH   3  19
TORSDOF 5
ENDMDL
MODEL 7
REMARK VINA RESULT:      -7.3      4.156      6.147
REMARK  5 active torsions:
REMARK  status: ('A' for Active; 'I' for Inactive)
REMARK    1  A    between atoms: C_4  and  S_5 
REMARK    2  A    between atoms: S_5  and  C_6 
REMARK    3  A    between atoms: C_6  and  C_7 
REMARK       I    between atoms: C_7  and  N_8 
REMARK    4  A    between atoms: N_8  and  C_9 
REMARK    5  A    between atoms: C_11  and  C_12 
ROOT
HETATM    1  C   UNL     1     -41.178  54.677 -53.221  1.00  0.00     0.035 A 
HETATM    2  C   UNL     1     -40.834  53.491 -52.566  1.00  0.00     0.042 A 
HETATM    3  C   UNL     1     -40.214  52.429 -53.250  1.00  0.00    -0.021 A 
HETATM    4  C   UNL     1     -39.937  52.582 -54.614  1.00  0.00     0.012 A 
HETATM    5  C   UNL     1     -40.267  53.765 -55.277  1.00  0.00     0.003 A 
HETATM    6  C   UNL     1     -40.883  54.807 -54.582  1.00  0.00     0.029 A 
ENDROOT
BRANCH   1   7
HETATM    7  N   UNL     1     -41.809  55.770 -52.592  1.00  0.00    -0.327 N 
HETATM    8  C   UNL     1     -43.009  55.777 -51.905  1.00  0.00     0.231 C 
HETATM    9  O   UNL     1     -43.733  54.801 -51.715  1.00  0.00    -0.272 OA
HETATM   10  H   UNL     1     -41.378  56.680 -52.718  1.00  0.00     0.169 HD
BRANCH   8  11
HETATM   11  C   UNL     1     -43.384  57.115 -51.281  1.00  0.00     0.182 C 
BRANCH  11  12
HETATM   12  S   UNL     1     -43.011  58.542 -52.356  1.00  0.00    -0.121 SA
BRANCH  12  13
HETATM   13  C   UNL     1     -41.378  58.923 -51.747  1.00  0.00     0.001 A 
HETATM   14  C   UNL     1     -41.208  59.318 -50.417  1.00  0.00     0.018 A 
HETATM   15  C   UNL     1     -39.934  59.628 -49.934  1.00  0.00     0.001 A 
HETATM   16  C   UNL     1     -38.825  59.535 -50.775  1.00  0.00     0.000 A 
HETATM   17  C   UNL     1     -38.988  59.127 -52.098  1.00  0.00     0.001 A 
HETATM   18  C   UNL     1     -40.260  58.817 -52.581  1.00  0.00     0.018 A 
ENDBRANCH  12  13
ENDBRANCH  11  12
ENDBRANCH   8  11
ENDBRANCH   1   7
BRANCH   3  19
HETATM   19  C   UNL     1     -39.885  51.201 -52.539  1.00  0.00     0.010 A 
HETATM   20  C   UNL     1     -39.662  50.964 -51.159  1.00  0.00     0.152 A 
HETATM   21  N   UNL     1     -39.372  49.688 -50.889  1.00  0.00    -0.187 NA
HETATM   22  N   UNL     1     -39.400  49.101 -52.094  1.00  0.00    -0.289 N 
HETATM   23  H   UNL     1     -39.201  48.108 -52.149  1.00  0.00     0.188 HD
HETATM   24  C   UNL     1     -39.702  49.960 -53.112  1.00  0.00     0.123 A 
ENDBRANCH   3  19
TORSDOF 5
ENDMDL
MODEL 8
REMARK VINA RESULT:      -7.3      2.801      3.952
REMARK  5 active torsions:
REMARK  status: ('A' for Active; 'I' for Inactive)
REMARK    1  A    between atoms: C_4  and  S_5 
REMARK    2  A    between atoms: S_5  and  C_6 
REMARK    3  A    between atoms: C_6  and  C_7 
REMARK       I    between atoms: C_7  and  N_8 
REMARK    4  A    between atoms: N_8  and  C_9 
REMARK    5  A    between atoms: C_11  and  C_12 
ROOT
HETATM    1  C   UNL     1     -41.225  53.247 -53.890  1.00  0.00     0.035 A 
HETATM    2  C   UNL     1     -41.294  53.698 -52.568  1.00  0.00     0.042 A 
HETATM    3  C   UNL     1     -40.539  53.092 -51.548  1.00  0.00    -0.021 A 
HETATM    4  C   UNL     1     -39.701  52.021 -51.880  1.00  0.00     0.012 A 
HETATM    5  C   UNL     1     -39.617  51.568 -53.197  1.00  0.00     0.003 A 
HETATM    6  C   UNL     1     -40.375  52.181 -54.196  1.00  0.00     0.029 A 
ENDROOT
BRANCH   1   7
HETATM    7  N   UNL     1     -41.966  53.807 -54.951  1.00  0.00    -0.327 N 
HETATM    8  C   UNL     1     -41.877  55.086 -55.468  1.00  0.00     0.231 C 
HETATM    9  O   UNL     1     -41.105  55.963 -55.083  1.00  0.00    -0.272 OA
HETATM   10  H   UNL     1     -42.709  53.235 -55.339  1.00  0.00     0.169 HD
BRANCH   8  11
HETATM   11  C   UNL     1     -42.775  55.359 -56.668  1.00  0.00     0.182 C 
BRANCH  11  12
HETATM   12  S   UNL     1     -43.598  56.987 -56.596  1.00  0.00    -0.121 SA
BRANCH  12  13
HETATM   13  C   UNL     1     -42.941  57.692 -58.097  1.00  0.00     0.001 A 
HETATM   14  C   UNL     1     -42.674  56.866 -59.192  1.00  0.00     0.018 A 
HETATM   15  C   UNL     1     -42.150  57.408 -60.369  1.00  0.00     0.001 A 
HETATM   16  C   UNL     1     -41.900  58.777 -60.457  1.00  0.00     0.000 A 
HETATM   17  C   UNL     1     -42.180  59.607 -59.373  1.00  0.00     0.001 A 
HETATM   18  C   UNL     1     -42.704  59.067 -58.198  1.00  0.00     0.018 A 
ENDBRANCH  12  13
ENDBRANCH  11  12
ENDBRANCH   8  11
ENDBRANCH   1   7
BRANCH   3  19
HETATM   19  C   UNL     1     -40.648  53.578 -50.178  1.00  0.00     0.010 A 
HETATM   20  C   UNL     1     -40.484  52.902 -48.942  1.00  0.00     0.152 A 
HETATM   21  N   UNL     1     -40.676  53.694 -47.885  1.00  0.00    -0.187 NA
HETATM   22  N   UNL     1     -40.973  54.881 -48.434  1.00  0.00    -0.289 N 
HETATM   23  H   UNL     1     -41.169  55.661 -47.817  1.00  0.00     0.188 HD
HETATM   24  C   UNL     1     -40.970  54.865 -49.800  1.00  0.00     0.123 A 
ENDBRANCH   3  19
TORSDOF 5
ENDMDL
MODEL 9
REMARK VINA RESULT:      -7.2      4.185      6.239
REMARK  5 active torsions:
REMARK  status: ('A' for Active; 'I' for Inactive)
REMARK    1  A    between atoms: C_4  and  S_5 
REMARK    2  A    between atoms: S_5  and  C_6 
REMARK    3  A    between atoms: C_6  and  C_7 
REMARK       I    between atoms: C_7  and  N_8 
REMARK    4  A    between atoms: N_8  and  C_9 
REMARK    5  A    between atoms: C_11  and  C_12 
ROOT
HETATM    1  C   UNL     1     -40.913  54.836 -53.057  1.00  0.00     0.035 A 
HETATM    2  C   UNL     1     -40.602  53.559 -52.579  1.00  0.00     0.042 A 
HETATM    3  C   UNL     1     -40.126  52.552 -53.438  1.00  0.00    -0.021 A 
HETATM    4  C   UNL     1     -39.959  52.853 -54.796  1.00  0.00     0.012 A 
HETATM    5  C   UNL     1     -40.256  54.127 -55.282  1.00  0.00     0.003 A 
HETATM    6  C   UNL     1     -40.729  55.113 -54.415  1.00  0.00     0.029 A 
ENDROOT
BRANCH   1   7
HETATM    7  N   UNL     1     -41.403  55.881 -52.247  1.00  0.00    -0.327 N 
HETATM    8  C   UNL     1     -42.698  56.357 -52.166  1.00  0.00     0.231 C 
HETATM    9  O   UNL     1     -43.663  55.924 -52.795  1.00  0.00    -0.272 OA
HETATM   10  H   UNL     1     -40.716  56.404 -51.713  1.00  0.00     0.169 HD
BRANCH   8  11
HETATM   11  C   UNL     1     -42.915  57.460 -51.137  1.00  0.00     0.182 C 
BRANCH  11  12
HETATM   12  S   UNL     1     -42.121  59.039 -51.595  1.00  0.00    -0.121 SA
BRANCH  12  13
HETATM   13  C   UNL     1     -43.307  60.160 -50.874  1.00  0.00     0.001 A 
HETATM   14  C   UNL     1     -44.646  59.776 -50.762  1.00  0.00     0.018 A 
HETATM   15  C   UNL     1     -45.584  60.651 -50.207  1.00  0.00     0.001 A 
HETATM   16  C   UNL     1     -45.185  61.908 -49.754  1.00  0.00     0.000 A 
HETATM   17  C   UNL     1     -43.847  62.289 -49.849  1.00  0.00     0.001 A 
HETATM   18  C   UNL     1     -42.910  61.415 -50.402  1.00  0.00     0.018 A 
ENDBRANCH  12  13
ENDBRANCH  11  12
ENDBRANCH   8  11
ENDBRANCH   1   7
BRANCH   3  19
HETATM   19  C   UNL     1     -39.829  51.227 -52.909  1.00  0.00     0.010 A 
HETATM   20  C   UNL     1     -39.730  49.973 -53.562  1.00  0.00     0.152 A 
HETATM   21  N   UNL     1     -39.445  48.971 -52.726  1.00  0.00    -0.187 NA
HETATM   22  N   UNL     1     -39.368  49.574 -51.531  1.00  0.00    -0.289 N 
HETATM   23  H   UNL     1     -39.162  49.005 -50.718  1.00  0.00     0.188 HD
HETATM   24  C   UNL     1     -39.589  50.921 -51.586  1.00  0.00     0.123 A 
ENDBRANCH   3  19
TORSDOF 5
ENDMDL
MODEL 10
REMARK VINA RESULT:      -7.1      3.310      4.439
REMARK  5 active torsions:
REMARK  status: ('A' for Active; 'I' for Inactive)
REMARK    1  A    between atoms: C_4  and  S_5 
REMARK    2  A    between atoms: S_5  and  C_6 
REMARK    3  A    between atoms: C_6  and  C_7 
REMARK       I    between atoms: C_7  and  N_8 
REMARK    4  A    between atoms: N_8  and  C_9 
REMARK    5  A    between atoms: C_11  and  C_12 
ROOT
HETATM    1  C   UNL     1     -40.936  55.090 -50.447  1.00  0.00     0.035 A 
HETATM    2  C   UNL     1     -40.613  53.891 -51.090  1.00  0.00     0.042 A 
HETATM    3  C   UNL     1     -40.348  52.718 -50.361  1.00  0.00    -0.021 A 
HETATM    4  C   UNL     1     -40.420  52.766 -48.963  1.00  0.00     0.012 A 
HETATM    5  C   UNL     1     -40.751  53.954 -48.311  1.00  0.00     0.003 A 
HETATM    6  C   UNL     1     -41.009  55.110 -49.050  1.00  0.00     0.029 A 
ENDROOT
BRANCH   1   7
HETATM    7  N   UNL     1     -41.200  56.300 -51.122  1.00  0.00    -0.327 N 
HETATM    8  C   UNL     1     -42.430  56.837 -51.452  1.00  0.00     0.231 C 
HETATM    9  O   UNL     1     -43.524  56.340 -51.189  1.00  0.00    -0.272 OA
HETATM   10  H   UNL     1     -40.397  56.805 -51.482  1.00  0.00     0.169 HD
BRANCH   8  11
HETATM   11  C   UNL     1     -42.375  58.202 -52.127  1.00  0.00     0.182 C 
BRANCH  11  12
HETATM   12  S   UNL     1     -41.154  58.287 -53.482  1.00  0.00    -0.121 SA
BRANCH  12  13
HETATM   13  C   UNL     1     -41.555  56.757 -54.307  1.00  0.00     0.001 A 
HETATM   14  C   UNL     1     -40.586  55.757 -54.424  1.00  0.00     0.018 A 
HETATM   15  C   UNL     1     -40.888  54.559 -55.077  1.00  0.00     0.001 A 
HETATM   16  C   UNL     1     -42.161  54.354 -55.608  1.00  0.00     0.000 A 
HETATM   17  C   UNL     1     -43.135  55.343 -55.481  1.00  0.00     0.001 A 
HETATM   18  C   UNL     1     -42.835  56.539 -54.828  1.00  0.00     0.018 A 
ENDBRANCH  12  13
ENDBRANCH  11  12
ENDBRANCH   8  11
ENDBRANCH   1   7
BRANCH   3  19
HETATM   19  C   UNL     1     -39.997  51.490 -51.064  1.00  0.00     0.010 A 
HETATM   20  C   UNL     1     -39.651  51.269 -52.420  1.00  0.00     0.152 A 
HETATM   21  N   UNL     1     -39.400  49.986 -52.692  1.00  0.00    -0.187 NA
HETATM   22  N   UNL     1     -39.591  49.375 -51.514  1.00  0.00    -0.289 N 
HETATM   23  H   UNL     1     -39.462  48.370 -51.468  1.00  0.00     0.188 HD
HETATM   24  C   UNL     1     -39.949  50.228 -50.510  1.00  0.00     0.123 A 
ENDBRANCH   3  19
TORSDOF 5
ENDMDL
