MODEL 1
REMARK VINA RESULT:      -8.5      0.000      0.000
REMARK  5 active torsions:
REMARK  status: ('A' for Active; 'I' for Inactive)
REMARK    1  A    between atoms: C_9  and  C_10 
REMARK    2  A    between atoms: C_11  and  O_12 
REMARK    3  A    between atoms: O_12  and  C_13 
REMARK    4  A    between atoms: C_20  and  C_21 
REMARK       I    between atoms: C_21  and  N_22 
REMARK    5  A    between atoms: N_22  and  C_23 
ROOT
HETATM    1  C   UNL     1     -41.339  54.637 -48.857  1.00  0.00     0.070 C 
HETATM    2  C   UNL     1     -41.309  55.695 -49.930  1.00  0.00     0.037 A 
HETATM    3  N   UNL     1     -41.148  57.001 -49.483  1.00  0.00    -0.192 N 
HETATM    4  C   UNL     1     -40.954  58.047 -50.309  1.00  0.00     0.725 A 
HETATM    5  N   UNL     1     -41.002  57.854 -51.664  1.00  0.00    -0.084 N 
HETATM    6  N   UNL     1     -40.708  58.991 -52.332  1.00  0.00    -0.149 NA
HETATM    7  C   UNL     1     -40.536  59.839 -51.310  1.00  0.00     0.275 A 
HETATM    8  N   UNL     1     -40.685  59.303 -50.058  1.00  0.00    -0.054 NA
HETATM    9  C   UNL     1     -41.246  56.553 -52.299  1.00  0.00     0.205 A 
HETATM   10  C   UNL     1     -41.377  55.446 -51.262  1.00  0.00     0.063 A 
HETATM   11  H   UNL     1     -41.066  57.154 -48.482  1.00  0.00     0.184 HD
ENDROOT
BRANCH   9  12
HETATM   12  C   UNL     1     -42.441  56.642 -53.251  1.00  0.00     0.005 A 
HETATM   13  C   UNL     1     -42.357  56.305 -54.618  1.00  0.00     0.083 A 
HETATM   14  C   UNL     1     -43.491  56.413 -55.432  1.00  0.00     0.037 A 
HETATM   15  C   UNL     1     -44.709  56.834 -54.896  1.00  0.00     0.003 A 
HETATM   16  C   UNL     1     -44.804  57.163 -53.549  1.00  0.00     0.001 A 
HETATM   17  C   UNL     1     -43.678  57.072 -52.733  1.00  0.00     0.012 A 
BRANCH  13  18
HETATM   18  O   UNL     1     -41.123  55.941 -55.084  1.00  0.00    -0.290 OA
BRANCH  18  19
HETATM   19  C   UNL     1     -41.044  54.688 -55.744  1.00  0.00     0.505 C 
HETATM   20  F   UNL     1     -39.816  54.154 -55.520  1.00  0.00    -0.184 F 
HETATM   21  F   UNL     1     -41.932  53.860 -55.136  1.00  0.00    -0.184 F 
ENDBRANCH  18  19
ENDBRANCH  13  18
ENDBRANCH   9  12
BRANCH  10  22
HETATM   22  C   UNL     1     -41.493  54.087 -51.848  1.00  0.00     0.256 C 
HETATM   23  N   UNL     1     -40.297  53.406 -51.874  1.00  0.00    -0.323 N 
HETATM   24  H   UNL     1     -39.493  53.880 -51.480  1.00  0.00     0.169 HD
HETATM   25  O   UNL     1     -42.597  53.691 -52.197  1.00  0.00    -0.267 OA
BRANCH  23  26
HETATM   26  C   UNL     1     -40.061  52.113 -52.382  1.00  0.00     0.035 A 
HETATM   27  C   UNL     1     -40.085  51.792 -53.741  1.00  0.00     0.029 A 
HETATM   28  C   UNL     1     -39.829  50.484 -54.166  1.00  0.00     0.002 A 
HETATM   29  C   UNL     1     -39.541  49.488 -53.237  1.00  0.00     0.000 A 
HETATM   30  C   UNL     1     -39.514  49.797 -51.881  1.00  0.00     0.002 A 
HETATM   31  C   UNL     1     -39.777  51.102 -51.455  1.00  0.00     0.029 A 
ENDBRANCH  23  26
ENDBRANCH  10  22
TORSDOF 5
ENDMDL
MODEL 2
REMARK VINA RESULT:      -8.4      2.910      5.952
REMARK  5 active torsions:
REMARK  status: ('A' for Active; 'I' for Inactive)
REMARK    1  A    between atoms: C_9  and  C_10 
REMARK    2  A    between atoms: C_11  and  O_12 
REMARK    3  A    between atoms: O_12  and  C_13 
REMARK    4  A    between atoms: C_20  and  C_21 
REMARK       I    between atoms: C_21  and  N_22 
REMARK    5  A    between atoms: N_22  and  C_23 
ROOT
HETATM    1  C   UNL     1     -42.114  60.144 -55.750  1.00  0.00     0.070 C 
HETATM    2  C   UNL     1     -41.912  59.113 -54.670  1.00  0.00     0.037 A 
HETATM    3  N   UNL     1     -41.128  59.514 -53.594  1.00  0.00    -0.192 N 
HETATM    4  C   UNL     1     -40.966  58.775 -52.480  1.00  0.00     0.725 A 
HETATM    5  N   UNL     1     -41.521  57.525 -52.415  1.00  0.00    -0.084 N 
HETATM    6  N   UNL     1     -41.326  56.965 -51.200  1.00  0.00    -0.149 NA
HETATM    7  C   UNL     1     -40.608  57.922 -50.601  1.00  0.00     0.275 A 
HETATM    8  N   UNL     1     -40.360  59.042 -51.351  1.00  0.00    -0.054 NA
HETATM    9  C   UNL     1     -42.307  56.918 -53.495  1.00  0.00     0.205 A 
HETATM   10  C   UNL     1     -42.476  57.879 -54.665  1.00  0.00     0.063 A 
HETATM   11  H   UNL     1     -40.747  60.456 -53.609  1.00  0.00     0.184 HD
ENDROOT
BRANCH   9  12
HETATM   12  C   UNL     1     -41.708  55.568 -53.896  1.00  0.00     0.005 A 
HETATM   13  C   UNL     1     -42.329  54.337 -53.597  1.00  0.00     0.083 A 
HETATM   14  C   UNL     1     -41.722  53.139 -53.992  1.00  0.00     0.037 A 
HETATM   15  C   UNL     1     -40.517  53.154 -54.697  1.00  0.00     0.003 A 
HETATM   16  C   UNL     1     -39.901  54.362 -55.000  1.00  0.00     0.001 A 
HETATM   17  C   UNL     1     -40.489  55.560 -54.600  1.00  0.00     0.012 A 
BRANCH  13  18
HETATM   18  O   UNL     1     -43.486  54.395 -52.869  1.00  0.00    -0.290 OA
BRANCH  18  19
HETATM   19  C   UNL     1     -43.409  53.938 -51.528  1.00  0.00     0.505 C 
HETATM   20  F   UNL     1     -42.104  53.876 -51.163  1.00  0.00    -0.184 F 
HETATM   21  F   UNL     1     -43.975  54.894 -50.748  1.00  0.00    -0.184 F 
ENDBRANCH  18  19
ENDBRANCH  13  18
ENDBRANCH   9  12
BRANCH  10  22
HETATM   22  C   UNL     1     -43.372  57.371 -55.733  1.00  0.00     0.256 C 
HETATM   23  N   UNL     1     -42.715  57.130 -56.919  1.00  0.00    -0.323 N 
HETATM   24  H   UNL     1     -41.716  57.295 -56.930  1.00  0.00     0.169 HD
HETATM   25  O   UNL     1     -44.551  57.176 -55.468  1.00  0.00    -0.267 OA
BRANCH  23  26
HETATM   26  C   UNL     1     -43.275  56.667 -58.127  1.00  0.00     0.035 A 
HETATM   27  C   UNL     1     -43.531  55.322 -58.403  1.00  0.00     0.029 A 
HETATM   28  C   UNL     1     -44.100  54.945 -59.624  1.00  0.00     0.002 A 
HETATM   29  C   UNL     1     -44.422  55.908 -60.576  1.00  0.00     0.000 A 
HETATM   30  C   UNL     1     -44.171  57.251 -60.311  1.00  0.00     0.002 A 
HETATM   31  C   UNL     1     -43.597  57.628 -59.094  1.00  0.00     0.029 A 
ENDBRANCH  23  26
ENDBRANCH  10  22
TORSDOF 5
ENDMDL
MODEL 3
REMARK VINA RESULT:      -8.4      2.756      4.717
REMARK  5 active torsions:
REMARK  status: ('A' for Active; 'I' for Inactive)
REMARK    1  A    between atoms: C_9  and  C_10 
REMARK    2  A    between atoms: C_11  and  O_12 
REMARK    3  A    between atoms: O_12  and  C_13 
REMARK    4  A    between atoms: C_20  and  C_21 
REMARK       I    between atoms: C_21  and  N_22 
REMARK    5  A    between atoms: N_22  and  C_23 
ROOT
HETATM    1  C   UNL     1     -42.869  55.763 -57.464  1.00  0.00     0.070 C 
HETATM    2  C   UNL     1     -43.271  56.613 -56.286  1.00  0.00     0.037 A 
HETATM    3  N   UNL     1     -43.711  57.896 -56.592  1.00  0.00    -0.192 N 
HETATM    4  C   UNL     1     -44.244  58.732 -55.681  1.00  0.00     0.725 A 
HETATM    5  N   UNL     1     -44.284  58.357 -54.365  1.00  0.00    -0.084 N 
HETATM    6  N   UNL     1     -44.920  59.282 -53.611  1.00  0.00    -0.149 NA
HETATM    7  C   UNL     1     -45.198  60.205 -54.538  1.00  0.00     0.275 A 
HETATM    8  N   UNL     1     -44.795  59.912 -55.815  1.00  0.00    -0.054 NA
HETATM    9  C   UNL     1     -43.784  57.073 -53.862  1.00  0.00     0.205 A 
HETATM   10  C   UNL     1     -43.276  56.193 -54.997  1.00  0.00     0.063 A 
HETATM   11  H   UNL     1     -43.730  58.171 -57.571  1.00  0.00     0.184 HD
ENDROOT
BRANCH   9  12
HETATM   12  C   UNL     1     -42.751  57.300 -52.755  1.00  0.00     0.005 A 
HETATM   13  C   UNL     1     -42.833  56.678 -51.492  1.00  0.00     0.083 A 
HETATM   14  C   UNL     1     -41.854  56.935 -50.526  1.00  0.00     0.037 A 
HETATM   15  C   UNL     1     -40.784  57.786 -50.810  1.00  0.00     0.003 A 
HETATM   16  C   UNL     1     -40.691  58.399 -52.054  1.00  0.00     0.001 A 
HETATM   17  C   UNL     1     -41.668  58.161 -53.019  1.00  0.00     0.012 A 
BRANCH  13  18
HETATM   18  O   UNL     1     -43.929  55.889 -51.268  1.00  0.00    -0.290 OA
BRANCH  18  19
HETATM   19  C   UNL     1     -43.693  54.658 -50.604  1.00  0.00     0.505 C 
HETATM   20  F   UNL     1     -44.782  54.353 -49.854  1.00  0.00    -0.184 F 
HETATM   21  F   UNL     1     -43.611  53.698 -51.560  1.00  0.00    -0.184 F 
ENDBRANCH  18  19
ENDBRANCH  13  18
ENDBRANCH   9  12
BRANCH  10  22
HETATM   22  C   UNL     1     -42.878  54.830 -54.566  1.00  0.00     0.256 C 
HETATM   23  N   UNL     1     -41.574  54.760 -54.129  1.00  0.00    -0.323 N 
HETATM   24  H   UNL     1     -41.048  55.625 -54.124  1.00  0.00     0.169 HD
HETATM   25  O   UNL     1     -43.716  53.938 -54.591  1.00  0.00    -0.267 OA
BRANCH  23  26
HETATM   26  C   UNL     1     -40.884  53.617 -53.676  1.00  0.00     0.035 A 
HETATM   27  C   UNL     1     -40.536  52.541 -54.495  1.00  0.00     0.029 A 
HETATM   28  C   UNL     1     -39.841  51.447 -53.970  1.00  0.00     0.002 A 
HETATM   29  C   UNL     1     -39.483  51.422 -52.625  1.00  0.00     0.000 A 
HETATM   30  C   UNL     1     -39.824  52.490 -51.800  1.00  0.00     0.002 A 
HETATM   31  C   UNL     1     -40.525  53.580 -52.323  1.00  0.00     0.029 A 
ENDBRANCH  23  26
ENDBRANCH  10  22
TORSDOF 5
ENDMDL
MODEL 4
REMARK VINA RESULT:      -8.2      2.080      2.651
REMARK  5 active torsions:
REMARK  status: ('A' for Active; 'I' for Inactive)
REMARK    1  A    between atoms: C_9  and  C_10 
REMARK    2  A    between atoms: C_11  and  O_12 
REMARK    3  A    between atoms: O_12  and  C_13 
REMARK    4  A    between atoms: C_20  and  C_21 
REMARK       I    between atoms: C_21  and  N_22 
REMARK    5  A    between atoms: N_22  and  C_23 
ROOT
HETATM    1  C   UNL     1     -41.744  54.605 -49.239  1.00  0.00     0.070 C 
HETATM    2  C   UNL     1     -41.534  55.679 -50.275  1.00  0.00     0.037 A 
HETATM    3  N   UNL     1     -41.380  56.969 -49.782  1.00  0.00    -0.192 N 
HETATM    4  C   UNL     1     -41.039  58.020 -50.553  1.00  0.00     0.725 A 
HETATM    5  N   UNL     1     -40.920  57.852 -51.907  1.00  0.00    -0.084 N 
HETATM    6  N   UNL     1     -40.497  58.987 -52.506  1.00  0.00    -0.149 NA
HETATM    7  C   UNL     1     -40.424  59.809 -51.452  1.00  0.00     0.275 A 
HETATM    8  N   UNL     1     -40.754  59.259 -50.241  1.00  0.00    -0.054 NA
HETATM    9  C   UNL     1     -41.133  56.574 -52.597  1.00  0.00     0.205 A 
HETATM   10  C   UNL     1     -41.440  55.456 -51.610  1.00  0.00     0.063 A 
HETATM   11  H   UNL     1     -41.420  57.101 -48.775  1.00  0.00     0.184 HD
ENDROOT
BRANCH   9  12
HETATM   12  C   UNL     1     -42.191  56.730 -53.692  1.00  0.00     0.005 A 
HETATM   13  C   UNL     1     -43.539  57.037 -53.415  1.00  0.00     0.083 A 
HETATM   14  C   UNL     1     -44.454  57.162 -54.467  1.00  0.00     0.037 A 
HETATM   15  C   UNL     1     -44.037  57.005 -55.790  1.00  0.00     0.003 A 
HETATM   16  C   UNL     1     -42.709  56.707 -56.073  1.00  0.00     0.001 A 
HETATM   17  C   UNL     1     -41.793  56.567 -55.033  1.00  0.00     0.012 A 
BRANCH  13  18
HETATM   18  O   UNL     1     -43.886  57.137 -52.095  1.00  0.00    -0.290 OA
BRANCH  18  19
HETATM   19  C   UNL     1     -44.647  58.277 -51.729  1.00  0.00     0.505 C 
HETATM   20  F   UNL     1     -44.997  58.165 -50.423  1.00  0.00    -0.184 F 
HETATM   21  F   UNL     1     -43.821  59.351 -51.808  1.00  0.00    -0.184 F 
ENDBRANCH  18  19
ENDBRANCH  13  18
ENDBRANCH   9  12
BRANCH  10  22
HETATM   22  C   UNL     1     -41.535  54.114 -52.236  1.00  0.00     0.256 C 
HETATM   23  N   UNL     1     -40.338  53.433 -52.239  1.00  0.00    -0.323 N 
HETATM   24  H   UNL     1     -39.549  53.896 -51.804  1.00  0.00     0.169 HD
HETATM   25  O   UNL     1     -42.626  53.727 -52.635  1.00  0.00    -0.267 OA
BRANCH  23  26
HETATM   26  C   UNL     1     -40.083  52.154 -52.773  1.00  0.00     0.035 A 
HETATM   27  C   UNL     1     -40.169  51.845 -54.132  1.00  0.00     0.029 A 
HETATM   28  C   UNL     1     -39.890  50.551 -54.585  1.00  0.00     0.002 A 
HETATM   29  C   UNL     1     -39.516  49.558 -53.684  1.00  0.00     0.000 A 
HETATM   30  C   UNL     1     -39.427  49.855 -52.327  1.00  0.00     0.002 A 
HETATM   31  C   UNL     1     -39.713  51.146 -51.874  1.00  0.00     0.029 A 
ENDBRANCH  23  26
ENDBRANCH  10  22
TORSDOF 5
ENDMDL
MODEL 5
REMARK VINA RESULT:      -7.7      3.197      5.121
REMARK  5 active torsions:
REMARK  status: ('A' for Active; 'I' for Inactive)
REMARK    1  A    between atoms: C_9  and  C_10 
REMARK    2  A    between atoms: C_11  and  O_12 
REMARK    3  A    between atoms: O_12  and  C_13 
REMARK    4  A    between atoms: C_20  and  C_21 
REMARK       I    between atoms: C_21  and  N_22 
REMARK    5  A    between atoms: N_22  and  C_23 
ROOT
HETATM    1  C   UNL     1     -42.859  55.381 -57.290  1.00  0.00     0.070 C 
HETATM    2  C   UNL     1     -43.133  56.526 -56.349  1.00  0.00     0.037 A 
HETATM    3  N   UNL     1     -43.479  57.730 -56.951  1.00  0.00    -0.192 N 
HETATM    4  C   UNL     1     -43.898  58.809 -56.262  1.00  0.00     0.725 A 
HETATM    5  N   UNL     1     -43.907  58.772 -54.893  1.00  0.00    -0.084 N 
HETATM    6  N   UNL     1     -44.429  59.907 -54.376  1.00  0.00    -0.149 NA
HETATM    7  C   UNL     1     -44.672  60.598 -55.496  1.00  0.00     0.275 A 
HETATM    8  N   UNL     1     -44.354  59.966 -56.670  1.00  0.00    -0.054 NA
HETATM    9  C   UNL     1     -43.493  57.608 -54.101  1.00  0.00     0.205 A 
HETATM   10  C   UNL     1     -43.113  56.436 -54.996  1.00  0.00     0.063 A 
HETATM   11  H   UNL     1     -43.520  57.759 -57.967  1.00  0.00     0.184 HD
ENDROOT
BRANCH   9  12
HETATM   12  C   UNL     1     -42.394  58.002 -53.111  1.00  0.00     0.005 A 
HETATM   13  C   UNL     1     -42.566  57.939 -51.712  1.00  0.00     0.083 A 
HETATM   14  C   UNL     1     -41.518  58.318 -50.866  1.00  0.00     0.037 A 
HETATM   15  C   UNL     1     -40.297  58.740 -51.395  1.00  0.00     0.003 A 
HETATM   16  C   UNL     1     -40.116  58.801 -52.772  1.00  0.00     0.001 A 
HETATM   17  C   UNL     1     -41.157  58.439 -53.624  1.00  0.00     0.012 A 
BRANCH  13  18
HETATM   18  O   UNL     1     -43.801  57.556 -51.264  1.00  0.00    -0.290 OA
BRANCH  18  19
HETATM   19  C   UNL     1     -44.641  58.590 -50.775  1.00  0.00     0.505 C 
HETATM   20  F   UNL     1     -44.186  59.779 -51.246  1.00  0.00    -0.184 F 
HETATM   21  F   UNL     1     -45.865  58.406 -51.332  1.00  0.00    -0.184 F 
ENDBRANCH  18  19
ENDBRANCH  13  18
ENDBRANCH   9  12
BRANCH  10  22
HETATM   22  C   UNL     1     -42.811  55.188 -54.252  1.00  0.00     0.256 C 
HETATM   23  N   UNL     1     -41.461  54.933 -54.150  1.00  0.00    -0.323 N 
HETATM   24  H   UNL     1     -40.835  55.617 -54.559  1.00  0.00     0.169 HD
HETATM   25  O   UNL     1     -43.739  54.548 -53.776  1.00  0.00    -0.267 OA
BRANCH  23  26
HETATM   26  C   UNL     1     -40.844  53.828 -53.529  1.00  0.00     0.035 A 
HETATM   27  C   UNL     1     -40.608  53.736 -52.156  1.00  0.00     0.029 A 
HETATM   28  C   UNL     1     -40.000  52.598 -51.616  1.00  0.00     0.002 A 
HETATM   29  C   UNL     1     -39.628  51.542 -52.442  1.00  0.00     0.000 A 
HETATM   30  C   UNL     1     -39.859  51.623 -53.812  1.00  0.00     0.002 A 
HETATM   31  C   UNL     1     -40.461  52.762 -54.353  1.00  0.00     0.029 A 
ENDBRANCH  23  26
ENDBRANCH  10  22
TORSDOF 5
ENDMDL
MODEL 6
REMARK VINA RESULT:      -7.6      3.155      5.237
REMARK  5 active torsions:
REMARK  status: ('A' for Active; 'I' for Inactive)
REMARK    1  A    between atoms: C_9  and  C_10 
REMARK    2  A    between atoms: C_11  and  O_12 
REMARK    3  A    between atoms: O_12  and  C_13 
REMARK    4  A    between atoms: C_20  and  C_21 
REMARK       I    between atoms: C_21  and  N_22 
REMARK    5  A    between atoms: N_22  and  C_23 
ROOT
HETATM    1  C   UNL     1     -41.451  53.123 -55.090  1.00  0.00     0.070 C 
HETATM    2  C   UNL     1     -42.051  54.502 -55.197  1.00  0.00     0.037 A 
HETATM    3  N   UNL     1     -42.108  55.036 -56.479  1.00  0.00    -0.192 N 
HETATM    4  C   UNL     1     -42.742  56.187 -56.774  1.00  0.00     0.725 A 
HETATM    5  N   UNL     1     -43.288  56.933 -55.763  1.00  0.00    -0.084 N 
HETATM    6  N   UNL     1     -43.948  58.007 -56.249  1.00  0.00    -0.149 NA
HETATM    7  C   UNL     1     -43.719  57.865 -57.559  1.00  0.00     0.275 A 
HETATM    8  N   UNL     1     -42.979  56.770 -57.921  1.00  0.00    -0.054 NA
HETATM    9  C   UNL     1     -43.241  56.554 -54.346  1.00  0.00     0.205 A 
HETATM   10  C   UNL     1     -42.565  55.203 -54.156  1.00  0.00     0.063 A 
HETATM   11  H   UNL     1     -41.747  54.473 -57.244  1.00  0.00     0.184 HD
ENDROOT
BRANCH   9  12
HETATM   12  C   UNL     1     -42.612  57.675 -53.516  1.00  0.00     0.005 A 
HETATM   13  C   UNL     1     -43.332  58.410 -52.551  1.00  0.00     0.083 A 
HETATM   14  C   UNL     1     -42.692  59.425 -51.830  1.00  0.00     0.037 A 
HETATM   15  C   UNL     1     -41.341  59.702 -52.045  1.00  0.00     0.003 A 
HETATM   16  C   UNL     1     -40.622  58.980 -52.990  1.00  0.00     0.001 A 
HETATM   17  C   UNL     1     -41.252  57.977 -53.723  1.00  0.00     0.012 A 
BRANCH  13  18
HETATM   18  O   UNL     1     -44.662  58.113 -52.422  1.00  0.00    -0.290 OA
BRANCH  18  19
HETATM   19  C   UNL     1     -45.059  57.523 -51.194  1.00  0.00     0.505 C 
HETATM   20  F   UNL     1     -43.989  56.891 -50.649  1.00  0.00    -0.184 F 
HETATM   21  F   UNL     1     -45.370  58.537 -50.347  1.00  0.00    -0.184 F 
ENDBRANCH  18  19
ENDBRANCH  13  18
ENDBRANCH   9  12
BRANCH  10  22
HETATM   22  C   UNL     1     -42.604  54.705 -52.758  1.00  0.00     0.256 C 
HETATM   23  N   UNL     1     -41.401  54.843 -52.102  1.00  0.00    -0.323 N 
HETATM   24  H   UNL     1     -40.647  55.280 -52.618  1.00  0.00     0.169 HD
HETATM   25  O   UNL     1     -43.662  54.278 -52.316  1.00  0.00    -0.267 OA
BRANCH  23  26
HETATM   26  C   UNL     1     -41.098  54.453 -50.782  1.00  0.00     0.035 A 
HETATM   27  C   UNL     1     -41.191  55.301 -49.676  1.00  0.00     0.029 A 
HETATM   28  C   UNL     1     -40.882  54.833 -48.395  1.00  0.00     0.002 A 
HETATM   29  C   UNL     1     -40.484  53.513 -48.207  1.00  0.00     0.000 A 
HETATM   30  C   UNL     1     -40.389  52.658 -49.301  1.00  0.00     0.002 A 
HETATM   31  C   UNL     1     -40.691  53.127 -50.583  1.00  0.00     0.029 A 
ENDBRANCH  23  26
ENDBRANCH  10  22
TORSDOF 5
ENDMDL
MODEL 7
REMARK VINA RESULT:      -7.5      4.551      6.428
REMARK  5 active torsions:
REMARK  status: ('A' for Active; 'I' for Inactive)
REMARK    1  A    between atoms: C_9  and  C_10 
REMARK    2  A    between atoms: C_11  and  O_12 
REMARK    3  A    between atoms: O_12  and  C_13 
REMARK    4  A    between atoms: C_20  and  C_21 
REMARK       I    between atoms: C_21  and  N_22 
REMARK    5  A    between atoms: N_22  and  C_23 
ROOT
HETATM    1  C   UNL     1     -42.491  59.492 -54.880  1.00  0.00     0.070 C 
HETATM    2  C   UNL     1     -42.466  59.177 -56.354  1.00  0.00     0.037 A 
HETATM    3  N   UNL     1     -42.361  60.274 -57.202  1.00  0.00    -0.192 N 
HETATM    4  C   UNL     1     -42.178  60.166 -58.532  1.00  0.00     0.725 A 
HETATM    5  N   UNL     1     -42.181  58.926 -59.114  1.00  0.00    -0.084 N 
HETATM    6  N   UNL     1     -41.906  59.005 -60.435  1.00  0.00    -0.149 NA
HETATM    7  C   UNL     1     -41.791  60.330 -60.584  1.00  0.00     0.275 A 
HETATM    8  N   UNL     1     -41.958  61.076 -59.446  1.00  0.00    -0.054 NA
HETATM    9  C   UNL     1     -42.364  57.673 -58.373  1.00  0.00     0.205 A 
HETATM   10  C   UNL     1     -42.487  57.926 -56.876  1.00  0.00     0.063 A 
HETATM   11  H   UNL     1     -42.312  61.197 -56.780  1.00  0.00     0.184 HD
ENDROOT
BRANCH   9  12
HETATM   12  C   UNL     1     -43.534  56.876 -58.956  1.00  0.00     0.005 A 
HETATM   13  C   UNL     1     -44.830  57.413 -59.098  1.00  0.00     0.083 A 
HETATM   14  C   UNL     1     -45.853  56.625 -59.637  1.00  0.00     0.037 A 
HETATM   15  C   UNL     1     -45.596  55.317 -60.054  1.00  0.00     0.003 A 
HETATM   16  C   UNL     1     -44.320  54.781 -59.922  1.00  0.00     0.001 A 
HETATM   17  C   UNL     1     -43.297  55.552 -59.374  1.00  0.00     0.012 A 
BRANCH  13  18
HETATM   18  O   UNL     1     -45.020  58.685 -58.632  1.00  0.00    -0.290 OA
BRANCH  18  19
HETATM   19  C   UNL     1     -46.021  58.849 -57.641  1.00  0.00     0.505 C 
HETATM   20  F   UNL     1     -45.869  57.879 -56.704  1.00  0.00    -0.184 F 
HETATM   21  F   UNL     1     -45.770  60.025 -57.010  1.00  0.00    -0.184 F 
ENDBRANCH  18  19
ENDBRANCH  13  18
ENDBRANCH   9  12
BRANCH  10  22
HETATM   22  C   UNL     1     -42.542  56.687 -56.062  1.00  0.00     0.256 C 
HETATM   23  N   UNL     1     -41.305  56.280 -55.613  1.00  0.00    -0.323 N 
HETATM   24  H   UNL     1     -40.516  56.866 -55.857  1.00  0.00     0.169 HD
HETATM   25  O   UNL     1     -43.633  56.183 -55.831  1.00  0.00    -0.267 OA
BRANCH  23  26
HETATM   26  C   UNL     1     -41.009  55.140 -54.839  1.00  0.00     0.035 A 
HETATM   27  C   UNL     1     -40.432  53.977 -55.353  1.00  0.00     0.029 A 
HETATM   28  C   UNL     1     -40.159  52.890 -54.516  1.00  0.00     0.002 A 
HETATM   29  C   UNL     1     -40.455  52.960 -53.157  1.00  0.00     0.000 A 
HETATM   30  C   UNL     1     -41.029  54.114 -52.634  1.00  0.00     0.002 A 
HETATM   31  C   UNL     1     -41.309  55.197 -53.472  1.00  0.00     0.029 A 
ENDBRANCH  23  26
ENDBRANCH  10  22
TORSDOF 5
ENDMDL
MODEL 8
REMARK VINA RESULT:      -6.9      5.607      7.994
REMARK  5 active torsions:
REMARK  status: ('A' for Active; 'I' for Inactive)
REMARK    1  A    between atoms: C_9  and  C_10 
REMARK    2  A    between atoms: C_11  and  O_12 
REMARK    3  A    between atoms: O_12  and  C_13 
REMARK    4  A    between atoms: C_20  and  C_21 
REMARK       I    between atoms: C_21  and  N_22 
REMARK    5  A    between atoms: N_22  and  C_23 
ROOT
HETATM    1  C   UNL     1     -44.999  54.683 -60.501  1.00  0.00     0.070 C 
HETATM    2  C   UNL     1     -45.192  56.122 -60.096  1.00  0.00     0.037 A 
HETATM    3  N   UNL     1     -46.249  56.784 -60.711  1.00  0.00    -0.192 N 
HETATM    4  C   UNL     1     -46.652  58.020 -60.360  1.00  0.00     0.725 A 
HETATM    5  N   UNL     1     -45.947  58.715 -59.415  1.00  0.00    -0.084 N 
HETATM    6  N   UNL     1     -46.538  59.898 -59.134  1.00  0.00    -0.149 NA
HETATM    7  C   UNL     1     -47.573  59.862 -59.982  1.00  0.00     0.275 A 
HETATM    8  N   UNL     1     -47.674  58.736 -60.755  1.00  0.00    -0.054 NA
HETATM    9  C   UNL     1     -44.757  58.195 -58.731  1.00  0.00     0.205 A 
HETATM   10  C   UNL     1     -44.451  56.767 -59.162  1.00  0.00     0.063 A 
HETATM   11  H   UNL     1     -46.809  56.264 -61.382  1.00  0.00     0.184 HD
ENDROOT
BRANCH   9  12
HETATM   12  C   UNL     1     -43.578  59.154 -58.909  1.00  0.00     0.005 A 
HETATM   13  C   UNL     1     -42.798  59.617 -57.829  1.00  0.00     0.083 A 
HETATM   14  C   UNL     1     -41.735  60.496 -58.066  1.00  0.00     0.037 A 
HETATM   15  C   UNL     1     -41.429  60.903 -59.366  1.00  0.00     0.003 A 
HETATM   16  C   UNL     1     -42.189  60.449 -60.437  1.00  0.00     0.001 A 
HETATM   17  C   UNL     1     -43.258  59.584 -60.211  1.00  0.00     0.012 A 
BRANCH  13  18
HETATM   18  O   UNL     1     -43.179  59.210 -56.579  1.00  0.00    -0.290 OA
BRANCH  18  19
HETATM   19  C   UNL     1     -42.744  60.015 -55.495  1.00  0.00     0.505 C 
HETATM   20  F   UNL     1     -43.715  60.030 -54.548  1.00  0.00    -0.184 F 
HETATM   21  F   UNL     1     -41.679  59.386 -54.934  1.00  0.00    -0.184 F 
ENDBRANCH  18  19
ENDBRANCH  13  18
ENDBRANCH   9  12
BRANCH  10  22
HETATM   22  C   UNL     1     -43.337  56.140 -58.408  1.00  0.00     0.256 C 
HETATM   23  N   UNL     1     -43.610  55.992 -57.065  1.00  0.00    -0.323 N 
HETATM   24  H   UNL     1     -44.523  56.295 -56.749  1.00  0.00     0.169 HD
HETATM   25  O   UNL     1     -42.340  55.782 -59.020  1.00  0.00    -0.267 OA
BRANCH  23  26
HETATM   26  C   UNL     1     -42.762  55.457 -56.075  1.00  0.00     0.035 A 
HETATM   27  C   UNL     1     -41.730  56.171 -55.462  1.00  0.00     0.029 A 
HETATM   28  C   UNL     1     -40.939  55.570 -54.478  1.00  0.00     0.002 A 
HETATM   29  C   UNL     1     -41.176  54.253 -54.094  1.00  0.00     0.000 A 
HETATM   30  C   UNL     1     -42.202  53.532 -54.697  1.00  0.00     0.002 A 
HETATM   31  C   UNL     1     -42.989  54.131 -55.686  1.00  0.00     0.029 A 
ENDBRANCH  23  26
ENDBRANCH  10  22
TORSDOF 5
ENDMDL
MODEL 9
REMARK VINA RESULT:      -6.8      4.171      5.617
REMARK  5 active torsions:
REMARK  status: ('A' for Active; 'I' for Inactive)
REMARK    1  A    between atoms: C_9  and  C_10 
REMARK    2  A    between atoms: C_11  and  O_12 
REMARK    3  A    between atoms: O_12  and  C_13 
REMARK    4  A    between atoms: C_20  and  C_21 
REMARK       I    between atoms: C_21  and  N_22 
REMARK    5  A    between atoms: N_22  and  C_23 
ROOT
HETATM    1  C   UNL     1     -44.779  57.895 -52.534  1.00  0.00     0.070 C 
HETATM    2  C   UNL     1     -44.579  58.680 -53.805  1.00  0.00     0.037 A 
HETATM    3  N   UNL     1     -45.567  59.613 -54.097  1.00  0.00    -0.192 N 
HETATM    4  C   UNL     1     -45.474  60.498 -55.109  1.00  0.00     0.725 A 
HETATM    5  N   UNL     1     -44.403  60.436 -55.960  1.00  0.00    -0.084 N 
HETATM    6  N   UNL     1     -44.435  61.444 -56.861  1.00  0.00    -0.149 NA
HETATM    7  C   UNL     1     -45.578  62.047 -56.515  1.00  0.00     0.275 A 
HETATM    8  N   UNL     1     -46.248  61.495 -55.454  1.00  0.00    -0.054 NA
HETATM    9  C   UNL     1     -43.316  59.458 -55.843  1.00  0.00     0.205 A 
HETATM   10  C   UNL     1     -43.503  58.567 -54.622  1.00  0.00     0.063 A 
HETATM   11  H   UNL     1     -46.345  59.701 -53.449  1.00  0.00     0.184 HD
ENDROOT
BRANCH   9  12
HETATM   12  C   UNL     1     -43.158  58.677 -57.150  1.00  0.00     0.005 A 
HETATM   13  C   UNL     1     -42.095  58.901 -58.050  1.00  0.00     0.083 A 
HETATM   14  C   UNL     1     -42.015  58.151 -59.230  1.00  0.00     0.037 A 
HETATM   15  C   UNL     1     -42.968  57.171 -59.512  1.00  0.00     0.003 A 
HETATM   16  C   UNL     1     -44.016  56.941 -58.629  1.00  0.00     0.001 A 
HETATM   17  C   UNL     1     -44.113  57.690 -57.458  1.00  0.00     0.012 A 
BRANCH  13  18
HETATM   18  O   UNL     1     -41.222  59.904 -57.730  1.00  0.00    -0.290 OA
BRANCH  18  19
HETATM   19  C   UNL     1     -41.388  61.129 -58.425  1.00  0.00     0.505 C 
HETATM   20  F   UNL     1     -40.449  62.007 -57.991  1.00  0.00    -0.184 F 
HETATM   21  F   UNL     1     -41.106  60.889 -59.731  1.00  0.00    -0.184 F 
ENDBRANCH  18  19
ENDBRANCH  13  18
ENDBRANCH   9  12
BRANCH  10  22
HETATM   22  C   UNL     1     -42.367  57.643 -54.375  1.00  0.00     0.256 C 
HETATM   23  N   UNL     1     -42.705  56.317 -54.531  1.00  0.00    -0.323 N 
HETATM   24  H   UNL     1     -43.657  56.120 -54.814  1.00  0.00     0.169 HD
HETATM   25  O   UNL     1     -41.270  58.118 -54.112  1.00  0.00    -0.267 OA
BRANCH  23  26
HETATM   26  C   UNL     1     -41.871  55.196 -54.351  1.00  0.00     0.035 A 
HETATM   27  C   UNL     1     -40.920  54.773 -55.282  1.00  0.00     0.029 A 
HETATM   28  C   UNL     1     -40.122  53.654 -55.022  1.00  0.00     0.002 A 
HETATM   29  C   UNL     1     -40.264  52.952 -53.829  1.00  0.00     0.000 A 
HETATM   30  C   UNL     1     -41.209  53.365 -52.894  1.00  0.00     0.002 A 
HETATM   31  C   UNL     1     -42.011  54.479 -53.156  1.00  0.00     0.029 A 
ENDBRANCH  23  26
ENDBRANCH  10  22
TORSDOF 5
ENDMDL
MODEL 10
REMARK VINA RESULT:      -6.7      3.321      6.855
REMARK  5 active torsions:
REMARK  status: ('A' for Active; 'I' for Inactive)
REMARK    1  A    between atoms: C_9  and  C_10 
REMARK    2  A    between atoms: C_11  and  O_12 
REMARK    3  A    between atoms: O_12  and  C_13 
REMARK    4  A    between atoms: C_20  and  C_21 
REMARK       I    between atoms: C_21  and  N_22 
REMARK    5  A    between atoms: N_22  and  C_23 
ROOT
HETATM    1  C   UNL     1     -39.593  59.323 -50.718  1.00  0.00     0.070 C 
HETATM    2  C   UNL     1     -40.564  58.214 -51.035  1.00  0.00     0.037 A 
HETATM    3  N   UNL     1     -40.585  57.156 -50.134  1.00  0.00    -0.192 N 
HETATM    4  C   UNL     1     -41.489  56.159 -50.184  1.00  0.00     0.725 A 
HETATM    5  N   UNL     1     -42.388  56.116 -51.216  1.00  0.00    -0.084 N 
HETATM    6  N   UNL     1     -43.263  55.099 -51.061  1.00  0.00    -0.149 NA
HETATM    7  C   UNL     1     -42.802  54.547 -49.933  1.00  0.00     0.275 A 
HETATM    8  N   UNL     1     -41.714  55.160 -49.369  1.00  0.00    -0.054 NA
HETATM    9  C   UNL     1     -42.445  57.109 -52.296  1.00  0.00     0.205 A 
HETATM   10  C   UNL     1     -41.423  58.217 -52.084  1.00  0.00     0.063 A 
HETATM   11  H   UNL     1     -39.954  57.198 -49.338  1.00  0.00     0.184 HD
ENDROOT
BRANCH   9  12
HETATM   12  C   UNL     1     -42.328  56.421 -53.658  1.00  0.00     0.005 A 
HETATM   13  C   UNL     1     -43.392  56.367 -54.582  1.00  0.00     0.083 A 
HETATM   14  C   UNL     1     -43.214  55.718 -55.810  1.00  0.00     0.037 A 
HETATM   15  C   UNL     1     -41.985  55.140 -56.134  1.00  0.00     0.003 A 
HETATM   16  C   UNL     1     -40.929  55.193 -55.232  1.00  0.00     0.001 A 
HETATM   17  C   UNL     1     -41.099  55.824 -54.002  1.00  0.00     0.012 A 
BRANCH  13  18
HETATM   18  O   UNL     1     -44.579  56.917 -54.182  1.00  0.00    -0.290 OA
BRANCH  18  19
HETATM   19  C   UNL     1     -45.020  58.055 -54.905  1.00  0.00     0.505 C 
HETATM   20  F   UNL     1     -46.100  57.706 -55.649  1.00  0.00    -0.184 F 
HETATM   21  F   UNL     1     -45.465  58.959 -53.995  1.00  0.00    -0.184 F 
ENDBRANCH  18  19
ENDBRANCH  13  18
ENDBRANCH   9  12
BRANCH  10  22
HETATM   22  C   UNL     1     -41.522  59.320 -53.073  1.00  0.00     0.256 C 
HETATM   23  N   UNL     1     -42.586  60.162 -52.838  1.00  0.00    -0.323 N 
HETATM   24  H   UNL     1     -43.156  59.961 -52.026  1.00  0.00     0.169 HD
HETATM   25  O   UNL     1     -40.665  59.409 -53.943  1.00  0.00    -0.267 OA
BRANCH  23  26
HETATM   26  C   UNL     1     -42.971  61.285 -53.598  1.00  0.00     0.035 A 
HETATM   27  C   UNL     1     -43.182  62.556 -53.059  1.00  0.00     0.029 A 
HETATM   28  C   UNL     1     -43.553  63.623 -53.884  1.00  0.00     0.002 A 
HETATM   29  C   UNL     1     -43.710  63.430 -55.254  1.00  0.00     0.000 A 
HETATM   30  C   UNL     1     -43.501  62.168 -55.801  1.00  0.00     0.002 A 
HETATM   31  C   UNL     1     -43.138  61.100 -54.976  1.00  0.00     0.029 A 
ENDBRANCH  23  26
ENDBRANCH  10  22
TORSDOF 5
ENDMDL
