MODEL 1
REMARK VINA RESULT:      -8.3      0.000      0.000
REMARK  6 active torsions:
REMARK  status: ('A' for Active; 'I' for Inactive)
REMARK    1  A    between atoms: C_2  and  O_3 
REMARK    2  A    between atoms: C_2  and  C_4 
REMARK    3  A    between atoms: C_6  and  N_7 
REMARK       I    between atoms: N_7  and  C_8 
REMARK    4  A    between atoms: C_8  and  C_9 
REMARK    5  A    between atoms: C_12  and  C_13 
REMARK    6  A    between atoms: C_18  and  C_19 
ROOT
HETATM    1  C   UNL     1     -42.135  56.488 -54.522  1.00  0.00     0.096 A 
HETATM    2  C   UNL     1     -42.322  57.122 -55.736  1.00  0.00     0.138 A 
HETATM    3  N   UNL     1     -43.318  58.045 -55.526  1.00  0.00    -0.240 N 
HETATM    4  C   UNL     1     -43.799  58.990 -56.516  1.00  0.00     0.221 C 
HETATM    5  C   UNL     1     -42.857  59.024 -57.733  1.00  0.00     0.067 C 
HETATM    6  C   UNL     1     -42.294  57.650 -58.137  1.00  0.00     0.125 C 
HETATM    7  N   UNL     1     -41.726  56.985 -56.953  1.00  0.00    -0.365 N 
HETATM    8  N   UNL     1     -43.799  58.048 -54.275  1.00  0.00    -0.181 NA
HETATM    9  C   UNL     1     -43.110  57.071 -53.678  1.00  0.00     0.160 A 
HETATM   10  H   UNL     1     -41.309  56.081 -57.189  1.00  0.00     0.162 HD
ENDROOT
BRANCH   1  11
HETATM   11  C   UNL     1     -41.163  55.475 -54.144  1.00  0.00     0.261 C 
HETATM   12  N   UNL     1     -41.595  54.675 -53.102  1.00  0.00    -0.323 N 
HETATM   13  H   UNL     1     -42.546  54.847 -52.794  1.00  0.00     0.169 HD
HETATM   14  O   UNL     1     -40.115  55.353 -54.765  1.00  0.00    -0.267 OA
BRANCH  12  15
HETATM   15  C   UNL     1     -40.942  53.563 -52.538  1.00  0.00     0.035 A 
HETATM   16  C   UNL     1     -40.490  52.465 -53.276  1.00  0.00     0.039 A 
HETATM   17  C   UNL     1     -39.869  51.373 -52.644  1.00  0.00    -0.028 A 
HETATM   18  C   UNL     1     -39.716  51.392 -51.250  1.00  0.00     0.010 A 
HETATM   19  C   UNL     1     -40.149  52.490 -50.508  1.00  0.00     0.003 A 
HETATM   20  C   UNL     1     -40.753  53.571 -51.151  1.00  0.00     0.029 A 
BRANCH  17  21
HETATM   21  C   UNL     1     -39.414  50.186 -53.466  1.00  0.00     0.147 C 
HETATM   22  C   UNL     1     -40.296  49.964 -54.686  1.00  0.00     0.044 C 
BRANCH  21  23
HETATM   23  O   UNL     1     -39.418  49.000 -52.674  1.00  0.00    -0.391 OA
HETATM   24  H   UNL     1     -39.034  49.239 -51.813  1.00  0.00     0.210 HD
ENDBRANCH  21  23
ENDBRANCH  17  21
ENDBRANCH  12  15
ENDBRANCH   1  11
BRANCH   4  25
HETATM   25  C   UNL     1     -45.247  58.713 -56.862  1.00  0.00     0.409 C 
HETATM   26  F   UNL     1     -45.570  57.407 -56.845  1.00  0.00    -0.169 F 
HETATM   27  F   UNL     1     -46.102  59.355 -56.034  1.00  0.00    -0.169 F 
HETATM   28  F   UNL     1     -45.521  59.174 -58.112  1.00  0.00    -0.169 F 
ENDBRANCH   4  25
BRANCH   6  29
HETATM   29  C   UNL     1     -43.251  56.804 -58.945  1.00  0.00     0.005 A 
HETATM   30  S   UNL     1     -43.991  57.460 -60.353  1.00  0.00    -0.104 SA
HETATM   31  C   UNL     1     -44.842  56.013 -60.667  1.00  0.00     0.050 A 
HETATM   32  C   UNL     1     -44.556  55.034 -59.743  1.00  0.00     0.008 A 
HETATM   33  C   UNL     1     -43.628  55.485 -58.759  1.00  0.00     0.017 A 
ENDBRANCH   6  29
TORSDOF 6
ENDMDL
MODEL 2
REMARK VINA RESULT:      -8.2      1.693      2.241
REMARK  6 active torsions:
REMARK  status: ('A' for Active; 'I' for Inactive)
REMARK    1  A    between atoms: C_2  and  O_3 
REMARK    2  A    between atoms: C_2  and  C_4 
REMARK    3  A    between atoms: C_6  and  N_7 
REMARK       I    between atoms: N_7  and  C_8 
REMARK    4  A    between atoms: C_8  and  C_9 
REMARK    5  A    between atoms: C_12  and  C_13 
REMARK    6  A    between atoms: C_18  and  C_19 
ROOT
HETATM    1  C   UNL     1     -42.359  56.938 -55.794  1.00  0.00     0.096 A 
HETATM    2  C   UNL     1     -42.482  56.869 -57.169  1.00  0.00     0.138 A 
HETATM    3  N   UNL     1     -42.308  58.153 -57.624  1.00  0.00    -0.240 N 
HETATM    4  C   UNL     1     -42.289  58.547 -59.020  1.00  0.00     0.221 C 
HETATM    5  C   UNL     1     -42.197  57.307 -59.929  1.00  0.00     0.067 C 
HETATM    6  C   UNL     1     -43.021  56.102 -59.442  1.00  0.00     0.125 C 
HETATM    7  N   UNL     1     -42.713  55.837 -58.027  1.00  0.00    -0.365 N 
HETATM    8  N   UNL     1     -42.094  59.050 -56.650  1.00  0.00    -0.181 NA
HETATM    9  C   UNL     1     -42.170  58.316 -55.535  1.00  0.00     0.160 A 
HETATM   10  H   UNL     1     -43.217  55.018 -57.676  1.00  0.00     0.162 HD
ENDROOT
BRANCH   1  11
HETATM   11  C   UNL     1     -42.384  55.872 -54.806  1.00  0.00     0.261 C 
HETATM   12  N   UNL     1     -41.132  55.343 -54.551  1.00  0.00    -0.323 N 
HETATM   13  H   UNL     1     -40.364  55.810 -55.022  1.00  0.00     0.169 HD
HETATM   14  O   UNL     1     -43.429  55.563 -54.247  1.00  0.00    -0.267 OA
BRANCH  12  15
HETATM   15  C   UNL     1     -40.785  54.356 -53.609  1.00  0.00     0.035 A 
HETATM   16  C   UNL     1     -40.330  53.079 -53.948  1.00  0.00     0.039 A 
HETATM   17  C   UNL     1     -40.027  52.130 -52.954  1.00  0.00    -0.028 A 
HETATM   18  C   UNL     1     -40.200  52.479 -51.607  1.00  0.00     0.010 A 
HETATM   19  C   UNL     1     -40.638  53.756 -51.260  1.00  0.00     0.003 A 
HETATM   20  C   UNL     1     -40.924  54.690 -52.257  1.00  0.00     0.029 A 
BRANCH  17  21
HETATM   21  C   UNL     1     -39.561  50.745 -53.352  1.00  0.00     0.147 C 
HETATM   22  C   UNL     1     -40.421  50.149 -54.458  1.00  0.00     0.044 C 
BRANCH  21  23
HETATM   23  O   UNL     1     -39.586  49.869 -52.227  1.00  0.00    -0.391 OA
HETATM   24  H   UNL     1     -40.317  50.165 -51.659  1.00  0.00     0.210 HD
ENDBRANCH  21  23
ENDBRANCH  17  21
ENDBRANCH  12  15
ENDBRANCH   1  11
BRANCH   4  25
HETATM   25  C   UNL     1     -43.454  59.460 -59.336  1.00  0.00     0.409 C 
HETATM   26  F   UNL     1     -43.994  59.252 -60.551  1.00  0.00    -0.169 F 
HETATM   27  F   UNL     1     -44.448  59.354 -58.426  1.00  0.00    -0.169 F 
HETATM   28  F   UNL     1     -43.050  60.758 -59.297  1.00  0.00    -0.169 F 
ENDBRANCH   4  25
BRANCH   6  29
HETATM   29  C   UNL     1     -44.494  56.189 -59.767  1.00  0.00     0.005 A 
HETATM   30  S   UNL     1     -45.111  55.383 -61.157  1.00  0.00    -0.104 SA
HETATM   31  C   UNL     1     -46.704  55.915 -60.847  1.00  0.00     0.050 A 
HETATM   32  C   UNL     1     -46.783  56.667 -59.697  1.00  0.00     0.008 A 
HETATM   33  C   UNL     1     -45.513  56.813 -59.067  1.00  0.00     0.017 A 
ENDBRANCH   6  29
TORSDOF 6
ENDMDL
MODEL 3
REMARK VINA RESULT:      -8.1      2.968      4.821
REMARK  6 active torsions:
REMARK  status: ('A' for Active; 'I' for Inactive)
REMARK    1  A    between atoms: C_2  and  O_3 
REMARK    2  A    between atoms: C_2  and  C_4 
REMARK    3  A    between atoms: C_6  and  N_7 
REMARK       I    between atoms: N_7  and  C_8 
REMARK    4  A    between atoms: C_8  and  C_9 
REMARK    5  A    between atoms: C_12  and  C_13 
REMARK    6  A    between atoms: C_18  and  C_19 
ROOT
HETATM    1  C   UNL     1     -42.531  56.156 -54.769  1.00  0.00     0.096 A 
HETATM    2  C   UNL     1     -43.231  57.174 -54.148  1.00  0.00     0.138 A 
HETATM    3  N   UNL     1     -43.251  58.215 -55.044  1.00  0.00    -0.240 N 
HETATM    4  C   UNL     1     -43.939  59.475 -54.841  1.00  0.00     0.221 C 
HETATM    5  C   UNL     1     -44.880  59.387 -53.625  1.00  0.00     0.067 C 
HETATM    6  C   UNL     1     -44.315  58.577 -52.444  1.00  0.00     0.125 C 
HETATM    7  N   UNL     1     -43.833  57.273 -52.931  1.00  0.00    -0.365 N 
HETATM    8  N   UNL     1     -42.610  57.954 -56.193  1.00  0.00    -0.181 NA
HETATM    9  C   UNL     1     -42.134  56.719 -56.006  1.00  0.00     0.160 A 
HETATM   10  H   UNL     1     -43.482  56.691 -52.167  1.00  0.00     0.162 HD
ENDROOT
BRANCH   1  11
HETATM   11  C   UNL     1     -42.263  54.802 -54.314  1.00  0.00     0.261 C 
HETATM   12  N   UNL     1     -41.143  54.717 -53.507  1.00  0.00    -0.323 N 
HETATM   13  H   UNL     1     -40.707  55.604 -53.281  1.00  0.00     0.169 HD
HETATM   14  O   UNL     1     -43.024  53.886 -54.598  1.00  0.00    -0.267 OA
BRANCH  12  15
HETATM   15  C   UNL     1     -40.641  53.581 -52.842  1.00  0.00     0.035 A 
HETATM   16  C   UNL     1     -40.182  52.434 -53.495  1.00  0.00     0.039 A 
HETATM   17  C   UNL     1     -39.717  51.323 -52.769  1.00  0.00    -0.028 A 
HETATM   18  C   UNL     1     -39.732  51.375 -51.367  1.00  0.00     0.010 A 
HETATM   19  C   UNL     1     -40.173  52.521 -50.708  1.00  0.00     0.003 A 
HETATM   20  C   UNL     1     -40.620  53.619 -51.444  1.00  0.00     0.029 A 
BRANCH  17  21
HETATM   21  C   UNL     1     -39.251  50.084 -53.503  1.00  0.00     0.147 C 
HETATM   22  C   UNL     1     -40.031  49.854 -54.789  1.00  0.00     0.044 C 
BRANCH  21  23
HETATM   23  O   UNL     1     -39.384  48.932 -52.672  1.00  0.00    -0.391 OA
HETATM   24  H   UNL     1     -38.549  48.845 -52.181  1.00  0.00     0.210 HD
ENDBRANCH  21  23
ENDBRANCH  17  21
ENDBRANCH  12  15
ENDBRANCH   1  11
BRANCH   4  25
HETATM   25  C   UNL     1     -42.952  60.621 -54.777  1.00  0.00     0.409 C 
HETATM   26  F   UNL     1     -41.782  60.298 -54.196  1.00  0.00    -0.169 F 
HETATM   27  F   UNL     1     -42.673  61.125 -56.000  1.00  0.00    -0.169 F 
HETATM   28  F   UNL     1     -43.481  61.649 -54.061  1.00  0.00    -0.169 F 
ENDBRANCH   4  25
BRANCH   6  29
HETATM   29  C   UNL     1     -43.333  59.339 -51.586  1.00  0.00     0.005 A 
HETATM   30  S   UNL     1     -41.798  58.648 -51.226  1.00  0.00    -0.104 SA
HETATM   31  C   UNL     1     -41.323  60.005 -50.305  1.00  0.00     0.050 A 
HETATM   32  C   UNL     1     -42.291  60.983 -50.288  1.00  0.00     0.008 A 
HETATM   33  C   UNL     1     -43.443  60.605 -51.038  1.00  0.00     0.017 A 
ENDBRANCH   6  29
TORSDOF 6
ENDMDL
MODEL 4
REMARK VINA RESULT:      -8.0      2.150      3.152
REMARK  6 active torsions:
REMARK  status: ('A' for Active; 'I' for Inactive)
REMARK    1  A    between atoms: C_2  and  O_3 
REMARK    2  A    between atoms: C_2  and  C_4 
REMARK    3  A    between atoms: C_6  and  N_7 
REMARK       I    between atoms: N_7  and  C_8 
REMARK    4  A    between atoms: C_8  and  C_9 
REMARK    5  A    between atoms: C_12  and  C_13 
REMARK    6  A    between atoms: C_18  and  C_19 
ROOT
HETATM    1  C   UNL     1     -42.330  57.187 -55.830  1.00  0.00     0.096 A 
HETATM    2  C   UNL     1     -42.462  57.047 -57.199  1.00  0.00     0.138 A 
HETATM    3  N   UNL     1     -42.282  58.305 -57.722  1.00  0.00    -0.240 N 
HETATM    4  C   UNL     1     -42.268  58.625 -59.137  1.00  0.00     0.221 C 
HETATM    5  C   UNL     1     -42.189  57.339 -59.980  1.00  0.00     0.067 C 
HETATM    6  C   UNL     1     -43.018  56.166 -59.427  1.00  0.00     0.125 C 
HETATM    7  N   UNL     1     -42.703  55.974 -58.001  1.00  0.00    -0.365 N 
HETATM    8  N   UNL     1     -42.058  59.250 -56.797  1.00  0.00    -0.181 NA
HETATM    9  C   UNL     1     -42.132  58.576 -55.645  1.00  0.00     0.160 A 
HETATM   10  H   UNL     1     -43.210  55.178 -57.606  1.00  0.00     0.162 HD
ENDROOT
BRANCH   1  11
HETATM   11  C   UNL     1     -42.356  56.174 -54.788  1.00  0.00     0.261 C 
HETATM   12  N   UNL     1     -41.182  55.447 -54.714  1.00  0.00    -0.323 N 
HETATM   13  H   UNL     1     -40.443  55.759 -55.334  1.00  0.00     0.169 HD
HETATM   14  O   UNL     1     -43.323  56.068 -54.044  1.00  0.00    -0.267 OA
BRANCH  12  15
HETATM   15  C   UNL     1     -40.842  54.446 -53.783  1.00  0.00     0.035 A 
HETATM   16  C   UNL     1     -40.884  54.622 -52.398  1.00  0.00     0.039 A 
HETATM   17  C   UNL     1     -40.505  53.587 -51.523  1.00  0.00    -0.028 A 
HETATM   18  C   UNL     1     -40.068  52.369 -52.064  1.00  0.00     0.010 A 
HETATM   19  C   UNL     1     -40.039  52.179 -53.444  1.00  0.00     0.003 A 
HETATM   20  C   UNL     1     -40.430  53.212 -54.298  1.00  0.00     0.029 A 
BRANCH  17  21
HETATM   21  C   UNL     1     -40.534  53.816 -50.027  1.00  0.00     0.147 C 
HETATM   22  C   UNL     1     -41.660  54.753 -49.615  1.00  0.00     0.044 C 
BRANCH  21  23
HETATM   23  O   UNL     1     -39.295  54.362 -49.582  1.00  0.00    -0.391 OA
HETATM   24  H   UNL     1     -38.747  53.612 -49.293  1.00  0.00     0.210 HD
ENDBRANCH  21  23
ENDBRANCH  17  21
ENDBRANCH  12  15
ENDBRANCH   1  11
BRANCH   4  25
HETATM   25  C   UNL     1     -43.430  59.528 -59.494  1.00  0.00     0.409 C 
HETATM   26  F   UNL     1     -43.984  59.254 -60.689  1.00  0.00    -0.169 F 
HETATM   27  F   UNL     1     -44.416  59.483 -58.568  1.00  0.00    -0.169 F 
HETATM   28  F   UNL     1     -43.015  60.822 -59.535  1.00  0.00    -0.169 F 
ENDBRANCH   4  25
BRANCH   6  29
HETATM   29  C   UNL     1     -44.492  56.246 -59.748  1.00  0.00     0.005 A 
HETATM   30  S   UNL     1     -45.114  55.410 -61.117  1.00  0.00    -0.104 SA
HETATM   31  C   UNL     1     -46.706  55.947 -60.813  1.00  0.00     0.050 A 
HETATM   32  C   UNL     1     -46.781  56.723 -59.679  1.00  0.00     0.008 A 
HETATM   33  C   UNL     1     -45.508  56.884 -59.058  1.00  0.00     0.017 A 
ENDBRANCH   6  29
TORSDOF 6
ENDMDL
MODEL 5
REMARK VINA RESULT:      -7.7      4.249      7.707
REMARK  6 active torsions:
REMARK  status: ('A' for Active; 'I' for Inactive)
REMARK    1  A    between atoms: C_2  and  O_3 
REMARK    2  A    between atoms: C_2  and  C_4 
REMARK    3  A    between atoms: C_6  and  N_7 
REMARK       I    between atoms: N_7  and  C_8 
REMARK    4  A    between atoms: C_8  and  C_9 
REMARK    5  A    between atoms: C_12  and  C_13 
REMARK    6  A    between atoms: C_18  and  C_19 
ROOT
HETATM    1  C   UNL     1     -43.449  57.775 -53.937  1.00  0.00     0.096 A 
HETATM    2  C   UNL     1     -43.406  56.686 -53.087  1.00  0.00     0.138 A 
HETATM    3  N   UNL     1     -43.003  57.178 -51.869  1.00  0.00    -0.240 N 
HETATM    4  C   UNL     1     -42.883  56.396 -50.653  1.00  0.00     0.221 C 
HETATM    5  C   UNL     1     -43.540  55.016 -50.832  1.00  0.00     0.067 C 
HETATM    6  C   UNL     1     -43.326  54.386 -52.220  1.00  0.00     0.125 C 
HETATM    7  N   UNL     1     -43.681  55.364 -53.262  1.00  0.00    -0.365 N 
HETATM    8  N   UNL     1     -42.770  58.499 -51.868  1.00  0.00    -0.181 NA
HETATM    9  C   UNL     1     -42.998  58.852 -53.137  1.00  0.00     0.160 A 
HETATM   10  H   UNL     1     -43.585  54.969 -54.201  1.00  0.00     0.162 HD
ENDROOT
BRANCH   1  11
HETATM   11  C   UNL     1     -43.874  57.852 -55.325  1.00  0.00     0.261 C 
HETATM   12  N   UNL     1     -42.917  57.388 -56.208  1.00  0.00    -0.323 N 
HETATM   13  H   UNL     1     -42.089  56.992 -55.777  1.00  0.00     0.169 HD
HETATM   14  O   UNL     1     -45.000  58.238 -55.612  1.00  0.00    -0.267 OA
BRANCH  12  15
HETATM   15  C   UNL     1     -43.023  57.255 -57.607  1.00  0.00     0.035 A 
HETATM   16  C   UNL     1     -43.911  56.384 -58.243  1.00  0.00     0.039 A 
HETATM   17  C   UNL     1     -43.946  56.281 -59.645  1.00  0.00    -0.028 A 
HETATM   18  C   UNL     1     -43.062  57.061 -60.405  1.00  0.00     0.010 A 
HETATM   19  C   UNL     1     -42.184  57.944 -59.780  1.00  0.00     0.003 A 
HETATM   20  C   UNL     1     -42.170  58.043 -58.387  1.00  0.00     0.029 A 
BRANCH  17  21
HETATM   21  C   UNL     1     -44.901  55.309 -60.306  1.00  0.00     0.147 C 
HETATM   22  C   UNL     1     -44.796  53.912 -59.711  1.00  0.00     0.044 C 
BRANCH  21  23
HETATM   23  O   UNL     1     -44.646  55.234 -61.707  1.00  0.00    -0.391 OA
HETATM   24  H   UNL     1     -44.352  56.118 -61.984  1.00  0.00     0.210 HD
ENDBRANCH  21  23
ENDBRANCH  17  21
ENDBRANCH  12  15
ENDBRANCH   1  11
BRANCH   4  25
HETATM   25  C   UNL     1     -41.442  56.340 -50.192  1.00  0.00     0.409 C 
HETATM   26  F   UNL     1     -41.207  55.402 -49.256  1.00  0.00    -0.169 F 
HETATM   27  F   UNL     1     -40.586  56.117 -51.215  1.00  0.00    -0.169 F 
HETATM   28  F   UNL     1     -41.080  57.536 -49.656  1.00  0.00    -0.169 F 
ENDBRANCH   4  25
BRANCH   6  29
HETATM   29  C   UNL     1     -41.977  53.729 -52.397  1.00  0.00     0.005 A 
HETATM   30  S   UNL     1     -41.262  52.878 -51.083  1.00  0.00    -0.104 SA
HETATM   31  C   UNL     1     -39.885  52.465 -52.006  1.00  0.00     0.050 A 
HETATM   32  C   UNL     1     -39.968  52.934 -53.296  1.00  0.00     0.008 A 
HETATM   33  C   UNL     1     -41.180  53.650 -53.526  1.00  0.00     0.017 A 
ENDBRANCH   6  29
TORSDOF 6
ENDMDL
MODEL 6
REMARK VINA RESULT:      -7.6      2.323      3.851
REMARK  6 active torsions:
REMARK  status: ('A' for Active; 'I' for Inactive)
REMARK    1  A    between atoms: C_2  and  O_3 
REMARK    2  A    between atoms: C_2  and  C_4 
REMARK    3  A    between atoms: C_6  and  N_7 
REMARK       I    between atoms: N_7  and  C_8 
REMARK    4  A    between atoms: C_8  and  C_9 
REMARK    5  A    between atoms: C_12  and  C_13 
REMARK    6  A    between atoms: C_18  and  C_19 
ROOT
HETATM    1  C   UNL     1     -43.066  55.727 -55.616  1.00  0.00     0.096 A 
HETATM    2  C   UNL     1     -43.907  56.824 -55.623  1.00  0.00     0.138 A 
HETATM    3  N   UNL     1     -43.906  57.287 -56.916  1.00  0.00    -0.240 N 
HETATM    4  C   UNL     1     -44.707  58.393 -57.406  1.00  0.00     0.221 C 
HETATM    5  C   UNL     1     -45.769  58.792 -56.365  1.00  0.00     0.067 C 
HETATM    6  C   UNL     1     -45.282  58.732 -54.907  1.00  0.00     0.125 C 
HETATM    7  N   UNL     1     -44.650  57.427 -54.654  1.00  0.00    -0.365 N 
HETATM    8  N   UNL     1     -43.120  56.583 -57.744  1.00  0.00    -0.181 NA
HETATM    9  C   UNL     1     -42.576  55.663 -56.942  1.00  0.00     0.160 A 
HETATM   10  H   UNL     1     -44.344  57.337 -53.682  1.00  0.00     0.162 HD
ENDROOT
BRANCH   1  11
HETATM   11  C   UNL     1     -42.749  54.809 -54.534  1.00  0.00     0.261 C 
HETATM   12  N   UNL     1     -41.462  54.309 -54.612  1.00  0.00    -0.323 N 
HETATM   13  H   UNL     1     -40.893  54.699 -55.356  1.00  0.00     0.169 HD
HETATM   14  O   UNL     1     -43.559  54.590 -53.643  1.00  0.00    -0.267 OA
BRANCH  12  15
HETATM   15  C   UNL     1     -40.808  53.459 -53.699  1.00  0.00     0.035 A 
HETATM   16  C   UNL     1     -40.320  52.191 -54.026  1.00  0.00     0.039 A 
HETATM   17  C   UNL     1     -39.700  51.381 -53.057  1.00  0.00    -0.028 A 
HETATM   18  C   UNL     1     -39.586  51.860 -51.744  1.00  0.00     0.010 A 
HETATM   19  C   UNL     1     -40.056  53.130 -51.413  1.00  0.00     0.003 A 
HETATM   20  C   UNL     1     -40.658  53.926 -52.389  1.00  0.00     0.029 A 
BRANCH  17  21
HETATM   21  C   UNL     1     -39.205  50.000 -53.434  1.00  0.00     0.147 C 
HETATM   22  C   UNL     1     -39.738  49.552 -54.787  1.00  0.00     0.044 C 
BRANCH  21  23
HETATM   23  O   UNL     1     -39.592  49.046 -52.447  1.00  0.00    -0.391 OA
HETATM   24  H   UNL     1     -39.905  48.260 -52.927  1.00  0.00     0.210 HD
ENDBRANCH  21  23
ENDBRANCH  17  21
ENDBRANCH  12  15
ENDBRANCH   1  11
BRANCH   4  25
HETATM   25  C   UNL     1     -43.823  59.537 -57.856  1.00  0.00     0.409 C 
HETATM   26  F   UNL     1     -42.704  59.681 -57.124  1.00  0.00    -0.169 F 
HETATM   27  F   UNL     1     -43.450  59.415 -59.151  1.00  0.00    -0.169 F 
HETATM   28  F   UNL     1     -44.506  60.710 -57.774  1.00  0.00    -0.169 F 
ENDBRANCH   4  25
BRANCH   6  29
HETATM   29  C   UNL     1     -44.464  59.929 -54.480  1.00  0.00     0.005 A 
HETATM   30  S   UNL     1     -42.946  59.693 -53.705  1.00  0.00    -0.104 SA
HETATM   31  C   UNL     1     -42.677  61.374 -53.562  1.00  0.00     0.050 A 
HETATM   32  C   UNL     1     -43.699  62.110 -54.116  1.00  0.00     0.008 A 
HETATM   33  C   UNL     1     -44.722  61.278 -54.657  1.00  0.00     0.017 A 
ENDBRANCH   6  29
TORSDOF 6
ENDMDL
MODEL 7
REMARK VINA RESULT:      -7.6      4.030      7.936
REMARK  6 active torsions:
REMARK  status: ('A' for Active; 'I' for Inactive)
REMARK    1  A    between atoms: C_2  and  O_3 
REMARK    2  A    between atoms: C_2  and  C_4 
REMARK    3  A    between atoms: C_6  and  N_7 
REMARK       I    between atoms: N_7  and  C_8 
REMARK    4  A    between atoms: C_8  and  C_9 
REMARK    5  A    between atoms: C_12  and  C_13 
REMARK    6  A    between atoms: C_18  and  C_19 
ROOT
HETATM    1  C   UNL     1     -42.326  58.544 -54.933  1.00  0.00     0.096 A 
HETATM    2  C   UNL     1     -42.710  57.739 -53.877  1.00  0.00     0.138 A 
HETATM    3  N   UNL     1     -42.330  58.409 -52.739  1.00  0.00    -0.240 N 
HETATM    4  C   UNL     1     -42.594  57.964 -51.384  1.00  0.00     0.221 C 
HETATM    5  C   UNL     1     -43.603  56.802 -51.384  1.00  0.00     0.067 C 
HETATM    6  C   UNL     1     -43.418  55.802 -52.539  1.00  0.00     0.125 C 
HETATM    7  N   UNL     1     -43.340  56.534 -53.814  1.00  0.00    -0.365 N 
HETATM    8  N   UNL     1     -41.718  59.579 -52.977  1.00  0.00    -0.181 NA
HETATM    9  C   UNL     1     -41.677  59.638 -54.312  1.00  0.00     0.160 A 
HETATM   10  H   UNL     1     -43.252  55.898 -54.611  1.00  0.00     0.162 HD
ENDROOT
BRANCH   1  11
HETATM   11  C   UNL     1     -42.538  58.367 -56.360  1.00  0.00     0.261 C 
HETATM   12  N   UNL     1     -43.399  57.325 -56.651  1.00  0.00    -0.323 N 
HETATM   13  H   UNL     1     -43.822  56.878 -55.845  1.00  0.00     0.169 HD
HETATM   14  O   UNL     1     -42.028  59.133 -57.167  1.00  0.00    -0.267 OA
BRANCH  12  15
HETATM   15  C   UNL     1     -43.876  56.924 -57.915  1.00  0.00     0.035 A 
HETATM   16  C   UNL     1     -45.019  57.452 -58.521  1.00  0.00     0.039 A 
HETATM   17  C   UNL     1     -45.455  56.987 -59.775  1.00  0.00    -0.028 A 
HETATM   18  C   UNL     1     -44.729  55.968 -60.410  1.00  0.00     0.010 A 
HETATM   19  C   UNL     1     -43.580  55.447 -59.820  1.00  0.00     0.003 A 
HETATM   20  C   UNL     1     -43.153  55.928 -58.581  1.00  0.00     0.029 A 
BRANCH  17  21
HETATM   21  C   UNL     1     -46.712  57.559 -60.396  1.00  0.00     0.147 C 
HETATM   22  C   UNL     1     -47.475  56.518 -61.202  1.00  0.00     0.044 C 
BRANCH  21  23
HETATM   23  O   UNL     1     -46.392  58.657 -61.247  1.00  0.00    -0.391 OA
HETATM   24  H   UNL     1     -46.903  58.534 -62.065  1.00  0.00     0.210 HD
ENDBRANCH  21  23
ENDBRANCH  17  21
ENDBRANCH  12  15
ENDBRANCH   1  11
BRANCH   4  25
HETATM   25  C   UNL     1     -41.301  57.660 -50.658  1.00  0.00     0.409 C 
HETATM   26  F   UNL     1     -40.324  57.196 -51.458  1.00  0.00    -0.169 F 
HETATM   27  F   UNL     1     -40.814  58.740 -50.006  1.00  0.00    -0.169 F 
HETATM   28  F   UNL     1     -41.516  56.715 -49.704  1.00  0.00    -0.169 F 
ENDBRANCH   4  25
BRANCH   6  29
HETATM   29  C   UNL     1     -42.312  54.797 -52.314  1.00  0.00     0.005 A 
HETATM   30  S   UNL     1     -41.107  54.568 -53.521  1.00  0.00    -0.104 SA
HETATM   31  C   UNL     1     -40.298  53.386 -52.592  1.00  0.00     0.050 A 
HETATM   32  C   UNL     1     -40.905  53.181 -51.374  1.00  0.00     0.008 A 
HETATM   33  C   UNL     1     -42.057  54.004 -51.208  1.00  0.00     0.017 A 
ENDBRANCH   6  29
TORSDOF 6
ENDMDL
MODEL 8
REMARK VINA RESULT:      -7.5      2.108      3.400
REMARK  6 active torsions:
REMARK  status: ('A' for Active; 'I' for Inactive)
REMARK    1  A    between atoms: C_2  and  O_3 
REMARK    2  A    between atoms: C_2  and  C_4 
REMARK    3  A    between atoms: C_6  and  N_7 
REMARK       I    between atoms: N_7  and  C_8 
REMARK    4  A    between atoms: C_8  and  C_9 
REMARK    5  A    between atoms: C_12  and  C_13 
REMARK    6  A    between atoms: C_18  and  C_19 
ROOT
HETATM    1  C   UNL     1     -42.651  56.261 -56.370  1.00  0.00     0.096 A 
HETATM    2  C   UNL     1     -43.290  57.464 -56.606  1.00  0.00     0.138 A 
HETATM    3  N   UNL     1     -43.972  57.300 -57.787  1.00  0.00    -0.240 N 
HETATM    4  C   UNL     1     -44.842  58.291 -58.391  1.00  0.00     0.221 C 
HETATM    5  C   UNL     1     -45.132  59.432 -57.399  1.00  0.00     0.067 C 
HETATM    6  C   UNL     1     -43.928  59.838 -56.530  1.00  0.00     0.125 C 
HETATM    7  N   UNL     1     -43.340  58.636 -55.915  1.00  0.00    -0.365 N 
HETATM    8  N   UNL     1     -43.814  56.089 -58.340  1.00  0.00    -0.181 NA
HETATM    9  C   UNL     1     -42.975  55.474 -57.501  1.00  0.00     0.160 A 
HETATM   10  H   UNL     1     -42.556  58.871 -55.300  1.00  0.00     0.162 HD
ENDROOT
BRANCH   1  11
HETATM   11  C   UNL     1     -41.847  55.845 -55.232  1.00  0.00     0.261 C 
HETATM   12  N   UNL     1     -42.013  54.510 -54.915  1.00  0.00    -0.323 N 
HETATM   13  H   UNL     1     -42.604  53.986 -55.552  1.00  0.00     0.169 HD
HETATM   14  O   UNL     1     -41.076  56.628 -54.693  1.00  0.00    -0.267 OA
BRANCH  12  15
HETATM   15  C   UNL     1     -41.341  53.766 -53.925  1.00  0.00     0.035 A 
HETATM   16  C   UNL     1     -40.684  52.557 -54.168  1.00  0.00     0.039 A 
HETATM   17  C   UNL     1     -40.056  51.851 -53.126  1.00  0.00    -0.028 A 
HETATM   18  C   UNL     1     -40.106  52.374 -51.826  1.00  0.00     0.010 A 
HETATM   19  C   UNL     1     -40.745  53.587 -51.578  1.00  0.00     0.003 A 
HETATM   20  C   UNL     1     -41.354  54.281 -52.624  1.00  0.00     0.029 A 
BRANCH  17  21
HETATM   21  C   UNL     1     -39.375  50.530 -53.415  1.00  0.00     0.147 C 
HETATM   22  C   UNL     1     -39.881  49.896 -54.702  1.00  0.00     0.044 C 
BRANCH  21  23
HETATM   23  O   UNL     1     -39.583  49.617 -52.339  1.00  0.00    -0.391 OA
HETATM   24  H   UNL     1     -40.232  50.030 -51.744  1.00  0.00     0.210 HD
ENDBRANCH  21  23
ENDBRANCH  17  21
ENDBRANCH  12  15
ENDBRANCH   1  11
BRANCH   4  25
HETATM   25  C   UNL     1     -44.285  58.755 -59.720  1.00  0.00     0.409 C 
HETATM   26  F   UNL     1     -44.750  58.063 -60.776  1.00  0.00    -0.169 F 
HETATM   27  F   UNL     1     -44.534  60.064 -59.950  1.00  0.00    -0.169 F 
HETATM   28  F   UNL     1     -42.931  58.626 -59.726  1.00  0.00    -0.169 F 
ENDBRANCH   4  25
BRANCH   6  29
HETATM   29  C   UNL     1     -42.940  60.743 -57.230  1.00  0.00     0.005 A 
HETATM   30  S   UNL     1     -43.400  62.347 -57.649  1.00  0.00    -0.104 SA
HETATM   31  C   UNL     1     -41.872  62.684 -58.333  1.00  0.00     0.050 A 
HETATM   32  C   UNL     1     -41.011  61.616 -58.225  1.00  0.00     0.008 A 
HETATM   33  C   UNL     1     -41.621  60.503 -57.576  1.00  0.00     0.017 A 
ENDBRANCH   6  29
TORSDOF 6
ENDMDL
MODEL 9
REMARK VINA RESULT:      -7.5      2.391      3.952
REMARK  6 active torsions:
REMARK  status: ('A' for Active; 'I' for Inactive)
REMARK    1  A    between atoms: C_2  and  O_3 
REMARK    2  A    between atoms: C_2  and  C_4 
REMARK    3  A    between atoms: C_6  and  N_7 
REMARK       I    between atoms: N_7  and  C_8 
REMARK    4  A    between atoms: C_8  and  C_9 
REMARK    5  A    between atoms: C_12  and  C_13 
REMARK    6  A    between atoms: C_18  and  C_19 
ROOT
HETATM    1  C   UNL     1     -42.626  56.077 -56.288  1.00  0.00     0.096 A 
HETATM    2  C   UNL     1     -43.278  57.266 -56.560  1.00  0.00     0.138 A 
HETATM    3  N   UNL     1     -43.932  57.069 -57.752  1.00  0.00    -0.240 N 
HETATM    4  C   UNL     1     -44.804  58.035 -58.393  1.00  0.00     0.221 C 
HETATM    5  C   UNL     1     -45.132  59.189 -57.428  1.00  0.00     0.067 C 
HETATM    6  C   UNL     1     -43.953  59.630 -56.543  1.00  0.00     0.125 C 
HETATM    7  N   UNL     1     -43.360  58.449 -55.892  1.00  0.00    -0.365 N 
HETATM    8  N   UNL     1     -43.744  55.850 -58.279  1.00  0.00    -0.181 NA
HETATM    9  C   UNL     1     -42.914  55.265 -57.411  1.00  0.00     0.160 A 
HETATM   10  H   UNL     1     -42.593  58.707 -55.266  1.00  0.00     0.162 HD
ENDROOT
BRANCH   1  11
HETATM   11  C   UNL     1     -41.841  55.695 -55.126  1.00  0.00     0.261 C 
HETATM   12  N   UNL     1     -41.923  54.344 -54.841  1.00  0.00    -0.323 N 
HETATM   13  H   UNL     1     -42.449  53.794 -55.511  1.00  0.00     0.169 HD
HETATM   14  O   UNL     1     -41.149  56.519 -54.542  1.00  0.00    -0.267 OA
BRANCH  12  15
HETATM   15  C   UNL     1     -41.240  53.629 -53.838  1.00  0.00     0.035 A 
HETATM   16  C   UNL     1     -41.285  53.954 -52.480  1.00  0.00     0.039 A 
HETATM   17  C   UNL     1     -40.556  53.213 -51.532  1.00  0.00    -0.028 A 
HETATM   18  C   UNL     1     -39.765  52.141 -51.972  1.00  0.00     0.010 A 
HETATM   19  C   UNL     1     -39.726  51.801 -53.323  1.00  0.00     0.003 A 
HETATM   20  C   UNL     1     -40.465  52.538 -54.249  1.00  0.00     0.029 A 
BRANCH  17  21
HETATM   21  C   UNL     1     -40.603  53.605 -50.071  1.00  0.00     0.147 C 
HETATM   22  C   UNL     1     -41.780  54.519 -49.762  1.00  0.00     0.044 C 
BRANCH  21  23
HETATM   23  O   UNL     1     -39.397  54.264 -49.692  1.00  0.00    -0.391 OA
HETATM   24  H   UNL     1     -39.421  55.146 -50.101  1.00  0.00     0.210 HD
ENDBRANCH  21  23
ENDBRANCH  17  21
ENDBRANCH  12  15
ENDBRANCH   1  11
BRANCH   4  25
HETATM   25  C   UNL     1     -44.225  58.483 -59.718  1.00  0.00     0.409 C 
HETATM   26  F   UNL     1     -44.547  59.746 -60.053  1.00  0.00    -0.169 F 
HETATM   27  F   UNL     1     -42.877  58.385 -59.747  1.00  0.00    -0.169 F 
HETATM   28  F   UNL     1     -44.679  57.679 -60.717  1.00  0.00    -0.169 F 
ENDBRANCH   4  25
BRANCH   6  29
HETATM   29  C   UNL     1     -42.964  60.537 -57.238  1.00  0.00     0.005 A 
HETATM   30  S   UNL     1     -43.457  62.105 -57.749  1.00  0.00    -0.104 SA
HETATM   31  C   UNL     1     -41.911  62.464 -58.379  1.00  0.00     0.050 A 
HETATM   32  C   UNL     1     -41.021  61.432 -58.185  1.00  0.00     0.008 A 
HETATM   33  C   UNL     1     -41.624  60.328 -57.515  1.00  0.00     0.017 A 
ENDBRANCH   6  29
TORSDOF 6
ENDMDL
MODEL 10
REMARK VINA RESULT:      -7.5      4.026      8.136
REMARK  6 active torsions:
REMARK  status: ('A' for Active; 'I' for Inactive)
REMARK    1  A    between atoms: C_2  and  O_3 
REMARK    2  A    between atoms: C_2  and  C_4 
REMARK    3  A    between atoms: C_6  and  N_7 
REMARK       I    between atoms: N_7  and  C_8 
REMARK    4  A    between atoms: C_8  and  C_9 
REMARK    5  A    between atoms: C_12  and  C_13 
REMARK    6  A    between atoms: C_18  and  C_19 
ROOT
HETATM    1  C   UNL     1     -43.693  57.554 -53.943  1.00  0.00     0.096 A 
HETATM    2  C   UNL     1     -43.576  56.507 -53.048  1.00  0.00     0.138 A 
HETATM    3  N   UNL     1     -43.105  57.063 -51.883  1.00  0.00    -0.240 N 
HETATM    4  C   UNL     1     -42.893  56.342 -50.643  1.00  0.00     0.221 C 
HETATM    5  C   UNL     1     -43.535  54.945 -50.714  1.00  0.00     0.067 C 
HETATM    6  C   UNL     1     -43.399  54.253 -52.082  1.00  0.00     0.125 C 
HETATM    7  N   UNL     1     -43.838  55.175 -53.143  1.00  0.00    -0.365 N 
HETATM    8  N   UNL     1     -42.896  58.386 -51.959  1.00  0.00    -0.181 NA
HETATM    9  C   UNL     1     -43.211  58.674 -53.225  1.00  0.00     0.160 A 
HETATM   10  H   UNL     1     -43.794  54.737 -54.067  1.00  0.00     0.162 HD
ENDROOT
BRANCH   1  11
HETATM   11  C   UNL     1     -44.207  57.559 -55.303  1.00  0.00     0.261 C 
HETATM   12  N   UNL     1     -43.233  57.299 -56.249  1.00  0.00    -0.323 N 
HETATM   13  H   UNL     1     -42.319  57.068 -55.874  1.00  0.00     0.169 HD
HETATM   14  O   UNL     1     -45.402  57.719 -55.518  1.00  0.00    -0.267 OA
BRANCH  12  15
HETATM   15  C   UNL     1     -43.395  57.160 -57.641  1.00  0.00     0.035 A 
HETATM   16  C   UNL     1     -43.638  58.228 -58.509  1.00  0.00     0.039 A 
HETATM   17  C   UNL     1     -43.817  58.015 -59.888  1.00  0.00    -0.028 A 
HETATM   18  C   UNL     1     -43.760  56.705 -60.385  1.00  0.00     0.010 A 
HETATM   19  C   UNL     1     -43.503  55.636 -59.529  1.00  0.00     0.003 A 
HETATM   20  C   UNL     1     -43.315  55.865 -58.165  1.00  0.00     0.029 A 
BRANCH  17  21
HETATM   21  C   UNL     1     -44.106  59.188 -60.800  1.00  0.00     0.147 C 
HETATM   22  C   UNL     1     -43.792  60.520 -60.135  1.00  0.00     0.044 C 
BRANCH  21  23
HETATM   23  O   UNL     1     -45.476  59.185 -61.198  1.00  0.00    -0.391 OA
HETATM   24  H   UNL     1     -45.721  60.111 -61.363  1.00  0.00     0.210 HD
ENDBRANCH  21  23
ENDBRANCH  17  21
ENDBRANCH  12  15
ENDBRANCH   1  11
BRANCH   4  25
HETATM   25  C   UNL     1     -41.424  56.329 -50.274  1.00  0.00     0.409 C 
HETATM   26  F   UNL     1     -41.094  55.369 -49.391  1.00  0.00    -0.169 F 
HETATM   27  F   UNL     1     -40.627  56.179 -51.356  1.00  0.00    -0.169 F 
HETATM   28  F   UNL     1     -41.076  57.520 -49.716  1.00  0.00    -0.169 F 
ENDBRANCH   4  25
BRANCH   6  29
HETATM   29  C   UNL     1     -42.052  53.609 -52.316  1.00  0.00     0.005 A 
HETATM   30  S   UNL     1     -41.384  53.579 -53.902  1.00  0.00    -0.104 SA
HETATM   31  C   UNL     1     -39.980  52.762 -53.373  1.00  0.00     0.050 A 
HETATM   32  C   UNL     1     -39.994  52.537 -52.015  1.00  0.00     0.008 A 
HETATM   33  C   UNL     1     -41.181  53.038 -51.404  1.00  0.00     0.017 A 
ENDBRANCH   6  29
TORSDOF 6
ENDMDL
