MODEL 1
REMARK VINA RESULT:      -8.2      0.000      0.000
REMARK  8 active torsions:
REMARK  status: ('A' for Active; 'I' for Inactive)
REMARK    1  A    between atoms: O_2  and  C_3 
REMARK    2  A    between atoms: C_3  and  C_4 
REMARK    3  A    between atoms: C_5  and  C_6 
REMARK    4  A    between atoms: C_6  and  C_7 
REMARK    5  A    between atoms: C_7  and  N_8 
REMARK    6  A    between atoms: N_13  and  C_14 
REMARK    7  A    between atoms: C_14  and  C_15 
REMARK    8  A    between atoms: C_15  and  N_16 
ROOT
HETATM    1  N   UNL     1     -42.925  55.003 -54.638  1.00  0.00    -0.174 N 
HETATM    2  C   UNL     1     -43.543  55.729 -53.648  1.00  0.00     0.681 C 
HETATM    3  N   UNL     1     -43.786  55.255 -52.418  1.00  0.00    -0.234 N 
HETATM    4  H   UNL     1     -44.332  55.756 -51.734  1.00  0.00     0.174 HD
HETATM    5  H   UNL     1     -43.716  54.253 -52.243  1.00  0.00     0.174 HD
HETATM    6  N   UNL     1     -43.891  57.024 -54.058  1.00  0.00    -0.180 N 
HETATM    7  C   UNL     1     -43.684  57.000 -55.475  1.00  0.00     0.079 A 
HETATM    8  C   UNL     1     -43.076  55.781 -55.820  1.00  0.00     0.079 A 
HETATM    9  C   UNL     1     -44.041  57.922 -56.435  1.00  0.00     0.032 A 
HETATM   10  C   UNL     1     -43.769  57.596 -57.768  1.00  0.00     0.002 A 
HETATM   11  C   UNL     1     -43.151  56.377 -58.110  1.00  0.00     0.002 A 
HETATM   12  C   UNL     1     -42.796  55.450 -57.127  1.00  0.00     0.032 A 
ENDROOT
BRANCH   1  13
HETATM   13  C   UNL     1     -42.433  53.624 -54.575  1.00  0.00     0.231 C 
BRANCH  13  14
HETATM   14  C   UNL     1     -40.994  53.649 -54.111  1.00  0.00     0.179 C 
HETATM   15  O   UNL     1     -40.298  54.658 -54.187  1.00  0.00    -0.290 OA
BRANCH  14  16
HETATM   16  C   UNL     1     -40.420  52.390 -53.589  1.00  0.00     0.028 A 
HETATM   17  C   UNL     1     -40.340  52.176 -52.206  1.00  0.00     0.053 A 
HETATM   18  C   UNL     1     -39.861  50.955 -51.716  1.00  0.00     0.018 A 
HETATM   19  C   UNL     1     -39.453  49.961 -52.607  1.00  0.00     0.001 A 
HETATM   20  C   UNL     1     -39.518  50.183 -53.984  1.00  0.00     0.001 A 
HETATM   21  C   UNL     1     -40.004  51.394 -54.481  1.00  0.00     0.016 A 
BRANCH  17  22
HETATM   22  C   UNL     1     -40.665  53.271 -51.269  1.00  0.00     0.293 C 
HETATM   23  O   UNL     1     -41.819  53.602 -51.021  1.00  0.00    -0.259 OA
BRANCH  22  24
HETATM   24  O   UNL     1     -39.515  53.762 -50.770  1.00  0.00    -0.322 OA
HETATM   25  C   UNL     1     -39.562  54.285 -49.441  1.00  0.00     0.213 C 
ENDBRANCH  22  24
ENDBRANCH  17  22
ENDBRANCH  14  16
ENDBRANCH  13  14
ENDBRANCH   1  13
BRANCH   6  26
HETATM   26  C   UNL     1     -44.608  58.051 -53.290  1.00  0.00     0.175 C 
BRANCH  26  27
HETATM   27  C   UNL     1     -43.726  59.248 -52.862  1.00  0.00     0.255 C 
BRANCH  27  28
HETATM   28  N   UNL     1     -42.360  58.847 -52.315  1.00  0.00    -0.070 N 
HETATM   29  H   UNL     1     -42.334  57.823 -52.224  1.00  0.00     0.279 HD
HETATM   30  C   UNL     1     -41.207  59.270 -53.211  1.00  0.00     0.235 C 
HETATM   31  C   UNL     1     -39.897  58.747 -52.639  1.00  0.00     0.028 C 
HETATM   32  C   UNL     1     -39.664  59.254 -51.222  1.00  0.00     0.003 C 
HETATM   33  C   UNL     1     -40.850  58.921 -50.324  1.00  0.00     0.028 C 
HETATM   34  C   UNL     1     -42.163  59.417 -50.911  1.00  0.00     0.235 C 
ENDBRANCH  27  28
ENDBRANCH  26  27
ENDBRANCH   6  26
TORSDOF 8
ENDMDL
MODEL 2
REMARK VINA RESULT:      -8.1      1.986      5.029
REMARK  8 active torsions:
REMARK  status: ('A' for Active; 'I' for Inactive)
REMARK    1  A    between atoms: O_2  and  C_3 
REMARK    2  A    between atoms: C_3  and  C_4 
REMARK    3  A    between atoms: C_5  and  C_6 
REMARK    4  A    between atoms: C_6  and  C_7 
REMARK    5  A    between atoms: C_7  and  N_8 
REMARK    6  A    between atoms: N_13  and  C_14 
REMARK    7  A    between atoms: C_14  and  C_15 
REMARK    8  A    between atoms: C_15  and  N_16 
ROOT
HETATM    1  N   UNL     1     -43.168  55.502 -54.106  1.00  0.00    -0.174 N 
HETATM    2  C   UNL     1     -42.895  55.873 -55.401  1.00  0.00     0.681 C 
HETATM    3  N   UNL     1     -42.186  55.122 -56.256  1.00  0.00    -0.234 N 
HETATM    4  H   UNL     1     -41.903  55.448 -57.169  1.00  0.00     0.174 HD
HETATM    5  H   UNL     1     -41.635  54.341 -55.903  1.00  0.00     0.174 HD
HETATM    6  N   UNL     1     -43.439  57.120 -55.738  1.00  0.00    -0.180 N 
HETATM    7  C   UNL     1     -43.871  57.654 -54.481  1.00  0.00     0.079 A 
HETATM    8  C   UNL     1     -43.727  56.661 -53.497  1.00  0.00     0.079 A 
HETATM    9  C   UNL     1     -44.304  58.923 -54.163  1.00  0.00     0.032 A 
HETATM   10  C   UNL     1     -44.600  59.181 -52.820  1.00  0.00     0.002 A 
HETATM   11  C   UNL     1     -44.462  58.181 -51.837  1.00  0.00     0.002 A 
HETATM   12  C   UNL     1     -44.020  56.898 -52.173  1.00  0.00     0.032 A 
ENDROOT
BRANCH   1  13
HETATM   13  C   UNL     1     -42.760  54.279 -53.410  1.00  0.00     0.231 C 
BRANCH  13  14
HETATM   14  C   UNL     1     -41.250  54.248 -53.340  1.00  0.00     0.179 C 
HETATM   15  O   UNL     1     -40.569  55.267 -53.417  1.00  0.00    -0.290 OA
BRANCH  14  16
HETATM   16  C   UNL     1     -40.596  52.927 -53.215  1.00  0.00     0.028 A 
HETATM   17  C   UNL     1     -40.156  52.479 -51.963  1.00  0.00     0.053 A 
HETATM   18  C   UNL     1     -39.600  51.199 -51.836  1.00  0.00     0.018 A 
HETATM   19  C   UNL     1     -39.477  50.382 -52.960  1.00  0.00     0.001 A 
HETATM   20  C   UNL     1     -39.902  50.837 -54.209  1.00  0.00     0.001 A 
HETATM   21  C   UNL     1     -40.465  52.107 -54.342  1.00  0.00     0.016 A 
BRANCH  17  22
HETATM   22  C   UNL     1     -40.184  53.390 -50.800  1.00  0.00     0.293 C 
HETATM   23  O   UNL     1     -39.203  54.037 -50.449  1.00  0.00    -0.259 OA
BRANCH  22  24
HETATM   24  O   UNL     1     -41.424  53.378 -50.276  1.00  0.00    -0.322 OA
HETATM   25  C   UNL     1     -41.886  54.595 -49.686  1.00  0.00     0.213 C 
ENDBRANCH  22  24
ENDBRANCH  17  22
ENDBRANCH  14  16
ENDBRANCH  13  14
ENDBRANCH   1  13
BRANCH   6  26
HETATM   26  C   UNL     1     -43.304  57.851 -57.005  1.00  0.00     0.175 C 
BRANCH  26  27
HETATM   27  C   UNL     1     -44.633  58.022 -57.779  1.00  0.00     0.255 C 
BRANCH  27  28
HETATM   28  N   UNL     1     -45.014  56.815 -58.630  1.00  0.00    -0.070 N 
HETATM   29  H   UNL     1     -45.445  56.109 -58.019  1.00  0.00     0.279 HD
HETATM   30  C   UNL     1     -46.003  57.148 -59.735  1.00  0.00     0.235 C 
HETATM   31  C   UNL     1     -46.399  55.875 -60.469  1.00  0.00     0.028 C 
HETATM   32  C   UNL     1     -45.185  55.169 -61.057  1.00  0.00     0.003 C 
HETATM   33  C   UNL     1     -44.136  54.905 -59.983  1.00  0.00     0.028 C 
HETATM   34  C   UNL     1     -43.763  56.173 -59.230  1.00  0.00     0.235 C 
ENDBRANCH  27  28
ENDBRANCH  26  27
ENDBRANCH   6  26
TORSDOF 8
ENDMDL
MODEL 3
REMARK VINA RESULT:      -8.0      2.709      7.216
REMARK  8 active torsions:
REMARK  status: ('A' for Active; 'I' for Inactive)
REMARK    1  A    between atoms: O_2  and  C_3 
REMARK    2  A    between atoms: C_3  and  C_4 
REMARK    3  A    between atoms: C_5  and  C_6 
REMARK    4  A    between atoms: C_6  and  C_7 
REMARK    5  A    between atoms: C_7  and  N_8 
REMARK    6  A    between atoms: N_13  and  C_14 
REMARK    7  A    between atoms: C_14  and  C_15 
REMARK    8  A    between atoms: C_15  and  N_16 
ROOT
HETATM    1  N   UNL     1     -42.873  56.961 -53.993  1.00  0.00    -0.174 N 
HETATM    2  C   UNL     1     -42.386  55.943 -54.777  1.00  0.00     0.681 C 
HETATM    3  N   UNL     1     -42.127  56.070 -56.086  1.00  0.00    -0.234 N 
HETATM    4  H   UNL     1     -41.870  55.290 -56.673  1.00  0.00     0.174 HD
HETATM    5  H   UNL     1     -42.493  56.873 -56.596  1.00  0.00     0.174 HD
HETATM    6  N   UNL     1     -42.185  54.753 -54.063  1.00  0.00    -0.180 N 
HETATM    7  C   UNL     1     -42.822  54.999 -52.805  1.00  0.00     0.079 A 
HETATM    8  C   UNL     1     -43.218  56.347 -52.757  1.00  0.00     0.079 A 
HETATM    9  C   UNL     1     -43.112  54.128 -51.776  1.00  0.00     0.032 A 
HETATM   10  C   UNL     1     -43.813  54.642 -50.680  1.00  0.00     0.002 A 
HETATM   11  C   UNL     1     -44.201  55.996 -50.631  1.00  0.00     0.002 A 
HETATM   12  C   UNL     1     -43.902  56.868 -51.681  1.00  0.00     0.032 A 
ENDROOT
BRANCH   1  13
HETATM   13  C   UNL     1     -43.207  58.330 -54.394  1.00  0.00     0.231 C 
BRANCH  13  14
HETATM   14  C   UNL     1     -41.992  59.204 -54.179  1.00  0.00     0.179 C 
HETATM   15  O   UNL     1     -41.383  59.720 -55.112  1.00  0.00    -0.290 OA
BRANCH  14  16
HETATM   16  C   UNL     1     -41.522  59.395 -52.790  1.00  0.00     0.028 A 
HETATM   17  C   UNL     1     -42.254  60.199 -51.906  1.00  0.00     0.053 A 
HETATM   18  C   UNL     1     -41.843  60.322 -50.573  1.00  0.00     0.018 A 
HETATM   19  C   UNL     1     -40.701  59.653 -50.134  1.00  0.00     0.001 A 
HETATM   20  C   UNL     1     -39.964  58.865 -51.020  1.00  0.00     0.001 A 
HETATM   21  C   UNL     1     -40.372  58.730 -52.349  1.00  0.00     0.016 A 
BRANCH  17  22
HETATM   22  C   UNL     1     -43.395  60.995 -52.404  1.00  0.00     0.293 C 
HETATM   23  O   UNL     1     -43.246  61.979 -53.120  1.00  0.00    -0.259 OA
BRANCH  22  24
HETATM   24  O   UNL     1     -44.535  60.432 -51.961  1.00  0.00    -0.322 OA
HETATM   25  C   UNL     1     -45.690  60.580 -52.789  1.00  0.00     0.213 C 
ENDBRANCH  22  24
ENDBRANCH  17  22
ENDBRANCH  14  16
ENDBRANCH  13  14
ENDBRANCH   1  13
BRANCH   6  26
HETATM   26  C   UNL     1     -41.731  53.456 -54.581  1.00  0.00     0.175 C 
BRANCH  26  27
HETATM   27  C   UNL     1     -40.192  53.302 -54.638  1.00  0.00     0.255 C 
BRANCH  27  28
HETATM   28  N   UNL     1     -39.657  52.125 -53.831  1.00  0.00    -0.070 N 
HETATM   29  H   UNL     1     -38.632  52.110 -53.916  1.00  0.00     0.279 HD
HETATM   30  C   UNL     1     -40.005  52.203 -52.353  1.00  0.00     0.235 C 
HETATM   31  C   UNL     1     -39.352  51.045 -51.612  1.00  0.00     0.028 C 
HETATM   32  C   UNL     1     -39.793  49.701 -52.177  1.00  0.00     0.003 C 
HETATM   33  C   UNL     1     -39.537  49.632 -53.677  1.00  0.00     0.028 C 
HETATM   34  C   UNL     1     -40.164  50.807 -54.415  1.00  0.00     0.235 C 
ENDBRANCH  27  28
ENDBRANCH  26  27
ENDBRANCH   6  26
TORSDOF 8
ENDMDL
MODEL 4
REMARK VINA RESULT:      -7.7      1.342      1.785
REMARK  8 active torsions:
REMARK  status: ('A' for Active; 'I' for Inactive)
REMARK    1  A    between atoms: O_2  and  C_3 
REMARK    2  A    between atoms: C_3  and  C_4 
REMARK    3  A    between atoms: C_5  and  C_6 
REMARK    4  A    between atoms: C_6  and  C_7 
REMARK    5  A    between atoms: C_7  and  N_8 
REMARK    6  A    between atoms: N_13  and  C_14 
REMARK    7  A    between atoms: C_14  and  C_15 
REMARK    8  A    between atoms: C_15  and  N_16 
ROOT
HETATM    1  N   UNL     1     -43.188  55.702 -55.364  1.00  0.00    -0.174 N 
HETATM    2  C   UNL     1     -43.888  56.559 -54.551  1.00  0.00     0.681 C 
HETATM    3  N   UNL     1     -44.172  56.301 -53.266  1.00  0.00    -0.234 N 
HETATM    4  H   UNL     1     -44.775  56.888 -52.708  1.00  0.00     0.174 HD
HETATM    5  H   UNL     1     -44.064  55.353 -52.908  1.00  0.00     0.174 HD
HETATM    6  N   UNL     1     -44.275  57.738 -55.203  1.00  0.00    -0.180 N 
HETATM    7  C   UNL     1     -43.995  57.471 -56.583  1.00  0.00     0.079 A 
HETATM    8  C   UNL     1     -43.314  56.245 -56.674  1.00  0.00     0.079 A 
HETATM    9  C   UNL     1     -44.345  58.184 -57.709  1.00  0.00     0.032 A 
HETATM   10  C   UNL     1     -43.990  57.639 -58.948  1.00  0.00     0.002 A 
HETATM   11  C   UNL     1     -43.299  56.415 -59.036  1.00  0.00     0.002 A 
HETATM   12  C   UNL     1     -42.952  55.701 -57.886  1.00  0.00     0.032 A 
ENDROOT
BRANCH   1  13
HETATM   13  C   UNL     1     -42.635  54.387 -55.030  1.00  0.00     0.231 C 
BRANCH  13  14
HETATM   14  C   UNL     1     -41.225  54.574 -54.517  1.00  0.00     0.179 C 
HETATM   15  O   UNL     1     -40.559  55.572 -54.780  1.00  0.00    -0.290 OA
BRANCH  14  16
HETATM   16  C   UNL     1     -40.641  53.485 -53.705  1.00  0.00     0.028 A 
HETATM   17  C   UNL     1     -40.853  53.451 -52.321  1.00  0.00     0.053 A 
HETATM   18  C   UNL     1     -40.357  52.381 -51.565  1.00  0.00     0.018 A 
HETATM   19  C   UNL     1     -39.643  51.360 -52.193  1.00  0.00     0.001 A 
HETATM   20  C   UNL     1     -39.419  51.404 -53.570  1.00  0.00     0.001 A 
HETATM   21  C   UNL     1     -39.919  52.462 -54.332  1.00  0.00     0.016 A 
BRANCH  17  22
HETATM   22  C   UNL     1     -41.509  54.590 -51.646  1.00  0.00     0.293 C 
HETATM   23  O   UNL     1     -40.895  55.595 -51.307  1.00  0.00    -0.259 OA
BRANCH  22  24
HETATM   24  O   UNL     1     -42.822  54.316 -51.523  1.00  0.00    -0.322 OA
HETATM   25  C   UNL     1     -43.442  54.679 -50.288  1.00  0.00     0.213 C 
ENDBRANCH  22  24
ENDBRANCH  17  22
ENDBRANCH  14  16
ENDBRANCH  13  14
ENDBRANCH   1  13
BRANCH   6  26
HETATM   26  C   UNL     1     -45.077  58.846 -54.667  1.00  0.00     0.175 C 
BRANCH  26  27
HETATM   27  C   UNL     1     -44.239  60.044 -54.162  1.00  0.00     0.255 C 
BRANCH  27  28
HETATM   28  N   UNL     1     -43.580  59.812 -52.806  1.00  0.00    -0.070 N 
HETATM   29  H   UNL     1     -43.950  58.937 -52.410  1.00  0.00     0.279 HD
HETATM   30  C   UNL     1     -42.067  59.690 -52.887  1.00  0.00     0.235 C 
HETATM   31  C   UNL     1     -41.506  59.364 -51.510  1.00  0.00     0.028 C 
HETATM   32  C   UNL     1     -41.885  60.427 -50.488  1.00  0.00     0.003 C 
HETATM   33  C   UNL     1     -43.394  60.633 -50.452  1.00  0.00     0.028 C 
HETATM   34  C   UNL     1     -43.960  60.928 -51.834  1.00  0.00     0.235 C 
ENDBRANCH  27  28
ENDBRANCH  26  27
ENDBRANCH   6  26
TORSDOF 8
ENDMDL
MODEL 5
REMARK VINA RESULT:      -7.5      2.736      7.468
REMARK  8 active torsions:
REMARK  status: ('A' for Active; 'I' for Inactive)
REMARK    1  A    between atoms: O_2  and  C_3 
REMARK    2  A    between atoms: C_3  and  C_4 
REMARK    3  A    between atoms: C_5  and  C_6 
REMARK    4  A    between atoms: C_6  and  C_7 
REMARK    5  A    between atoms: C_7  and  N_8 
REMARK    6  A    between atoms: N_13  and  C_14 
REMARK    7  A    between atoms: C_14  and  C_15 
REMARK    8  A    between atoms: C_15  and  N_16 
ROOT
HETATM    1  N   UNL     1     -43.483  57.058 -54.753  1.00  0.00    -0.174 N 
HETATM    2  C   UNL     1     -43.567  55.918 -53.990  1.00  0.00     0.681 C 
HETATM    3  N   UNL     1     -44.301  54.848 -54.329  1.00  0.00    -0.234 N 
HETATM    4  H   UNL     1     -44.440  54.060 -53.714  1.00  0.00     0.174 HD
HETATM    5  H   UNL     1     -45.001  54.931 -55.065  1.00  0.00     0.174 HD
HETATM    6  N   UNL     1     -42.802  55.988 -52.818  1.00  0.00    -0.180 N 
HETATM    7  C   UNL     1     -42.413  57.364 -52.746  1.00  0.00     0.079 A 
HETATM    8  C   UNL     1     -42.808  58.005 -53.933  1.00  0.00     0.079 A 
HETATM    9  C   UNL     1     -41.816  58.061 -51.718  1.00  0.00     0.032 A 
HETATM   10  C   UNL     1     -41.614  59.433 -51.906  1.00  0.00     0.002 A 
HETATM   11  C   UNL     1     -42.003  60.071 -53.101  1.00  0.00     0.002 A 
HETATM   12  C   UNL     1     -42.610  59.353 -54.135  1.00  0.00     0.032 A 
ENDROOT
BRANCH   1  13
HETATM   13  C   UNL     1     -44.147  57.344 -56.027  1.00  0.00     0.231 C 
BRANCH  13  14
HETATM   14  C   UNL     1     -43.229  56.922 -57.152  1.00  0.00     0.179 C 
HETATM   15  O   UNL     1     -42.758  55.790 -57.224  1.00  0.00    -0.290 OA
BRANCH  14  16
HETATM   16  C   UNL     1     -42.873  57.938 -58.166  1.00  0.00     0.028 A 
HETATM   17  C   UNL     1     -43.370  57.831 -59.471  1.00  0.00     0.053 A 
HETATM   18  C   UNL     1     -43.088  58.832 -60.410  1.00  0.00     0.018 A 
HETATM   19  C   UNL     1     -42.303  59.925 -60.043  1.00  0.00     0.001 A 
HETATM   20  C   UNL     1     -41.795  60.022 -58.746  1.00  0.00     0.001 A 
HETATM   21  C   UNL     1     -42.080  59.033 -57.802  1.00  0.00     0.016 A 
BRANCH  17  22
HETATM   22  C   UNL     1     -44.104  56.617 -59.885  1.00  0.00     0.293 C 
HETATM   23  O   UNL     1     -43.546  55.659 -60.408  1.00  0.00    -0.259 OA
BRANCH  22  24
HETATM   24  O   UNL     1     -45.402  56.770 -59.561  1.00  0.00    -0.322 OA
HETATM   25  C   UNL     1     -46.350  56.042 -60.342  1.00  0.00     0.213 C 
ENDBRANCH  22  24
ENDBRANCH  17  22
ENDBRANCH  14  16
ENDBRANCH  13  14
ENDBRANCH   1  13
BRANCH   6  26
HETATM   26  C   UNL     1     -42.695  54.987 -51.748  1.00  0.00     0.175 C 
BRANCH  26  27
HETATM   27  C   UNL     1     -41.258  54.466 -51.512  1.00  0.00     0.255 C 
BRANCH  27  28
HETATM   28  N   UNL     1     -40.968  53.124 -52.175  1.00  0.00    -0.070 N 
HETATM   29  H   UNL     1     -41.765  52.497 -52.004  1.00  0.00     0.279 HD
HETATM   30  C   UNL     1     -40.766  53.229 -53.678  1.00  0.00     0.235 C 
HETATM   31  C   UNL     1     -40.580  51.838 -54.268  1.00  0.00     0.028 C 
HETATM   32  C   UNL     1     -39.396  51.119 -53.636  1.00  0.00     0.003 C 
HETATM   33  C   UNL     1     -39.530  51.080 -52.118  1.00  0.00     0.028 C 
HETATM   34  C   UNL     1     -39.747  52.467 -51.532  1.00  0.00     0.235 C 
ENDBRANCH  27  28
ENDBRANCH  26  27
ENDBRANCH   6  26
TORSDOF 8
ENDMDL
MODEL 6
REMARK VINA RESULT:      -7.4      2.024      5.787
REMARK  8 active torsions:
REMARK  status: ('A' for Active; 'I' for Inactive)
REMARK    1  A    between atoms: O_2  and  C_3 
REMARK    2  A    between atoms: C_3  and  C_4 
REMARK    3  A    between atoms: C_5  and  C_6 
REMARK    4  A    between atoms: C_6  and  C_7 
REMARK    5  A    between atoms: C_7  and  N_8 
REMARK    6  A    between atoms: N_13  and  C_14 
REMARK    7  A    between atoms: C_14  and  C_15 
REMARK    8  A    between atoms: C_15  and  N_16 
ROOT
HETATM    1  N   UNL     1     -42.921  54.175 -54.255  1.00  0.00    -0.174 N 
HETATM    2  C   UNL     1     -43.313  54.994 -53.224  1.00  0.00     0.681 C 
HETATM    3  N   UNL     1     -44.173  56.012 -53.367  1.00  0.00    -0.234 N 
HETATM    4  H   UNL     1     -44.373  56.670 -52.629  1.00  0.00     0.174 HD
HETATM    5  H   UNL     1     -44.399  56.352 -54.302  1.00  0.00     0.174 HD
HETATM    6  N   UNL     1     -42.721  54.652 -52.000  1.00  0.00    -0.180 N 
HETATM    7  C   UNL     1     -41.711  53.703 -52.363  1.00  0.00     0.079 A 
HETATM    8  C   UNL     1     -41.850  53.399 -53.728  1.00  0.00     0.079 A 
HETATM    9  C   UNL     1     -40.689  53.169 -51.608  1.00  0.00     0.032 A 
HETATM   10  C   UNL     1     -39.798  52.306 -52.256  1.00  0.00     0.002 A 
HETATM   11  C   UNL     1     -39.946  51.996 -53.622  1.00  0.00     0.002 A 
HETATM   12  C   UNL     1     -40.985  52.546 -54.377  1.00  0.00     0.032 A 
ENDROOT
BRANCH   1  13
HETATM   13  C   UNL     1     -43.324  54.236 -55.662  1.00  0.00     0.231 C 
BRANCH  13  14
HETATM   14  C   UNL     1     -42.553  55.349 -56.335  1.00  0.00     0.179 C 
HETATM   15  O   UNL     1     -41.494  55.777 -55.885  1.00  0.00    -0.290 OA
BRANCH  14  16
HETATM   16  C   UNL     1     -43.137  55.948 -57.554  1.00  0.00     0.028 A 
HETATM   17  C   UNL     1     -43.583  57.277 -57.537  1.00  0.00     0.053 A 
HETATM   18  C   UNL     1     -44.072  57.863 -58.712  1.00  0.00     0.018 A 
HETATM   19  C   UNL     1     -44.123  57.118 -59.890  1.00  0.00     0.001 A 
HETATM   20  C   UNL     1     -43.693  55.790 -59.901  1.00  0.00     0.001 A 
HETATM   21  C   UNL     1     -43.196  55.201 -58.736  1.00  0.00     0.016 A 
BRANCH  17  22
HETATM   22  C   UNL     1     -43.633  58.023 -56.263  1.00  0.00     0.293 C 
HETATM   23  O   UNL     1     -44.533  57.867 -55.445  1.00  0.00    -0.259 OA
BRANCH  22  24
HETATM   24  O   UNL     1     -42.550  58.821 -56.192  1.00  0.00    -0.322 OA
HETATM   25  C   UNL     1     -42.047  59.107 -54.886  1.00  0.00     0.213 C 
ENDBRANCH  22  24
ENDBRANCH  17  22
ENDBRANCH  14  16
ENDBRANCH  13  14
ENDBRANCH   1  13
BRANCH   6  26
HETATM   26  C   UNL     1     -42.864  55.333 -50.706  1.00  0.00     0.175 C 
BRANCH  26  27
HETATM   27  C   UNL     1     -41.637  56.185 -50.303  1.00  0.00     0.255 C 
BRANCH  27  28
HETATM   28  N   UNL     1     -41.912  57.684 -50.257  1.00  0.00    -0.070 N 
HETATM   29  H   UNL     1     -42.262  57.922 -49.319  1.00  0.00     0.279 HD
HETATM   30  C   UNL     1     -40.677  58.529 -50.526  1.00  0.00     0.235 C 
HETATM   31  C   UNL     1     -41.021  60.003 -50.365  1.00  0.00     0.028 C 
HETATM   32  C   UNL     1     -42.147  60.419 -51.302  1.00  0.00     0.003 C 
HETATM   33  C   UNL     1     -43.368  59.526 -51.114  1.00  0.00     0.028 C 
HETATM   34  C   UNL     1     -43.019  58.051 -51.245  1.00  0.00     0.235 C 
ENDBRANCH  27  28
ENDBRANCH  26  27
ENDBRANCH   6  26
TORSDOF 8
ENDMDL
MODEL 7
REMARK VINA RESULT:      -7.3      3.891      5.455
REMARK  8 active torsions:
REMARK  status: ('A' for Active; 'I' for Inactive)
REMARK    1  A    between atoms: O_2  and  C_3 
REMARK    2  A    between atoms: C_3  and  C_4 
REMARK    3  A    between atoms: C_5  and  C_6 
REMARK    4  A    between atoms: C_6  and  C_7 
REMARK    5  A    between atoms: C_7  and  N_8 
REMARK    6  A    between atoms: N_13  and  C_14 
REMARK    7  A    between atoms: C_14  and  C_15 
REMARK    8  A    between atoms: C_15  and  N_16 
ROOT
HETATM    1  N   UNL     1     -42.745  57.823 -55.983  1.00  0.00    -0.174 N 
HETATM    2  C   UNL     1     -42.739  59.183 -56.180  1.00  0.00     0.681 C 
HETATM    3  N   UNL     1     -42.902  60.079 -55.196  1.00  0.00    -0.234 N 
HETATM    4  H   UNL     1     -43.001  61.069 -55.365  1.00  0.00     0.174 HD
HETATM    5  H   UNL     1     -43.258  59.773 -54.291  1.00  0.00     0.174 HD
HETATM    6  N   UNL     1     -42.541  59.539 -57.522  1.00  0.00    -0.180 N 
HETATM    7  C   UNL     1     -42.676  58.299 -58.226  1.00  0.00     0.079 A 
HETATM    8  C   UNL     1     -42.776  57.257 -57.288  1.00  0.00     0.079 A 
HETATM    9  C   UNL     1     -42.772  58.059 -59.580  1.00  0.00     0.032 A 
HETATM   10  C   UNL     1     -42.968  56.733 -59.983  1.00  0.00     0.002 A 
HETATM   11  C   UNL     1     -43.059  55.690 -59.041  1.00  0.00     0.002 A 
HETATM   12  C   UNL     1     -42.962  55.947 -57.671  1.00  0.00     0.032 A 
ENDROOT
BRANCH   1  13
HETATM   13  C   UNL     1     -42.931  57.092 -54.727  1.00  0.00     0.231 C 
BRANCH  13  14
HETATM   14  C   UNL     1     -41.575  56.866 -54.097  1.00  0.00     0.179 C 
HETATM   15  O   UNL     1     -40.854  57.796 -53.742  1.00  0.00    -0.290 OA
BRANCH  14  16
HETATM   16  C   UNL     1     -41.110  55.470 -53.952  1.00  0.00     0.028 A 
HETATM   17  C   UNL     1     -41.317  54.783 -52.749  1.00  0.00     0.053 A 
HETATM   18  C   UNL     1     -40.938  53.440 -52.638  1.00  0.00     0.018 A 
HETATM   19  C   UNL     1     -40.344  52.795 -53.724  1.00  0.00     0.001 A 
HETATM   20  C   UNL     1     -40.124  53.486 -54.916  1.00  0.00     0.001 A 
HETATM   21  C   UNL     1     -40.507  54.822 -55.038  1.00  0.00     0.016 A 
BRANCH  17  22
HETATM   22  C   UNL     1     -41.840  55.503 -51.569  1.00  0.00     0.293 C 
HETATM   23  O   UNL     1     -41.108  56.088 -50.778  1.00  0.00    -0.259 OA
BRANCH  22  24
HETATM   24  O   UNL     1     -43.184  55.407 -51.570  1.00  0.00    -0.322 OA
HETATM   25  C   UNL     1     -43.775  54.646 -50.515  1.00  0.00     0.213 C 
ENDBRANCH  22  24
ENDBRANCH  17  22
ENDBRANCH  14  16
ENDBRANCH  13  14
ENDBRANCH   1  13
BRANCH   6  26
HETATM   26  C   UNL     1     -42.531  60.886 -58.106  1.00  0.00     0.175 C 
BRANCH  26  27
HETATM   27  C   UNL     1     -41.132  61.545 -58.148  1.00  0.00     0.255 C 
BRANCH  27  28
HETATM   28  N   UNL     1     -40.868  62.360 -59.410  1.00  0.00    -0.070 N 
HETATM   29  H   UNL     1     -41.487  63.181 -59.402  1.00  0.00     0.279 HD
HETATM   30  C   UNL     1     -39.433  62.853 -59.517  1.00  0.00     0.235 C 
HETATM   31  C   UNL     1     -39.286  63.733 -60.750  1.00  0.00     0.028 C 
HETATM   32  C   UNL     1     -39.672  62.985 -62.019  1.00  0.00     0.003 C 
HETATM   33  C   UNL     1     -41.075  62.402 -61.900  1.00  0.00     0.028 C 
HETATM   34  C   UNL     1     -41.232  61.547 -60.652  1.00  0.00     0.235 C 
ENDBRANCH  27  28
ENDBRANCH  26  27
ENDBRANCH   6  26
TORSDOF 8
ENDMDL
MODEL 8
REMARK VINA RESULT:      -7.3      2.205      4.504
REMARK  8 active torsions:
REMARK  status: ('A' for Active; 'I' for Inactive)
REMARK    1  A    between atoms: O_2  and  C_3 
REMARK    2  A    between atoms: C_3  and  C_4 
REMARK    3  A    between atoms: C_5  and  C_6 
REMARK    4  A    between atoms: C_6  and  C_7 
REMARK    5  A    between atoms: C_7  and  N_8 
REMARK    6  A    between atoms: N_13  and  C_14 
REMARK    7  A    between atoms: C_14  and  C_15 
REMARK    8  A    between atoms: C_15  and  N_16 
ROOT
HETATM    1  N   UNL     1     -42.127  56.393 -55.271  1.00  0.00    -0.174 N 
HETATM    2  C   UNL     1     -43.168  56.594 -56.145  1.00  0.00     0.681 C 
HETATM    3  N   UNL     1     -43.475  55.754 -57.144  1.00  0.00    -0.234 N 
HETATM    4  H   UNL     1     -44.173  55.962 -57.842  1.00  0.00     0.174 HD
HETATM    5  H   UNL     1     -42.803  55.041 -57.425  1.00  0.00     0.174 HD
HETATM    6  N   UNL     1     -43.883  57.771 -55.882  1.00  0.00    -0.180 N 
HETATM    7  C   UNL     1     -43.067  58.458 -54.925  1.00  0.00     0.079 A 
HETATM    8  C   UNL     1     -42.016  57.609 -54.539  1.00  0.00     0.079 A 
HETATM    9  C   UNL     1     -43.162  59.747 -54.447  1.00  0.00     0.032 A 
HETATM   10  C   UNL     1     -42.170  60.174 -53.557  1.00  0.00     0.002 A 
HETATM   11  C   UNL     1     -41.122  59.318 -53.165  1.00  0.00     0.002 A 
HETATM   12  C   UNL     1     -41.037  58.014 -53.659  1.00  0.00     0.032 A 
ENDROOT
BRANCH   1  13
HETATM   13  C   UNL     1     -41.169  55.285 -55.245  1.00  0.00     0.231 C 
BRANCH  13  14
HETATM   14  C   UNL     1     -41.818  54.105 -54.558  1.00  0.00     0.179 C 
HETATM   15  O   UNL     1     -43.019  53.865 -54.661  1.00  0.00    -0.290 OA
BRANCH  14  16
HETATM   16  C   UNL     1     -40.962  53.251 -53.707  1.00  0.00     0.028 A 
HETATM   17  C   UNL     1     -41.017  53.371 -52.312  1.00  0.00     0.053 A 
HETATM   18  C   UNL     1     -40.257  52.513 -51.507  1.00  0.00     0.018 A 
HETATM   19  C   UNL     1     -39.438  51.552 -52.099  1.00  0.00     0.001 A 
HETATM   20  C   UNL     1     -39.371  51.445 -53.489  1.00  0.00     0.001 A 
HETATM   21  C   UNL     1     -40.134  52.289 -54.298  1.00  0.00     0.016 A 
BRANCH  17  22
HETATM   22  C   UNL     1     -41.797  54.464 -51.695  1.00  0.00     0.293 C 
HETATM   23  O   UNL     1     -43.001  54.372 -51.480  1.00  0.00    -0.259 OA
BRANCH  22  24
HETATM   24  O   UNL     1     -40.961  55.483 -51.418  1.00  0.00    -0.322 OA
HETATM   25  C   UNL     1     -41.290  56.297 -50.291  1.00  0.00     0.213 C 
ENDBRANCH  22  24
ENDBRANCH  17  22
ENDBRANCH  14  16
ENDBRANCH  13  14
ENDBRANCH   1  13
BRANCH   6  26
HETATM   26  C   UNL     1     -45.012  58.330 -56.636  1.00  0.00     0.175 C 
BRANCH  26  27
HETATM   27  C   UNL     1     -44.657  59.585 -57.469  1.00  0.00     0.255 C 
BRANCH  27  28
HETATM   28  N   UNL     1     -43.462  59.394 -58.397  1.00  0.00    -0.070 N 
HETATM   29  H   UNL     1     -42.668  59.053 -57.840  1.00  0.00     0.279 HD
HETATM   30  C   UNL     1     -43.722  58.391 -59.510  1.00  0.00     0.235 C 
HETATM   31  C   UNL     1     -42.452  58.192 -60.325  1.00  0.00     0.028 C 
HETATM   32  C   UNL     1     -41.958  59.505 -60.918  1.00  0.00     0.003 C 
HETATM   33  C   UNL     1     -41.777  60.558 -59.830  1.00  0.00     0.028 C 
HETATM   34  C   UNL     1     -43.036  60.735 -58.996  1.00  0.00     0.235 C 
ENDBRANCH  27  28
ENDBRANCH  26  27
ENDBRANCH   6  26
TORSDOF 8
ENDMDL
MODEL 9
REMARK VINA RESULT:      -7.2      2.216      5.606
REMARK  8 active torsions:
REMARK  status: ('A' for Active; 'I' for Inactive)
REMARK    1  A    between atoms: O_2  and  C_3 
REMARK    2  A    between atoms: C_3  and  C_4 
REMARK    3  A    between atoms: C_5  and  C_6 
REMARK    4  A    between atoms: C_6  and  C_7 
REMARK    5  A    between atoms: C_7  and  N_8 
REMARK    6  A    between atoms: N_13  and  C_14 
REMARK    7  A    between atoms: C_14  and  C_15 
REMARK    8  A    between atoms: C_15  and  N_16 
ROOT
HETATM    1  N   UNL     1     -41.622  58.625 -51.991  1.00  0.00    -0.174 N 
HETATM    2  C   UNL     1     -41.434  58.605 -53.351  1.00  0.00     0.681 C 
HETATM    3  N   UNL     1     -40.699  57.683 -53.988  1.00  0.00    -0.234 N 
HETATM    4  H   UNL     1     -40.481  57.738 -54.972  1.00  0.00     0.174 HD
HETATM    5  H   UNL     1     -40.068  57.086 -53.454  1.00  0.00     0.174 HD
HETATM    6  N   UNL     1     -42.097  59.651 -54.009  1.00  0.00    -0.180 N 
HETATM    7  C   UNL     1     -42.522  60.508 -52.943  1.00  0.00     0.079 A 
HETATM    8  C   UNL     1     -42.253  59.871 -51.719  1.00  0.00     0.079 A 
HETATM    9  C   UNL     1     -43.049  61.781 -52.990  1.00  0.00     0.032 A 
HETATM   10  C   UNL     1     -43.312  62.411 -51.768  1.00  0.00     0.002 A 
HETATM   11  C   UNL     1     -43.050  61.766 -50.543  1.00  0.00     0.002 A 
HETATM   12  C   UNL     1     -42.513  60.476 -50.510  1.00  0.00     0.032 A 
ENDROOT
BRANCH   1  13
HETATM   13  C   UNL     1     -41.082  57.701 -50.990  1.00  0.00     0.231 C 
BRANCH  13  14
HETATM   14  C   UNL     1     -42.060  56.562 -50.810  1.00  0.00     0.179 C 
HETATM   15  O   UNL     1     -43.273  56.713 -50.939  1.00  0.00    -0.290 OA
BRANCH  14  16
HETATM   16  C   UNL     1     -41.514  55.242 -50.428  1.00  0.00     0.028 A 
HETATM   17  C   UNL     1     -41.290  54.266 -51.407  1.00  0.00     0.053 A 
HETATM   18  C   UNL     1     -40.707  53.042 -51.052  1.00  0.00     0.018 A 
HETATM   19  C   UNL     1     -40.365  52.798 -49.722  1.00  0.00     0.001 A 
HETATM   20  C   UNL     1     -40.604  53.765 -48.745  1.00  0.00     0.001 A 
HETATM   21  C   UNL     1     -41.175  54.991 -49.092  1.00  0.00     0.016 A 
BRANCH  17  22
HETATM   22  C   UNL     1     -41.758  54.486 -52.791  1.00  0.00     0.293 C 
HETATM   23  O   UNL     1     -42.924  54.309 -53.125  1.00  0.00    -0.259 OA
BRANCH  22  24
HETATM   24  O   UNL     1     -40.719  54.916 -53.532  1.00  0.00    -0.322 OA
HETATM   25  C   UNL     1     -40.327  54.091 -54.631  1.00  0.00     0.213 C 
ENDBRANCH  22  24
ENDBRANCH  17  22
ENDBRANCH  14  16
ENDBRANCH  13  14
ENDBRANCH   1  13
BRANCH   6  26
HETATM   26  C   UNL     1     -42.076  59.974 -55.442  1.00  0.00     0.175 C 
BRANCH  26  27
HETATM   27  C   UNL     1     -43.207  59.301 -56.256  1.00  0.00     0.255 C 
BRANCH  27  28
HETATM   28  N   UNL     1     -42.728  58.184 -57.176  1.00  0.00    -0.070 N 
HETATM   29  H   UNL     1     -41.763  57.939 -56.916  1.00  0.00     0.279 HD
HETATM   30  C   UNL     1     -43.575  56.924 -57.081  1.00  0.00     0.235 C 
HETATM   31  C   UNL     1     -42.970  55.835 -57.955  1.00  0.00     0.028 C 
HETATM   32  C   UNL     1     -42.866  56.279 -59.408  1.00  0.00     0.003 C 
HETATM   33  C   UNL     1     -42.097  57.591 -59.521  1.00  0.00     0.028 C 
HETATM   34  C   UNL     1     -42.683  58.671 -58.624  1.00  0.00     0.235 C 
ENDBRANCH  27  28
ENDBRANCH  26  27
ENDBRANCH   6  26
TORSDOF 8
ENDMDL
MODEL 10
REMARK VINA RESULT:      -7.0      1.995      4.970
REMARK  8 active torsions:
REMARK  status: ('A' for Active; 'I' for Inactive)
REMARK    1  A    between atoms: O_2  and  C_3 
REMARK    2  A    between atoms: C_3  and  C_4 
REMARK    3  A    between atoms: C_5  and  C_6 
REMARK    4  A    between atoms: C_6  and  C_7 
REMARK    5  A    between atoms: C_7  and  N_8 
REMARK    6  A    between atoms: N_13  and  C_14 
REMARK    7  A    between atoms: C_14  and  C_15 
REMARK    8  A    between atoms: C_15  and  N_16 
ROOT
HETATM    1  N   UNL     1     -42.487  57.145 -52.298  1.00  0.00    -0.174 N 
HETATM    2  C   UNL     1     -42.033  57.449 -53.558  1.00  0.00     0.681 C 
HETATM    3  N   UNL     1     -40.832  57.082 -54.026  1.00  0.00    -0.234 N 
HETATM    4  H   UNL     1     -40.467  57.399 -54.912  1.00  0.00     0.174 HD
HETATM    5  H   UNL     1     -40.120  56.748 -53.377  1.00  0.00     0.174 HD
HETATM    6  N   UNL     1     -42.961  58.184 -54.310  1.00  0.00    -0.180 N 
HETATM    7  C   UNL     1     -43.956  58.559 -53.350  1.00  0.00     0.079 A 
HETATM    8  C   UNL     1     -43.678  57.907 -52.136  1.00  0.00     0.079 A 
HETATM    9  C   UNL     1     -45.004  59.447 -53.465  1.00  0.00     0.032 A 
HETATM   10  C   UNL     1     -45.784  59.668 -52.325  1.00  0.00     0.002 A 
HETATM   11  C   UNL     1     -45.509  59.006 -51.112  1.00  0.00     0.002 A 
HETATM   12  C   UNL     1     -44.441  58.111 -51.008  1.00  0.00     0.032 A 
ENDROOT
BRANCH   1  13
HETATM   13  C   UNL     1     -41.794  56.402 -51.242  1.00  0.00     0.231 C 
BRANCH  13  14
HETATM   14  C   UNL     1     -42.289  54.973 -51.255  1.00  0.00     0.179 C 
HETATM   15  O   UNL     1     -43.277  54.616 -50.619  1.00  0.00    -0.290 OA
BRANCH  14  16
HETATM   16  C   UNL     1     -41.515  53.987 -52.039  1.00  0.00     0.028 A 
HETATM   17  C   UNL     1     -40.431  53.320 -51.453  1.00  0.00     0.053 A 
HETATM   18  C   UNL     1     -39.743  52.336 -52.175  1.00  0.00     0.018 A 
HETATM   19  C   UNL     1     -40.133  52.035 -53.480  1.00  0.00     0.001 A 
HETATM   20  C   UNL     1     -41.202  52.712 -54.069  1.00  0.00     0.001 A 
HETATM   21  C   UNL     1     -41.899  53.687 -53.352  1.00  0.00     0.016 A 
BRANCH  17  22
HETATM   22  C   UNL     1     -39.952  53.723 -50.114  1.00  0.00     0.293 C 
HETATM   23  O   UNL     1     -39.057  54.546 -49.958  1.00  0.00    -0.259 OA
BRANCH  22  24
HETATM   24  O   UNL     1     -40.674  53.067 -49.185  1.00  0.00    -0.322 OA
HETATM   25  C   UNL     1     -40.618  53.573 -47.851  1.00  0.00     0.213 C 
ENDBRANCH  22  24
ENDBRANCH  17  22
ENDBRANCH  14  16
ENDBRANCH  13  14
ENDBRANCH   1  13
BRANCH   6  26
HETATM   26  C   UNL     1     -42.798  58.726 -55.665  1.00  0.00     0.175 C 
BRANCH  26  27
HETATM   27  C   UNL     1     -42.988  57.681 -56.790  1.00  0.00     0.255 C 
BRANCH  27  28
HETATM   28  N   UNL     1     -44.176  57.963 -57.703  1.00  0.00    -0.070 N 
HETATM   29  H   UNL     1     -44.019  58.865 -58.172  1.00  0.00     0.279 HD
HETATM   30  C   UNL     1     -44.373  56.903 -58.776  1.00  0.00     0.235 C 
HETATM   31  C   UNL     1     -45.513  57.314 -59.697  1.00  0.00     0.028 C 
HETATM   32  C   UNL     1     -46.810  57.514 -58.923  1.00  0.00     0.003 C 
HETATM   33  C   UNL     1     -46.615  58.506 -57.783  1.00  0.00     0.028 C 
HETATM   34  C   UNL     1     -45.455  58.112 -56.880  1.00  0.00     0.235 C 
ENDBRANCH  27  28
ENDBRANCH  26  27
ENDBRANCH   6  26
TORSDOF 8
ENDMDL
