MODEL 1
REMARK VINA RESULT:      -9.0      0.000      0.000
REMARK  9 active torsions:
REMARK  status: ('A' for Active; 'I' for Inactive)
REMARK    1  A    between atoms: C_2  and  C_3 
REMARK    2  A    between atoms: C_3  and  C_4 
REMARK    3  A    between atoms: C_3  and  C_38 
REMARK    4  A    between atoms: C_6  and  C_7 
REMARK    5  A    between atoms: C_14  and  C_15 
REMARK    6  A    between atoms: C_18  and  C_19 
REMARK    7  A    between atoms: C_19  and  N_20 
REMARK       I    between atoms: N_20  and  C_21 
REMARK       I    between atoms: C_21  and  N_22 
REMARK    8  A    between atoms: N_22  and  C_23 
REMARK    9  A    between atoms: C_26  and  O_27 
ROOT
HETATM    1  C   UNL     1     -42.465  55.601 -55.025  1.00  0.00     0.068 C 
HETATM    2  C   UNL     1     -41.959  57.037 -55.343  1.00  0.00     0.001 C 
HETATM    3  C   UNL     1     -42.394  58.009 -54.222  1.00  0.00     0.040 C 
HETATM    4  C   UNL     1     -43.931  58.099 -54.143  1.00  0.00     0.206 C 
HETATM    5  N   UNL     1     -44.478  57.056 -55.114  1.00  0.00    -0.065 N 
HETATM    6  H   UNL     1     -45.513  57.034 -54.983  1.00  0.00     0.280 HD
HETATM    7  C   UNL     1     -43.993  55.644 -54.821  1.00  0.00     0.246 C 
HETATM    8  C   UNL     1     -42.629  57.496 -56.658  1.00  0.00     0.033 C 
HETATM    9  C   UNL     1     -44.156  57.442 -56.534  1.00  0.00     0.236 C 
ENDROOT
BRANCH   1  10
HETATM   10  C   UNL     1     -41.720  54.980 -53.863  1.00  0.00     0.045 A 
HETATM   11  N   UNL     1     -41.318  53.698 -53.984  1.00  0.00    -0.233 NA
HETATM   12  C   UNL     1     -40.726  53.138 -52.907  1.00  0.00     0.160 A 
HETATM   13  N   UNL     1     -40.560  53.757 -51.727  1.00  0.00    -0.233 NA
HETATM   14  C   UNL     1     -40.967  55.038 -51.625  1.00  0.00     0.043 A 
HETATM   15  C   UNL     1     -41.548  55.698 -52.692  1.00  0.00     0.055 A 
BRANCH  12  16
HETATM   16  C   UNL     1     -40.240  51.757 -53.031  1.00  0.00     0.014 A 
HETATM   17  C   UNL     1     -40.192  51.110 -54.275  1.00  0.00     0.034 A 
HETATM   18  C   UNL     1     -39.721  49.810 -54.349  1.00  0.00     0.117 A 
HETATM   19  N   UNL     1     -39.300  49.108 -53.278  1.00  0.00    -0.273 NA
HETATM   20  C   UNL     1     -39.369  49.722 -52.082  1.00  0.00     0.117 A 
HETATM   21  C   UNL     1     -39.818  51.023 -51.913  1.00  0.00     0.034 A 
ENDBRANCH  12  16
BRANCH  14  22
HETATM   22  C   UNL     1     -40.749  55.709 -50.280  1.00  0.00     0.037 C 
BRANCH  22  23
HETATM   23  C   UNL     1     -41.287  54.881 -49.091  1.00  0.00     0.006 C 
HETATM   24  C   UNL     1     -40.206  54.087 -48.367  1.00  0.00     0.006 C 
ENDBRANCH  22  23
BRANCH  22  25
HETATM   25  C   UNL     1     -41.360  57.127 -50.255  1.00  0.00     0.006 C 
HETATM   26  C   UNL     1     -40.354  58.222 -50.587  1.00  0.00     0.006 C 
ENDBRANCH  22  25
ENDBRANCH  14  22
ENDBRANCH   1  10
BRANCH   4  27
HETATM   27  C   UNL     1     -44.485  57.963 -52.700  1.00  0.00     0.157 C 
BRANCH  27  28
HETATM   28  N   UNL     1     -43.934  58.888 -51.707  1.00  0.00    -0.341 N 
HETATM   29  C   UNL     1     -44.706  59.824 -51.056  1.00  0.00     0.320 C 
HETATM   30  N   UNL     1     -44.068  60.367 -49.973  1.00  0.00    -0.309 N 
HETATM   31  O   UNL     1     -45.830  60.101 -51.463  1.00  0.00    -0.247 OA
HETATM   32  H   UNL     1     -43.099  60.116 -49.831  1.00  0.00     0.170 HD
HETATM   33  H   UNL     1     -43.174  58.513 -51.154  1.00  0.00     0.164 HD
BRANCH  30  34
HETATM   34  C   UNL     1     -44.616  61.249 -49.015  1.00  0.00     0.036 A 
HETATM   35  C   UNL     1     -45.457  60.848 -47.977  1.00  0.00     0.032 A 
HETATM   36  C   UNL     1     -45.918  61.779 -47.039  1.00  0.00     0.039 A 
HETATM   37  C   UNL     1     -45.535  63.117 -47.113  1.00  0.00     0.068 A 
HETATM   38  C   UNL     1     -44.715  63.530 -48.160  1.00  0.00     0.039 A 
HETATM   39  C   UNL     1     -44.261  62.601 -49.106  1.00  0.00     0.032 A 
BRANCH  37  40
HETATM   40  O   UNL     1     -46.034  63.912 -46.121  1.00  0.00    -0.356 OA
HETATM   41  C   UNL     1     -47.313  63.560 -45.608  1.00  0.00     0.210 C 
ENDBRANCH  37  40
ENDBRANCH  30  34
ENDBRANCH  27  28
ENDBRANCH   4  27
TORSDOF 9
ENDMDL
MODEL 2
REMARK VINA RESULT:      -8.6      2.630      6.960
REMARK  9 active torsions:
REMARK  status: ('A' for Active; 'I' for Inactive)
REMARK    1  A    between atoms: C_2  and  C_3 
REMARK    2  A    between atoms: C_3  and  C_4 
REMARK    3  A    between atoms: C_3  and  C_38 
REMARK    4  A    between atoms: C_6  and  C_7 
REMARK    5  A    between atoms: C_14  and  C_15 
REMARK    6  A    between atoms: C_18  and  C_19 
REMARK    7  A    between atoms: C_19  and  N_20 
REMARK       I    between atoms: N_20  and  C_21 
REMARK       I    between atoms: C_21  and  N_22 
REMARK    8  A    between atoms: N_22  and  C_23 
REMARK    9  A    between atoms: C_26  and  O_27 
ROOT
HETATM    1  C   UNL     1     -41.034  55.633 -54.724  1.00  0.00     0.068 C 
HETATM    2  C   UNL     1     -41.382  54.138 -54.970  1.00  0.00     0.001 C 
HETATM    3  C   UNL     1     -42.718  53.787 -54.273  1.00  0.00     0.040 C 
HETATM    4  C   UNL     1     -42.598  53.959 -52.746  1.00  0.00     0.206 C 
HETATM    5  N   UNL     1     -41.228  54.575 -52.484  1.00  0.00    -0.065 N 
HETATM    6  H   UNL     1     -41.185  54.798 -51.465  1.00  0.00     0.280 HD
HETATM    7  C   UNL     1     -41.012  55.897 -53.205  1.00  0.00     0.246 C 
HETATM    8  C   UNL     1     -40.270  53.279 -54.326  1.00  0.00     0.033 C 
HETATM    9  C   UNL     1     -40.137  53.598 -52.833  1.00  0.00     0.236 C 
ENDROOT
BRANCH   1  10
HETATM   10  C   UNL     1     -41.955  56.564 -55.483  1.00  0.00     0.045 A 
HETATM   11  N   UNL     1     -42.319  57.717 -54.885  1.00  0.00    -0.233 NA
HETATM   12  C   UNL     1     -43.203  58.496 -55.545  1.00  0.00     0.160 A 
HETATM   13  N   UNL     1     -43.768  58.173 -56.719  1.00  0.00    -0.233 NA
HETATM   14  C   UNL     1     -43.392  57.017 -57.302  1.00  0.00     0.043 A 
HETATM   15  C   UNL     1     -42.463  56.181 -56.712  1.00  0.00     0.055 A 
BRANCH  12  16
HETATM   16  C   UNL     1     -43.580  59.778 -54.932  1.00  0.00     0.014 A 
HETATM   17  C   UNL     1     -44.919  60.190 -54.871  1.00  0.00     0.034 A 
HETATM   18  C   UNL     1     -45.232  61.404 -54.279  1.00  0.00     0.117 A 
HETATM   19  N   UNL     1     -44.311  62.234 -53.750  1.00  0.00    -0.273 NA
HETATM   20  C   UNL     1     -43.024  61.847 -53.832  1.00  0.00     0.117 A 
HETATM   21  C   UNL     1     -42.618  60.648 -54.398  1.00  0.00     0.034 A 
ENDBRANCH  12  16
BRANCH  14  22
HETATM   22  C   UNL     1     -44.042  56.693 -58.636  1.00  0.00     0.037 C 
BRANCH  22  23
HETATM   23  C   UNL     1     -43.631  55.312 -59.195  1.00  0.00     0.006 C 
HETATM   24  C   UNL     1     -44.754  54.600 -59.939  1.00  0.00     0.006 C 
ENDBRANCH  22  23
BRANCH  22  25
HETATM   25  C   UNL     1     -43.754  57.793 -59.682  1.00  0.00     0.006 C 
HETATM   26  C   UNL     1     -42.353  57.709 -60.274  1.00  0.00     0.006 C 
ENDBRANCH  22  25
ENDBRANCH  14  22
ENDBRANCH   1  10
BRANCH   4  27
HETATM   27  C   UNL     1     -43.775  54.754 -52.120  1.00  0.00     0.157 C 
BRANCH  27  28
HETATM   28  N   UNL     1     -43.822  56.186 -52.427  1.00  0.00    -0.341 N 
HETATM   29  C   UNL     1     -44.303  57.120 -51.537  1.00  0.00     0.320 C 
HETATM   30  N   UNL     1     -43.982  58.401 -51.900  1.00  0.00    -0.309 N 
HETATM   31  O   UNL     1     -44.950  56.774 -50.554  1.00  0.00    -0.247 OA
HETATM   32  H   UNL     1     -43.537  58.532 -52.798  1.00  0.00     0.170 HD
HETATM   33  H   UNL     1     -43.072  56.517 -53.020  1.00  0.00     0.164 HD
BRANCH  30  34
HETATM   34  C   UNL     1     -44.200  59.578 -51.150  1.00  0.00     0.036 A 
HETATM   35  C   UNL     1     -43.179  60.344 -50.586  1.00  0.00     0.032 A 
HETATM   36  C   UNL     1     -43.477  61.526 -49.899  1.00  0.00     0.039 A 
HETATM   37  C   UNL     1     -44.793  61.969 -49.777  1.00  0.00     0.068 A 
HETATM   38  C   UNL     1     -45.819  61.197 -50.315  1.00  0.00     0.039 A 
HETATM   39  C   UNL     1     -45.523  60.008 -50.995  1.00  0.00     0.032 A 
BRANCH  37  40
HETATM   40  O   UNL     1     -44.941  63.149 -49.107  1.00  0.00    -0.356 OA
HETATM   41  C   UNL     1     -44.779  64.339 -49.870  1.00  0.00     0.210 C 
ENDBRANCH  37  40
ENDBRANCH  30  34
ENDBRANCH  27  28
ENDBRANCH   4  27
TORSDOF 9
ENDMDL
MODEL 3
REMARK VINA RESULT:      -8.5      3.760      9.546
REMARK  9 active torsions:
REMARK  status: ('A' for Active; 'I' for Inactive)
REMARK    1  A    between atoms: C_2  and  C_3 
REMARK    2  A    between atoms: C_3  and  C_4 
REMARK    3  A    between atoms: C_3  and  C_38 
REMARK    4  A    between atoms: C_6  and  C_7 
REMARK    5  A    between atoms: C_14  and  C_15 
REMARK    6  A    between atoms: C_18  and  C_19 
REMARK    7  A    between atoms: C_19  and  N_20 
REMARK       I    between atoms: N_20  and  C_21 
REMARK       I    between atoms: C_21  and  N_22 
REMARK    8  A    between atoms: N_22  and  C_23 
REMARK    9  A    between atoms: C_26  and  O_27 
ROOT
HETATM    1  C   UNL     1     -44.020  60.797 -54.471  1.00  0.00     0.068 C 
HETATM    2  C   UNL     1     -42.927  61.208 -53.443  1.00  0.00     0.001 C 
HETATM    3  C   UNL     1     -42.387  59.952 -52.718  1.00  0.00     0.040 C 
HETATM    4  C   UNL     1     -43.506  59.266 -51.910  1.00  0.00     0.206 C 
HETATM    5  N   UNL     1     -44.801  59.997 -52.251  1.00  0.00    -0.065 N 
HETATM    6  H   UNL     1     -45.577  59.468 -51.796  1.00  0.00     0.280 HD
HETATM    7  C   UNL     1     -45.119  60.001 -53.739  1.00  0.00     0.246 C 
HETATM    8  C   UNL     1     -43.589  62.120 -52.386  1.00  0.00     0.033 C 
HETATM    9  C   UNL     1     -44.765  61.404 -51.714  1.00  0.00     0.236 C 
ENDROOT
BRANCH   1  10
HETATM   10  C   UNL     1     -43.436  60.062 -55.659  1.00  0.00     0.045 A 
HETATM   11  N   UNL     1     -42.851  60.795 -56.628  1.00  0.00    -0.233 NA
HETATM   12  C   UNL     1     -42.407  60.128 -57.716  1.00  0.00     0.160 A 
HETATM   13  N   UNL     1     -42.555  58.807 -57.906  1.00  0.00    -0.233 NA
HETATM   14  C   UNL     1     -43.141  58.091 -56.926  1.00  0.00     0.043 A 
HETATM   15  C   UNL     1     -43.589  58.690 -55.763  1.00  0.00     0.055 A 
BRANCH  12  16
HETATM   16  C   UNL     1     -41.727  60.901 -58.765  1.00  0.00     0.014 A 
HETATM   17  C   UNL     1     -42.023  60.705 -60.122  1.00  0.00     0.034 A 
HETATM   18  C   UNL     1     -41.363  61.458 -61.078  1.00  0.00     0.117 A 
HETATM   19  N   UNL     1     -40.431  62.386 -60.784  1.00  0.00    -0.273 NA
HETATM   20  C   UNL     1     -40.131  62.555 -59.482  1.00  0.00     0.117 A 
HETATM   21  C   UNL     1     -40.745  61.853 -58.456  1.00  0.00     0.034 A 
ENDBRANCH  12  16
BRANCH  14  22
HETATM   22  C   UNL     1     -43.277  56.598 -57.172  1.00  0.00     0.037 C 
BRANCH  22  23
HETATM   23  C   UNL     1     -42.519  55.738 -56.134  1.00  0.00     0.006 C 
HETATM   24  C   UNL     1     -43.201  54.409 -55.835  1.00  0.00     0.006 C 
ENDBRANCH  22  23
BRANCH  22  25
HETATM   25  C   UNL     1     -42.826  56.221 -58.599  1.00  0.00     0.006 C 
HETATM   26  C   UNL     1     -43.955  55.672 -59.463  1.00  0.00     0.006 C 
ENDBRANCH  22  25
ENDBRANCH  14  22
ENDBRANCH   1  10
BRANCH   4  27
HETATM   27  C   UNL     1     -43.576  57.731 -52.131  1.00  0.00     0.157 C 
BRANCH  27  28
HETATM   28  N   UNL     1     -42.308  57.005 -52.031  1.00  0.00    -0.341 N 
HETATM   29  C   UNL     1     -42.224  55.637 -52.154  1.00  0.00     0.320 C 
HETATM   30  N   UNL     1     -40.936  55.205 -52.327  1.00  0.00    -0.309 N 
HETATM   31  O   UNL     1     -43.232  54.940 -52.095  1.00  0.00    -0.247 OA
HETATM   32  H   UNL     1     -40.201  55.893 -52.243  1.00  0.00     0.170 HD
HETATM   33  H   UNL     1     -41.503  57.508 -52.380  1.00  0.00     0.164 HD
BRANCH  30  34
HETATM   34  C   UNL     1     -40.510  53.889 -52.617  1.00  0.00     0.036 A 
HETATM   35  C   UNL     1     -40.100  52.971 -51.650  1.00  0.00     0.032 A 
HETATM   36  C   UNL     1     -39.740  51.670 -52.016  1.00  0.00     0.039 A 
HETATM   37  C   UNL     1     -39.798  51.260 -53.347  1.00  0.00     0.068 A 
HETATM   38  C   UNL     1     -40.183  52.178 -54.321  1.00  0.00     0.039 A 
HETATM   39  C   UNL     1     -40.534  53.485 -53.957  1.00  0.00     0.032 A 
BRANCH  37  40
HETATM   40  O   UNL     1     -39.446  49.959 -53.563  1.00  0.00    -0.356 OA
HETATM   41  C   UNL     1     -39.426  49.109 -52.422  1.00  0.00     0.210 C 
ENDBRANCH  37  40
ENDBRANCH  30  34
ENDBRANCH  27  28
ENDBRANCH   4  27
TORSDOF 9
ENDMDL
MODEL 4
REMARK VINA RESULT:      -8.5      2.677      6.282
REMARK  9 active torsions:
REMARK  status: ('A' for Active; 'I' for Inactive)
REMARK    1  A    between atoms: C_2  and  C_3 
REMARK    2  A    between atoms: C_3  and  C_4 
REMARK    3  A    between atoms: C_3  and  C_38 
REMARK    4  A    between atoms: C_6  and  C_7 
REMARK    5  A    between atoms: C_14  and  C_15 
REMARK    6  A    between atoms: C_18  and  C_19 
REMARK    7  A    between atoms: C_19  and  N_20 
REMARK       I    between atoms: N_20  and  C_21 
REMARK       I    between atoms: C_21  and  N_22 
REMARK    8  A    between atoms: N_22  and  C_23 
REMARK    9  A    between atoms: C_26  and  O_27 
ROOT
HETATM    1  C   UNL     1     -41.415  54.649 -55.476  1.00  0.00     0.068 C 
HETATM    2  C   UNL     1     -42.323  53.641 -54.717  1.00  0.00     0.001 C 
HETATM    3  C   UNL     1     -42.900  54.307 -53.444  1.00  0.00     0.040 C 
HETATM    4  C   UNL     1     -41.769  54.692 -52.470  1.00  0.00     0.206 C 
HETATM    5  N   UNL     1     -40.456  54.414 -53.195  1.00  0.00    -0.065 N 
HETATM    6  H   UNL     1     -39.690  54.776 -52.586  1.00  0.00     0.280 HD
HETATM    7  C   UNL     1     -40.324  55.161 -54.514  1.00  0.00     0.246 C 
HETATM    8  C   UNL     1     -41.444  52.450 -54.272  1.00  0.00     0.033 C 
HETATM    9  C   UNL     1     -40.276  52.934 -53.406  1.00  0.00     0.236 C 
ENDROOT
BRANCH   1  10
HETATM   10  C   UNL     1     -42.214  55.759 -56.125  1.00  0.00     0.045 A 
HETATM   11  N   UNL     1     -42.935  55.457 -57.224  1.00  0.00    -0.233 NA
HETATM   12  C   UNL     1     -43.578  56.477 -57.833  1.00  0.00     0.160 A 
HETATM   13  N   UNL     1     -43.502  57.760 -57.443  1.00  0.00    -0.233 NA
HETATM   14  C   UNL     1     -42.778  58.042 -56.342  1.00  0.00     0.043 A 
HETATM   15  C   UNL     1     -42.121  57.050 -55.637  1.00  0.00     0.055 A 
BRANCH  12  16
HETATM   16  C   UNL     1     -44.405  56.165 -59.007  1.00  0.00     0.014 A 
HETATM   17  C   UNL     1     -45.516  56.952 -59.345  1.00  0.00     0.034 A 
HETATM   18  C   UNL     1     -46.266  56.626 -60.463  1.00  0.00     0.117 A 
HETATM   19  N   UNL     1     -45.994  55.576 -61.264  1.00  0.00    -0.273 NA
HETATM   20  C   UNL     1     -44.941  54.808 -60.923  1.00  0.00     0.117 A 
HETATM   21  C   UNL     1     -44.129  55.062 -59.828  1.00  0.00     0.034 A 
ENDBRANCH  12  16
BRANCH  14  22
HETATM   22  C   UNL     1     -42.730  59.501 -55.922  1.00  0.00     0.037 C 
BRANCH  22  23
HETATM   23  C   UNL     1     -42.056  59.719 -54.548  1.00  0.00     0.006 C 
HETATM   24  C   UNL     1     -42.558  60.958 -53.817  1.00  0.00     0.006 C 
ENDBRANCH  22  23
BRANCH  22  25
HETATM   25  C   UNL     1     -44.138  60.133 -55.927  1.00  0.00     0.006 C 
HETATM   26  C   UNL     1     -44.321  61.192 -57.006  1.00  0.00     0.006 C 
ENDBRANCH  22  25
ENDBRANCH  14  22
ENDBRANCH   1  10
BRANCH   4  27
HETATM   27  C   UNL     1     -41.890  56.140 -51.924  1.00  0.00     0.157 C 
BRANCH  27  28
HETATM   28  N   UNL     1     -43.250  56.659 -51.765  1.00  0.00    -0.341 N 
HETATM   29  C   UNL     1     -43.512  57.982 -51.489  1.00  0.00     0.320 C 
HETATM   30  N   UNL     1     -44.829  58.305 -51.678  1.00  0.00    -0.309 N 
HETATM   31  O   UNL     1     -42.618  58.732 -51.110  1.00  0.00    -0.247 OA
HETATM   32  H   UNL     1     -45.467  57.549 -51.887  1.00  0.00     0.170 HD
HETATM   33  H   UNL     1     -43.948  56.204 -52.339  1.00  0.00     0.164 HD
BRANCH  30  34
HETATM   34  C   UNL     1     -45.409  59.592 -51.617  1.00  0.00     0.036 A 
HETATM   35  C   UNL     1     -45.905  60.278 -52.726  1.00  0.00     0.032 A 
HETATM   36  C   UNL     1     -46.509  61.530 -52.573  1.00  0.00     0.039 A 
HETATM   37  C   UNL     1     -46.641  62.110 -51.312  1.00  0.00     0.068 A 
HETATM   38  C   UNL     1     -46.125  61.444 -50.203  1.00  0.00     0.039 A 
HETATM   39  C   UNL     1     -45.510  60.194 -50.357  1.00  0.00     0.032 A 
BRANCH  37  40
HETATM   40  O   UNL     1     -47.272  63.321 -51.301  1.00  0.00    -0.356 OA
HETATM   41  C   UNL     1     -47.367  63.976 -50.041  1.00  0.00     0.210 C 
ENDBRANCH  37  40
ENDBRANCH  30  34
ENDBRANCH  27  28
ENDBRANCH   4  27
TORSDOF 9
ENDMDL
MODEL 5
REMARK VINA RESULT:      -8.4      3.444      9.393
REMARK  9 active torsions:
REMARK  status: ('A' for Active; 'I' for Inactive)
REMARK    1  A    between atoms: C_2  and  C_3 
REMARK    2  A    between atoms: C_3  and  C_4 
REMARK    3  A    between atoms: C_3  and  C_38 
REMARK    4  A    between atoms: C_6  and  C_7 
REMARK    5  A    between atoms: C_14  and  C_15 
REMARK    6  A    between atoms: C_18  and  C_19 
REMARK    7  A    between atoms: C_19  and  N_20 
REMARK       I    between atoms: N_20  and  C_21 
REMARK       I    between atoms: C_21  and  N_22 
REMARK    8  A    between atoms: N_22  and  C_23 
REMARK    9  A    between atoms: C_26  and  O_27 
ROOT
HETATM    1  C   UNL     1     -45.056  59.271 -53.226  1.00  0.00     0.068 C 
HETATM    2  C   UNL     1     -44.821  60.651 -52.548  1.00  0.00     0.001 C 
HETATM    3  C   UNL     1     -43.380  60.725 -51.989  1.00  0.00     0.040 C 
HETATM    4  C   UNL     1     -43.165  59.662 -50.894  1.00  0.00     0.206 C 
HETATM    5  N   UNL     1     -44.425  58.803 -50.868  1.00  0.00    -0.065 N 
HETATM    6  H   UNL     1     -44.242  58.014 -50.209  1.00  0.00     0.280 HD
HETATM    7  C   UNL     1     -44.744  58.156 -52.208  1.00  0.00     0.246 C 
HETATM    8  C   UNL     1     -45.800  60.768 -51.358  1.00  0.00     0.033 C 
HETATM    9  C   UNL     1     -45.599  59.608 -50.377  1.00  0.00     0.236 C 
ENDROOT
BRANCH   1  10
HETATM   10  C   UNL     1     -44.286  59.135 -54.522  1.00  0.00     0.045 A 
HETATM   11  N   UNL     1     -43.818  60.261 -55.099  1.00  0.00    -0.233 NA
HETATM   12  C   UNL     1     -43.202  60.126 -56.294  1.00  0.00     0.160 A 
HETATM   13  N   UNL     1     -43.074  58.962 -56.951  1.00  0.00    -0.233 NA
HETATM   14  C   UNL     1     -43.545  57.848 -56.358  1.00  0.00     0.043 A 
HETATM   15  C   UNL     1     -44.154  57.893 -55.118  1.00  0.00     0.055 A 
BRANCH  12  16
HETATM   16  C   UNL     1     -42.646  61.333 -56.920  1.00  0.00     0.014 A 
HETATM   17  C   UNL     1     -41.561  61.260 -57.806  1.00  0.00     0.034 A 
HETATM   18  C   UNL     1     -41.071  62.423 -58.379  1.00  0.00     0.117 A 
HETATM   19  N   UNL     1     -41.579  63.647 -58.133  1.00  0.00    -0.273 NA
HETATM   20  C   UNL     1     -42.605  63.716 -57.264  1.00  0.00     0.117 A 
HETATM   21  C   UNL     1     -43.166  62.608 -56.649  1.00  0.00     0.034 A 
ENDBRANCH  12  16
BRANCH  14  22
HETATM   22  C   UNL     1     -43.367  56.549 -57.126  1.00  0.00     0.037 C 
BRANCH  22  23
HETATM   23  C   UNL     1     -42.489  55.517 -56.382  1.00  0.00     0.006 C 
HETATM   24  C   UNL     1     -43.256  54.278 -55.936  1.00  0.00     0.006 C 
ENDBRANCH  22  23
BRANCH  22  25
HETATM   25  C   UNL     1     -42.798  56.806 -58.538  1.00  0.00     0.006 C 
HETATM   26  C   UNL     1     -43.093  55.680 -59.521  1.00  0.00     0.006 C 
ENDBRANCH  22  25
ENDBRANCH  14  22
ENDBRANCH   1  10
BRANCH   4  27
HETATM   27  C   UNL     1     -41.855  58.849 -51.071  1.00  0.00     0.157 C 
BRANCH  27  28
HETATM   28  N   UNL     1     -41.950  57.408 -50.823  1.00  0.00    -0.341 N 
HETATM   29  C   UNL     1     -41.460  56.470 -51.702  1.00  0.00     0.320 C 
HETATM   30  N   UNL     1     -41.383  55.221 -51.145  1.00  0.00    -0.309 N 
HETATM   31  O   UNL     1     -41.156  56.784 -52.848  1.00  0.00    -0.247 OA
HETATM   32  H   UNL     1     -41.777  55.099 -50.222  1.00  0.00     0.170 HD
HETATM   33  H   UNL     1     -41.893  57.142 -49.848  1.00  0.00     0.164 HD
BRANCH  30  34
HETATM   34  C   UNL     1     -40.806  54.066 -51.719  1.00  0.00     0.036 A 
HETATM   35  C   UNL     1     -39.931  53.214 -51.044  1.00  0.00     0.032 A 
HETATM   36  C   UNL     1     -39.441  52.062 -51.669  1.00  0.00     0.039 A 
HETATM   37  C   UNL     1     -39.828  51.735 -52.968  1.00  0.00     0.068 A 
HETATM   38  C   UNL     1     -40.681  52.593 -53.656  1.00  0.00     0.039 A 
HETATM   39  C   UNL     1     -41.164  53.753 -53.035  1.00  0.00     0.032 A 
BRANCH  37  40
HETATM   40  O   UNL     1     -39.299  50.571 -53.448  1.00  0.00    -0.356 OA
HETATM   41  C   UNL     1     -40.006  49.942 -54.510  1.00  0.00     0.210 C 
ENDBRANCH  37  40
ENDBRANCH  30  34
ENDBRANCH  27  28
ENDBRANCH   4  27
TORSDOF 9
ENDMDL
MODEL 6
REMARK VINA RESULT:      -8.4      4.495     10.183
REMARK  9 active torsions:
REMARK  status: ('A' for Active; 'I' for Inactive)
REMARK    1  A    between atoms: C_2  and  C_3 
REMARK    2  A    between atoms: C_3  and  C_4 
REMARK    3  A    between atoms: C_3  and  C_38 
REMARK    4  A    between atoms: C_6  and  C_7 
REMARK    5  A    between atoms: C_14  and  C_15 
REMARK    6  A    between atoms: C_18  and  C_19 
REMARK    7  A    between atoms: C_19  and  N_20 
REMARK       I    between atoms: N_20  and  C_21 
REMARK       I    between atoms: C_21  and  N_22 
REMARK    8  A    between atoms: N_22  and  C_23 
REMARK    9  A    between atoms: C_26  and  O_27 
ROOT
HETATM    1  C   UNL     1     -44.254  61.409 -56.015  1.00  0.00     0.068 C 
HETATM    2  C   UNL     1     -43.382  61.125 -54.759  1.00  0.00     0.001 C 
HETATM    3  C   UNL     1     -43.377  59.608 -54.453  1.00  0.00     0.040 C 
HETATM    4  C   UNL     1     -44.797  59.115 -54.115  1.00  0.00     0.206 C 
HETATM    5  N   UNL     1     -45.737  60.291 -54.363  1.00  0.00    -0.065 N 
HETATM    6  H   UNL     1     -46.710  59.932 -54.245  1.00  0.00     0.280 HD
HETATM    7  C   UNL     1     -45.665  60.833 -55.783  1.00  0.00     0.246 C 
HETATM    8  C   UNL     1     -44.030  61.850 -53.557  1.00  0.00     0.033 C 
HETATM    9  C   UNL     1     -45.478  61.388 -53.365  1.00  0.00     0.236 C 
ENDROOT
BRANCH   1  10
HETATM   10  C   UNL     1     -43.601  60.907 -57.285  1.00  0.00     0.045 A 
HETATM   11  N   UNL     1     -42.655  61.680 -57.855  1.00  0.00    -0.233 NA
HETATM   12  C   UNL     1     -42.141  61.253 -59.030  1.00  0.00     0.160 A 
HETATM   13  N   UNL     1     -42.547  60.148 -59.675  1.00  0.00    -0.233 NA
HETATM   14  C   UNL     1     -43.493  59.387 -59.090  1.00  0.00     0.043 A 
HETATM   15  C   UNL     1     -44.042  59.732 -57.869  1.00  0.00     0.055 A 
BRANCH  12  16
HETATM   16  C   UNL     1     -41.076  62.056 -59.647  1.00  0.00     0.014 A 
HETATM   17  C   UNL     1     -40.132  62.737 -58.865  1.00  0.00     0.034 A 
HETATM   18  C   UNL     1     -39.141  63.479 -59.487  1.00  0.00     0.117 A 
HETATM   19  N   UNL     1     -39.024  63.594 -60.825  1.00  0.00    -0.273 NA
HETATM   20  C   UNL     1     -39.947  62.959 -61.572  1.00  0.00     0.117 A 
HETATM   21  C   UNL     1     -40.968  62.188 -61.039  1.00  0.00     0.034 A 
ENDBRANCH  12  16
BRANCH  14  22
HETATM   22  C   UNL     1     -43.914  58.137 -59.843  1.00  0.00     0.037 C 
BRANCH  22  23
HETATM   23  C   UNL     1     -44.951  57.284 -59.078  1.00  0.00     0.006 C 
HETATM   24  C   UNL     1     -46.319  57.248 -59.748  1.00  0.00     0.006 C 
ENDBRANCH  22  23
BRANCH  22  25
HETATM   25  C   UNL     1     -42.692  57.271 -60.219  1.00  0.00     0.006 C 
HETATM   26  C   UNL     1     -42.744  55.867 -59.629  1.00  0.00     0.006 C 
ENDBRANCH  22  25
ENDBRANCH  14  22
ENDBRANCH   1  10
BRANCH   4  27
HETATM   27  C   UNL     1     -45.199  57.821 -54.873  1.00  0.00     0.157 C 
BRANCH  27  28
HETATM   28  N   UNL     1     -44.920  56.557 -54.187  1.00  0.00    -0.341 N 
HETATM   29  C   UNL     1     -43.775  55.828 -54.410  1.00  0.00     0.320 C 
HETATM   30  N   UNL     1     -43.578  54.859 -53.463  1.00  0.00    -0.309 N 
HETATM   31  O   UNL     1     -43.060  56.067 -55.378  1.00  0.00    -0.247 OA
HETATM   32  H   UNL     1     -44.316  54.714 -52.788  1.00  0.00     0.170 HD
HETATM   33  H   UNL     1     -45.276  56.501 -53.241  1.00  0.00     0.164 HD
BRANCH  30  34
HETATM   34  C   UNL     1     -42.445  54.029 -53.316  1.00  0.00     0.036 A 
HETATM   35  C   UNL     1     -41.731  53.887 -52.126  1.00  0.00     0.032 A 
HETATM   36  C   UNL     1     -40.647  53.004 -52.050  1.00  0.00     0.039 A 
HETATM   37  C   UNL     1     -40.270  52.240 -53.153  1.00  0.00     0.068 A 
HETATM   38  C   UNL     1     -40.962  52.395 -54.352  1.00  0.00     0.039 A 
HETATM   39  C   UNL     1     -42.041  53.286 -54.432  1.00  0.00     0.032 A 
BRANCH  37  40
HETATM   40  O   UNL     1     -39.215  51.402 -52.936  1.00  0.00    -0.356 OA
HETATM   41  C   UNL     1     -39.453  50.014 -53.144  1.00  0.00     0.210 C 
ENDBRANCH  37  40
ENDBRANCH  30  34
ENDBRANCH  27  28
ENDBRANCH   4  27
TORSDOF 9
ENDMDL
MODEL 7
REMARK VINA RESULT:      -8.3      4.364      9.546
REMARK  9 active torsions:
REMARK  status: ('A' for Active; 'I' for Inactive)
REMARK    1  A    between atoms: C_2  and  C_3 
REMARK    2  A    between atoms: C_3  and  C_4 
REMARK    3  A    between atoms: C_3  and  C_38 
REMARK    4  A    between atoms: C_6  and  C_7 
REMARK    5  A    between atoms: C_14  and  C_15 
REMARK    6  A    between atoms: C_18  and  C_19 
REMARK    7  A    between atoms: C_19  and  N_20 
REMARK       I    between atoms: N_20  and  C_21 
REMARK       I    between atoms: C_21  and  N_22 
REMARK    8  A    between atoms: N_22  and  C_23 
REMARK    9  A    between atoms: C_26  and  O_27 
ROOT
HETATM    1  C   UNL     1     -44.506  61.149 -56.699  1.00  0.00     0.068 C 
HETATM    2  C   UNL     1     -43.496  60.961 -55.532  1.00  0.00     0.001 C 
HETATM    3  C   UNL     1     -43.454  59.474 -55.106  1.00  0.00     0.040 C 
HETATM    4  C   UNL     1     -44.825  59.022 -54.568  1.00  0.00     0.206 C 
HETATM    5  N   UNL     1     -45.789  60.181 -54.802  1.00  0.00    -0.065 N 
HETATM    6  H   UNL     1     -46.741  59.841 -54.544  1.00  0.00     0.280 HD
HETATM    7  C   UNL     1     -45.881  60.605 -56.261  1.00  0.00     0.246 C 
HETATM    8  C   UNL     1     -44.003  61.787 -54.328  1.00  0.00     0.033 C 
HETATM    9  C   UNL     1     -45.419  61.354 -53.933  1.00  0.00     0.236 C 
ENDROOT
BRANCH   1  10
HETATM   10  C   UNL     1     -44.003  60.540 -57.990  1.00  0.00     0.045 A 
HETATM   11  N   UNL     1     -44.416  59.295 -58.304  1.00  0.00    -0.233 NA
HETATM   12  C   UNL     1     -43.895  58.740 -59.420  1.00  0.00     0.160 A 
HETATM   13  N   UNL     1     -42.969  59.326 -60.194  1.00  0.00    -0.233 NA
HETATM   14  C   UNL     1     -42.569  60.571 -59.866  1.00  0.00     0.043 A 
HETATM   15  C   UNL     1     -43.082  61.226 -58.762  1.00  0.00     0.055 A 
BRANCH  12  16
HETATM   16  C   UNL     1     -44.364  57.401 -59.805  1.00  0.00     0.014 A 
HETATM   17  C   UNL     1     -43.514  56.287 -59.747  1.00  0.00     0.034 A 
HETATM   18  C   UNL     1     -43.999  55.042 -60.113  1.00  0.00     0.117 A 
HETATM   19  N   UNL     1     -45.261  54.827 -60.534  1.00  0.00    -0.273 NA
HETATM   20  C   UNL     1     -46.068  55.903 -60.611  1.00  0.00     0.117 A 
HETATM   21  C   UNL     1     -45.674  57.184 -60.259  1.00  0.00     0.034 A 
ENDBRANCH  12  16
BRANCH  14  22
HETATM   22  C   UNL     1     -41.532  61.207 -60.776  1.00  0.00     0.037 C 
BRANCH  22  23
HETATM   23  C   UNL     1     -41.158  62.648 -60.360  1.00  0.00     0.006 C 
HETATM   24  C   UNL     1     -39.771  62.759 -59.739  1.00  0.00     0.006 C 
ENDBRANCH  22  23
BRANCH  22  25
HETATM   25  C   UNL     1     -41.990  61.185 -62.250  1.00  0.00     0.006 C 
HETATM   26  C   UNL     1     -41.808  62.522 -62.958  1.00  0.00     0.006 C 
ENDBRANCH  22  25
ENDBRANCH  14  22
ENDBRANCH   1  10
BRANCH   4  27
HETATM   27  C   UNL     1     -45.309  57.674 -55.167  1.00  0.00     0.157 C 
BRANCH  27  28
HETATM   28  N   UNL     1     -45.046  56.478 -54.362  1.00  0.00    -0.341 N 
HETATM   29  C   UNL     1     -43.823  55.847 -54.349  1.00  0.00     0.320 C 
HETATM   30  N   UNL     1     -43.708  54.950 -53.320  1.00  0.00    -0.309 N 
HETATM   31  O   UNL     1     -42.978  56.100 -55.201  1.00  0.00    -0.247 OA
HETATM   32  H   UNL     1     -44.534  54.773 -52.765  1.00  0.00     0.170 HD
HETATM   33  H   UNL     1     -45.549  56.438 -53.485  1.00  0.00     0.164 HD
BRANCH  30  34
HETATM   34  C   UNL     1     -42.551  54.237 -52.937  1.00  0.00     0.036 A 
HETATM   35  C   UNL     1     -42.033  54.228 -51.641  1.00  0.00     0.032 A 
HETATM   36  C   UNL     1     -40.909  53.454 -51.333  1.00  0.00     0.039 A 
HETATM   37  C   UNL     1     -40.295  52.667 -52.306  1.00  0.00     0.068 A 
HETATM   38  C   UNL     1     -40.790  52.690 -53.607  1.00  0.00     0.039 A 
HETATM   39  C   UNL     1     -41.910  53.473 -53.920  1.00  0.00     0.032 A 
BRANCH  37  40
HETATM   40  O   UNL     1     -39.225  51.942 -51.865  1.00  0.00    -0.356 OA
HETATM   41  C   UNL     1     -39.440  50.549 -51.668  1.00  0.00     0.210 C 
ENDBRANCH  37  40
ENDBRANCH  30  34
ENDBRANCH  27  28
ENDBRANCH   4  27
TORSDOF 9
ENDMDL
MODEL 8
REMARK VINA RESULT:      -8.3      3.145      8.618
REMARK  9 active torsions:
REMARK  status: ('A' for Active; 'I' for Inactive)
REMARK    1  A    between atoms: C_2  and  C_3 
REMARK    2  A    between atoms: C_3  and  C_4 
REMARK    3  A    between atoms: C_3  and  C_38 
REMARK    4  A    between atoms: C_6  and  C_7 
REMARK    5  A    between atoms: C_14  and  C_15 
REMARK    6  A    between atoms: C_18  and  C_19 
REMARK    7  A    between atoms: C_19  and  N_20 
REMARK       I    between atoms: N_20  and  C_21 
REMARK       I    between atoms: C_21  and  N_22 
REMARK    8  A    between atoms: N_22  and  C_23 
REMARK    9  A    between atoms: C_26  and  O_27 
ROOT
HETATM    1  C   UNL     1     -44.499  61.211 -53.461  1.00  0.00     0.068 C 
HETATM    2  C   UNL     1     -43.292  61.655 -52.588  1.00  0.00     0.001 C 
HETATM    3  C   UNL     1     -42.654  60.423 -51.904  1.00  0.00     0.040 C 
HETATM    4  C   UNL     1     -43.657  59.750 -50.947  1.00  0.00     0.206 C 
HETATM    5  N   UNL     1     -44.991  60.464 -51.142  1.00  0.00    -0.065 N 
HETATM    6  H   UNL     1     -45.700  59.942 -50.581  1.00  0.00     0.280 HD
HETATM    7  C   UNL     1     -45.491  60.427 -52.579  1.00  0.00     0.246 C 
HETATM    8  C   UNL     1     -43.826  62.591 -51.480  1.00  0.00     0.033 C 
HETATM    9  C   UNL     1     -44.903  61.884 -50.649  1.00  0.00     0.236 C 
ENDROOT
BRANCH   1  10
HETATM   10  C   UNL     1     -44.060  60.449 -54.694  1.00  0.00     0.045 A 
HETATM   11  N   UNL     1     -43.966  59.107 -54.605  1.00  0.00    -0.233 NA
HETATM   12  C   UNL     1     -43.497  58.453 -55.691  1.00  0.00     0.160 A 
HETATM   13  N   UNL     1     -43.082  59.057 -56.816  1.00  0.00    -0.233 NA
HETATM   14  C   UNL     1     -43.186  60.398 -56.887  1.00  0.00     0.043 A 
HETATM   15  C   UNL     1     -43.691  61.140 -55.835  1.00  0.00     0.055 A 
BRANCH  12  16
HETATM   16  C   UNL     1     -43.427  56.986 -55.633  1.00  0.00     0.014 A 
HETATM   17  C   UNL     1     -42.890  56.240 -56.692  1.00  0.00     0.034 A 
HETATM   18  C   UNL     1     -42.837  54.859 -56.594  1.00  0.00     0.117 A 
HETATM   19  N   UNL     1     -43.282  54.171 -55.524  1.00  0.00    -0.273 NA
HETATM   20  C   UNL     1     -43.819  54.888 -54.519  1.00  0.00     0.117 A 
HETATM   21  C   UNL     1     -43.906  56.272 -54.525  1.00  0.00     0.034 A 
ENDBRANCH  12  16
BRANCH  14  22
HETATM   22  C   UNL     1     -42.721  61.043 -58.182  1.00  0.00     0.037 C 
BRANCH  22  23
HETATM   23  C   UNL     1     -43.361  60.413 -59.440  1.00  0.00     0.006 C 
HETATM   24  C   UNL     1     -42.348  59.764 -60.375  1.00  0.00     0.006 C 
ENDBRANCH  22  23
BRANCH  22  25
HETATM   25  C   UNL     1     -41.182  61.014 -58.301  1.00  0.00     0.006 C 
HETATM   26  C   UNL     1     -40.563  62.398 -58.456  1.00  0.00     0.006 C 
ENDBRANCH  22  25
ENDBRANCH  14  22
ENDBRANCH   1  10
BRANCH   4  27
HETATM   27  C   UNL     1     -43.739  58.210 -51.119  1.00  0.00     0.157 C 
BRANCH  27  28
HETATM   28  N   UNL     1     -42.469  57.483 -51.045  1.00  0.00    -0.341 N 
HETATM   29  C   UNL     1     -42.383  56.120 -51.218  1.00  0.00     0.320 C 
HETATM   30  N   UNL     1     -41.094  55.697 -51.406  1.00  0.00    -0.309 N 
HETATM   31  O   UNL     1     -43.390  55.420 -51.185  1.00  0.00    -0.247 OA
HETATM   32  H   UNL     1     -40.360  56.383 -51.296  1.00  0.00     0.170 HD
HETATM   33  H   UNL     1     -41.665  58.000 -51.375  1.00  0.00     0.164 HD
BRANCH  30  34
HETATM   34  C   UNL     1     -40.666  54.394 -51.744  1.00  0.00     0.036 A 
HETATM   35  C   UNL     1     -40.306  53.424 -50.808  1.00  0.00     0.032 A 
HETATM   36  C   UNL     1     -39.940  52.139 -51.224  1.00  0.00     0.039 A 
HETATM   37  C   UNL     1     -39.942  51.799 -52.576  1.00  0.00     0.068 A 
HETATM   38  C   UNL     1     -40.276  52.768 -53.517  1.00  0.00     0.039 A 
HETATM   39  C   UNL     1     -40.633  54.059 -53.103  1.00  0.00     0.032 A 
BRANCH  37  40
HETATM   40  O   UNL     1     -39.591  50.506 -52.842  1.00  0.00    -0.356 OA
HETATM   41  C   UNL     1     -39.642  50.102 -54.205  1.00  0.00     0.210 C 
ENDBRANCH  37  40
ENDBRANCH  30  34
ENDBRANCH  27  28
ENDBRANCH   4  27
TORSDOF 9
ENDMDL
MODEL 9
REMARK VINA RESULT:      -8.2      1.912      4.467
REMARK  9 active torsions:
REMARK  status: ('A' for Active; 'I' for Inactive)
REMARK    1  A    between atoms: C_2  and  C_3 
REMARK    2  A    between atoms: C_3  and  C_4 
REMARK    3  A    between atoms: C_3  and  C_38 
REMARK    4  A    between atoms: C_6  and  C_7 
REMARK    5  A    between atoms: C_14  and  C_15 
REMARK    6  A    between atoms: C_18  and  C_19 
REMARK    7  A    between atoms: C_19  and  N_20 
REMARK       I    between atoms: N_20  and  C_21 
REMARK       I    between atoms: C_21  and  N_22 
REMARK    8  A    between atoms: N_22  and  C_23 
REMARK    9  A    between atoms: C_26  and  O_27 
ROOT
HETATM    1  C   UNL     1     -42.360  55.898 -56.771  1.00  0.00     0.068 C 
HETATM    2  C   UNL     1     -42.018  57.369 -57.144  1.00  0.00     0.001 C 
HETATM    3  C   UNL     1     -42.915  58.339 -56.339  1.00  0.00     0.040 C 
HETATM    4  C   UNL     1     -44.400  58.134 -56.700  1.00  0.00     0.206 C 
HETATM    5  N   UNL     1     -44.461  56.919 -57.620  1.00  0.00    -0.065 N 
HETATM    6  H   UNL     1     -45.471  56.708 -57.777  1.00  0.00     0.280 HD
HETATM    7  C   UNL     1     -43.866  55.662 -57.002  1.00  0.00     0.246 C 
HETATM    8  C   UNL     1     -42.333  57.563 -58.644  1.00  0.00     0.033 C 
HETATM    9  C   UNL     1     -43.798  57.225 -58.938  1.00  0.00     0.236 C 
ENDROOT
BRANCH   1  10
HETATM   10  C   UNL     1     -41.904  55.546 -55.371  1.00  0.00     0.045 A 
HETATM   11  N   UNL     1     -41.730  56.553 -54.492  1.00  0.00    -0.233 NA
HETATM   12  C   UNL     1     -41.248  56.226 -53.273  1.00  0.00     0.160 A 
HETATM   13  N   UNL     1     -40.893  54.984 -52.909  1.00  0.00    -0.233 NA
HETATM   14  C   UNL     1     -41.075  53.989 -53.800  1.00  0.00     0.043 A 
HETATM   15  C   UNL     1     -41.600  54.233 -55.056  1.00  0.00     0.055 A 
BRANCH  12  16
HETATM   16  C   UNL     1     -41.092  57.302 -52.284  1.00  0.00     0.014 A 
HETATM   17  C   UNL     1     -40.677  58.587 -52.665  1.00  0.00     0.034 A 
HETATM   18  C   UNL     1     -40.548  59.574 -51.702  1.00  0.00     0.117 A 
HETATM   19  N   UNL     1     -40.799  59.376 -50.393  1.00  0.00    -0.273 NA
HETATM   20  C   UNL     1     -41.175  58.135 -50.027  1.00  0.00     0.117 A 
HETATM   21  C   UNL     1     -41.338  57.088 -50.920  1.00  0.00     0.034 A 
ENDBRANCH  12  16
BRANCH  14  22
HETATM   22  C   UNL     1     -40.676  52.596 -53.345  1.00  0.00     0.037 C 
BRANCH  22  23
HETATM   23  C   UNL     1     -39.680  52.602 -52.163  1.00  0.00     0.006 C 
HETATM   24  C   UNL     1     -40.189  51.852 -50.938  1.00  0.00     0.006 C 
ENDBRANCH  22  23
BRANCH  22  25
HETATM   25  C   UNL     1     -40.103  51.767 -54.515  1.00  0.00     0.006 C 
HETATM   26  C   UNL     1     -40.165  50.264 -54.276  1.00  0.00     0.006 C 
ENDBRANCH  22  25
ENDBRANCH  14  22
ENDBRANCH   1  10
BRANCH   4  27
HETATM   27  C   UNL     1     -45.328  58.029 -55.460  1.00  0.00     0.157 C 
BRANCH  27  28
HETATM   28  N   UNL     1     -44.683  58.186 -54.154  1.00  0.00    -0.341 N 
HETATM   29  C   UNL     1     -44.851  59.306 -53.373  1.00  0.00     0.320 C 
HETATM   30  N   UNL     1     -44.414  59.119 -52.089  1.00  0.00    -0.309 N 
HETATM   31  O   UNL     1     -45.337  60.330 -53.843  1.00  0.00    -0.247 OA
HETATM   32  H   UNL     1     -43.935  58.253 -51.883  1.00  0.00     0.170 HD
HETATM   33  H   UNL     1     -44.563  57.326 -53.635  1.00  0.00     0.164 HD
BRANCH  30  34
HETATM   34  C   UNL     1     -44.559  60.009 -51.001  1.00  0.00     0.036 A 
HETATM   35  C   UNL     1     -45.488  59.840 -49.974  1.00  0.00     0.032 A 
HETATM   36  C   UNL     1     -45.534  60.742 -48.905  1.00  0.00     0.039 A 
HETATM   37  C   UNL     1     -44.647  61.814 -48.837  1.00  0.00     0.068 A 
HETATM   38  C   UNL     1     -43.734  62.005 -49.871  1.00  0.00     0.039 A 
HETATM   39  C   UNL     1     -43.693  61.108 -50.947  1.00  0.00     0.032 A 
BRANCH  37  40
HETATM   40  O   UNL     1     -44.782  62.601 -47.729  1.00  0.00    -0.356 OA
HETATM   41  C   UNL     1     -45.176  61.946 -46.529  1.00  0.00     0.210 C 
ENDBRANCH  37  40
ENDBRANCH  30  34
ENDBRANCH  27  28
ENDBRANCH   4  27
TORSDOF 9
ENDMDL
MODEL 10
REMARK VINA RESULT:      -8.2      4.505      8.141
REMARK  9 active torsions:
REMARK  status: ('A' for Active; 'I' for Inactive)
REMARK    1  A    between atoms: C_2  and  C_3 
REMARK    2  A    between atoms: C_3  and  C_4 
REMARK    3  A    between atoms: C_3  and  C_38 
REMARK    4  A    between atoms: C_6  and  C_7 
REMARK    5  A    between atoms: C_14  and  C_15 
REMARK    6  A    between atoms: C_18  and  C_19 
REMARK    7  A    between atoms: C_19  and  N_20 
REMARK       I    between atoms: N_20  and  C_21 
REMARK       I    between atoms: C_21  and  N_22 
REMARK    8  A    between atoms: N_22  and  C_23 
REMARK    9  A    between atoms: C_26  and  O_27 
ROOT
HETATM    1  C   UNL     1     -41.775  58.202 -52.864  1.00  0.00     0.068 C 
HETATM    2  C   UNL     1     -43.167  58.400 -52.199  1.00  0.00     0.001 C 
HETATM    3  C   UNL     1     -44.194  58.868 -53.258  1.00  0.00     0.040 C 
HETATM    4  C   UNL     1     -43.793  60.237 -53.840  1.00  0.00     0.206 C 
HETATM    5  N   UNL     1     -42.419  60.569 -53.265  1.00  0.00    -0.065 N 
HETATM    6  H   UNL     1     -42.093  61.439 -53.742  1.00  0.00     0.280 HD
HETATM    7  C   UNL     1     -41.366  59.513 -53.567  1.00  0.00     0.246 C 
HETATM    8  C   UNL     1     -43.033  59.519 -51.141  1.00  0.00     0.033 C 
HETATM    9  C   UNL     1     -42.516  60.811 -51.782  1.00  0.00     0.236 C 
ENDROOT
BRANCH   1  10
HETATM   10  C   UNL     1     -41.747  56.996 -53.778  1.00  0.00     0.045 A 
HETATM   11  N   UNL     1     -41.231  55.849 -53.292  1.00  0.00    -0.233 NA
HETATM   12  C   UNL     1     -41.143  54.807 -54.147  1.00  0.00     0.160 A 
HETATM   13  N   UNL     1     -41.488  54.861 -55.443  1.00  0.00    -0.233 NA
HETATM   14  C   UNL     1     -42.003  56.015 -55.910  1.00  0.00     0.043 A 
HETATM   15  C   UNL     1     -42.163  57.117 -55.092  1.00  0.00     0.055 A 
BRANCH  12  16
HETATM   16  C   UNL     1     -40.625  53.533 -53.627  1.00  0.00     0.014 A 
HETATM   17  C   UNL     1     -40.382  52.444 -54.478  1.00  0.00     0.034 A 
HETATM   18  C   UNL     1     -39.887  51.264 -53.947  1.00  0.00     0.117 A 
HETATM   19  N   UNL     1     -39.622  51.088 -52.638  1.00  0.00    -0.273 NA
HETATM   20  C   UNL     1     -39.879  52.127 -51.820  1.00  0.00     0.117 A 
HETATM   21  C   UNL     1     -40.366  53.348 -52.261  1.00  0.00     0.034 A 
ENDBRANCH  12  16
BRANCH  14  22
HETATM   22  C   UNL     1     -42.396  56.032 -57.378  1.00  0.00     0.037 C 
BRANCH  22  23
HETATM   23  C   UNL     1     -42.823  57.431 -57.879  1.00  0.00     0.006 C 
HETATM   24  C   UNL     1     -41.945  57.967 -59.002  1.00  0.00     0.006 C 
ENDBRANCH  22  23
BRANCH  22  25
HETATM   25  C   UNL     1     -43.509  55.003 -57.672  1.00  0.00     0.006 C 
HETATM   26  C   UNL     1     -43.936  54.978 -59.135  1.00  0.00     0.006 C 
ENDBRANCH  22  25
ENDBRANCH  14  22
ENDBRANCH   1  10
BRANCH   4  27
HETATM   27  C   UNL     1     -43.853  60.291 -55.390  1.00  0.00     0.157 C 
BRANCH  27  28
HETATM   28  N   UNL     1     -43.339  61.512 -56.015  1.00  0.00    -0.341 N 
HETATM   29  C   UNL     1     -42.250  61.514 -56.856  1.00  0.00     0.320 C 
HETATM   30  N   UNL     1     -42.128  62.686 -57.553  1.00  0.00    -0.309 N 
HETATM   31  O   UNL     1     -41.504  60.541 -56.916  1.00  0.00    -0.247 OA
HETATM   32  H   UNL     1     -42.760  63.437 -57.311  1.00  0.00     0.170 HD
HETATM   33  H   UNL     1     -44.045  62.202 -56.240  1.00  0.00     0.164 HD
BRANCH  30  34
HETATM   34  C   UNL     1     -41.211  62.971 -58.589  1.00  0.00     0.036 A 
HETATM   35  C   UNL     1     -40.081  63.774 -58.431  1.00  0.00     0.032 A 
HETATM   36  C   UNL     1     -39.194  63.966 -59.496  1.00  0.00     0.039 A 
HETATM   37  C   UNL     1     -39.412  63.349 -60.727  1.00  0.00     0.068 A 
HETATM   38  C   UNL     1     -40.551  62.566 -60.900  1.00  0.00     0.039 A 
HETATM   39  C   UNL     1     -41.445  62.381 -59.837  1.00  0.00     0.032 A 
BRANCH  37  40
HETATM   40  O   UNL     1     -38.457  63.598 -61.671  1.00  0.00    -0.356 OA
HETATM   41  C   UNL     1     -38.842  63.415 -63.028  1.00  0.00     0.210 C 
ENDBRANCH  37  40
ENDBRANCH  30  34
ENDBRANCH  27  28
ENDBRANCH   4  27
TORSDOF 9
ENDMDL
