MODEL 1
REMARK VINA RESULT:      -7.9      0.000      0.000
REMARK  6 active torsions:
REMARK  status: ('A' for Active; 'I' for Inactive)
REMARK    1  A    between atoms: C_2  and  O_3 
REMARK    2  A    between atoms: O_3  and  C_4 
REMARK    3  A    between atoms: C_8  and  C_9 
REMARK    4  A    between atoms: C_9  and  N_10 
REMARK       I    between atoms: N_10  and  C_11 
REMARK       I    between atoms: C_11  and  N_12 
REMARK    5  A    between atoms: N_12  and  C_13 
REMARK    6  A    between atoms: C_14  and  C_15 
ROOT
HETATM    1  N   UNL     1     -43.517  55.230 -52.597  1.00  0.00    -0.339 N 
HETATM    2  C   UNL     1     -42.538  55.169 -51.638  1.00  0.00     0.316 C 
HETATM    3  N   UNL     1     -42.195  53.867 -51.346  1.00  0.00    -0.338 N 
HETATM    4  O   UNL     1     -42.033  56.150 -51.108  1.00  0.00    -0.247 OA
HETATM    5  H   UNL     1     -43.563  54.454 -53.239  1.00  0.00     0.164 HD
HETATM    6  H   UNL     1     -42.949  53.199 -51.449  1.00  0.00     0.164 HD
ENDROOT
BRANCH   1   7
HETATM    7  C   UNL     1     -44.036  56.499 -53.057  1.00  0.00     0.163 C 
BRANCH   7   8
HETATM    8  C   UNL     1     -43.406  56.950 -54.347  1.00  0.00    -0.035 A 
HETATM    9  C   UNL     1     -42.860  58.230 -54.476  1.00  0.00     0.028 A 
HETATM   10  C   UNL     1     -42.328  58.609 -55.697  1.00  0.00     0.120 A 
HETATM   11  N   UNL     1     -42.314  57.818 -56.790  1.00  0.00    -0.237 NA
HETATM   12  C   UNL     1     -42.857  56.595 -56.658  1.00  0.00     0.165 A 
HETATM   13  C   UNL     1     -43.386  56.113 -55.468  1.00  0.00     0.066 A 
BRANCH  12  14
HETATM   14  O   UNL     1     -42.878  55.723 -57.723  1.00  0.00    -0.324 OA
BRANCH  14  15
HETATM   15  C   UNL     1     -43.505  56.132 -58.953  1.00  0.00     0.058 C 
HETATM   16  C   UNL     1     -42.492  56.614 -60.002  1.00  0.00     0.045 C 
HETATM   17  C   UNL     1     -44.642  57.144 -58.737  1.00  0.00     0.045 C 
HETATM   18  C   UNL     1     -44.140  54.832 -59.488  1.00  0.00     0.045 C 
ENDBRANCH  14  15
ENDBRANCH  12  14
ENDBRANCH   7   8
ENDBRANCH   1   7
BRANCH   3  19
HETATM   19  C   UNL     1     -41.204  53.573 -50.351  1.00  0.00     0.095 A 
HETATM   20  C   UNL     1     -40.112  52.542 -50.539  1.00  0.00     0.043 A 
HETATM   21  C   UNL     1     -39.784  54.017 -50.545  1.00  0.00     0.037 A 
BRANCH  20  22
HETATM   22  C   UNL     1     -39.959  51.734 -51.807  1.00  0.00    -0.052 A 
HETATM   23  C   UNL     1     -39.728  50.349 -51.764  1.00  0.00     0.007 A 
HETATM   24  C   UNL     1     -39.623  49.587 -52.931  1.00  0.00     0.001 A 
HETATM   25  C   UNL     1     -39.750  50.200 -54.174  1.00  0.00     0.000 A 
HETATM   26  C   UNL     1     -39.992  51.568 -54.247  1.00  0.00     0.001 A 
HETATM   27  C   UNL     1     -40.103  52.322 -53.075  1.00  0.00     0.007 A 
ENDBRANCH  20  22
ENDBRANCH   3  19
TORSDOF 6
ENDMDL
MODEL 2
REMARK VINA RESULT:      -7.7      2.541      5.290
REMARK  6 active torsions:
REMARK  status: ('A' for Active; 'I' for Inactive)
REMARK    1  A    between atoms: C_2  and  O_3 
REMARK    2  A    between atoms: O_3  and  C_4 
REMARK    3  A    between atoms: C_8  and  C_9 
REMARK    4  A    between atoms: C_9  and  N_10 
REMARK       I    between atoms: N_10  and  C_11 
REMARK       I    between atoms: C_11  and  N_12 
REMARK    5  A    between atoms: N_12  and  C_13 
REMARK    6  A    between atoms: C_14  and  C_15 
ROOT
HETATM    1  N   UNL     1     -42.476  54.218 -54.919  1.00  0.00    -0.339 N 
HETATM    2  C   UNL     1     -41.240  53.623 -54.970  1.00  0.00     0.316 C 
HETATM    3  N   UNL     1     -41.252  52.379 -54.380  1.00  0.00    -0.338 N 
HETATM    4  O   UNL     1     -40.252  54.136 -55.477  1.00  0.00    -0.247 OA
HETATM    5  H   UNL     1     -43.268  53.596 -54.876  1.00  0.00     0.164 HD
HETATM    6  H   UNL     1     -41.913  52.278 -53.620  1.00  0.00     0.164 HD
ENDROOT
BRANCH   1   7
HETATM    7  C   UNL     1     -42.697  55.534 -55.475  1.00  0.00     0.163 C 
BRANCH   7   8
HETATM    8  C   UNL     1     -42.970  56.571 -54.420  1.00  0.00    -0.035 A 
HETATM    9  C   UNL     1     -44.273  56.837 -53.988  1.00  0.00     0.028 A 
HETATM   10  C   UNL     1     -44.473  57.829 -53.043  1.00  0.00     0.120 A 
HETATM   11  N   UNL     1     -43.482  58.577 -52.514  1.00  0.00    -0.237 NA
HETATM   12  C   UNL     1     -42.236  58.322 -52.949  1.00  0.00     0.165 A 
HETATM   13  C   UNL     1     -41.930  57.328 -53.869  1.00  0.00     0.066 A 
BRANCH  12  14
HETATM   14  O   UNL     1     -41.166  59.035 -52.456  1.00  0.00    -0.324 OA
BRANCH  14  15
HETATM   15  C   UNL     1     -40.845  58.940 -51.055  1.00  0.00     0.058 C 
HETATM   16  C   UNL     1     -41.057  57.526 -50.493  1.00  0.00     0.045 C 
HETATM   17  C   UNL     1     -41.548  60.011 -50.206  1.00  0.00     0.045 C 
HETATM   18  C   UNL     1     -39.332  59.233 -51.008  1.00  0.00     0.045 C 
ENDBRANCH  14  15
ENDBRANCH  12  14
ENDBRANCH   7   8
ENDBRANCH   1   7
BRANCH   3  19
HETATM   19  C   UNL     1     -40.055  51.590 -54.303  1.00  0.00     0.095 A 
HETATM   20  C   UNL     1     -39.282  51.368 -53.020  1.00  0.00     0.043 A 
HETATM   21  C   UNL     1     -40.078  50.244 -53.642  1.00  0.00     0.037 A 
BRANCH  20  22
HETATM   22  C   UNL     1     -39.715  51.949 -51.694  1.00  0.00    -0.052 A 
HETATM   23  C   UNL     1     -39.765  53.338 -51.490  1.00  0.00     0.007 A 
HETATM   24  C   UNL     1     -40.199  53.885 -50.280  1.00  0.00     0.001 A 
HETATM   25  C   UNL     1     -40.599  53.048 -49.242  1.00  0.00     0.000 A 
HETATM   26  C   UNL     1     -40.573  51.668 -49.421  1.00  0.00     0.001 A 
HETATM   27  C   UNL     1     -40.144  51.128 -50.637  1.00  0.00     0.007 A 
ENDBRANCH  20  22
ENDBRANCH   3  19
TORSDOF 6
ENDMDL
MODEL 3
REMARK VINA RESULT:      -7.6      1.707      2.380
REMARK  6 active torsions:
REMARK  status: ('A' for Active; 'I' for Inactive)
REMARK    1  A    between atoms: C_2  and  O_3 
REMARK    2  A    between atoms: O_3  and  C_4 
REMARK    3  A    between atoms: C_8  and  C_9 
REMARK    4  A    between atoms: C_9  and  N_10 
REMARK       I    between atoms: N_10  and  C_11 
REMARK       I    between atoms: C_11  and  N_12 
REMARK    5  A    between atoms: N_12  and  C_13 
REMARK    6  A    between atoms: C_14  and  C_15 
ROOT
HETATM    1  N   UNL     1     -41.232  57.818 -53.083  1.00  0.00    -0.339 N 
HETATM    2  C   UNL     1     -41.980  57.085 -52.196  1.00  0.00     0.316 C 
HETATM    3  N   UNL     1     -41.199  56.553 -51.193  1.00  0.00    -0.338 N 
HETATM    4  O   UNL     1     -43.190  56.925 -52.286  1.00  0.00    -0.247 OA
HETATM    5  H   UNL     1     -40.384  58.225 -52.721  1.00  0.00     0.164 HD
HETATM    6  H   UNL     1     -40.249  56.338 -51.468  1.00  0.00     0.164 HD
ENDROOT
BRANCH   1   7
HETATM    7  C   UNL     1     -41.844  58.466 -54.221  1.00  0.00     0.163 C 
BRANCH   7   8
HETATM    8  C   UNL     1     -42.279  57.490 -55.280  1.00  0.00    -0.035 A 
HETATM    9  C   UNL     1     -41.860  56.156 -55.250  1.00  0.00     0.028 A 
HETATM   10  C   UNL     1     -42.258  55.309 -56.270  1.00  0.00     0.120 A 
HETATM   11  N   UNL     1     -43.022  55.694 -57.314  1.00  0.00    -0.237 NA
HETATM   12  C   UNL     1     -43.405  56.982 -57.340  1.00  0.00     0.165 A 
HETATM   13  C   UNL     1     -43.084  57.899 -56.348  1.00  0.00     0.066 A 
BRANCH  12  14
HETATM   14  O   UNL     1     -44.192  57.455 -58.366  1.00  0.00    -0.324 OA
BRANCH  14  15
HETATM   15  C   UNL     1     -43.693  57.400 -59.715  1.00  0.00     0.058 C 
HETATM   16  C   UNL     1     -44.209  56.178 -60.489  1.00  0.00     0.045 C 
HETATM   17  C   UNL     1     -42.164  57.531 -59.793  1.00  0.00     0.045 C 
HETATM   18  C   UNL     1     -44.297  58.655 -60.378  1.00  0.00     0.045 C 
ENDBRANCH  14  15
ENDBRANCH  12  14
ENDBRANCH   7   8
ENDBRANCH   1   7
BRANCH   3  19
HETATM   19  C   UNL     1     -41.778  55.731 -50.169  1.00  0.00     0.095 A 
HETATM   20  C   UNL     1     -41.755  54.217 -50.201  1.00  0.00     0.043 A 
HETATM   21  C   UNL     1     -40.897  54.978 -49.217  1.00  0.00     0.037 A 
BRANCH  20  22
HETATM   22  C   UNL     1     -41.101  53.432 -51.315  1.00  0.00    -0.052 A 
HETATM   23  C   UNL     1     -40.030  52.560 -51.058  1.00  0.00     0.007 A 
HETATM   24  C   UNL     1     -39.443  51.802 -52.074  1.00  0.00     0.001 A 
HETATM   25  C   UNL     1     -39.923  51.897 -53.378  1.00  0.00     0.000 A 
HETATM   26  C   UNL     1     -40.992  52.742 -53.658  1.00  0.00     0.001 A 
HETATM   27  C   UNL     1     -41.578  53.493 -52.635  1.00  0.00     0.007 A 
ENDBRANCH  20  22
ENDBRANCH   3  19
TORSDOF 6
ENDMDL
MODEL 4
REMARK VINA RESULT:      -7.5      1.831      2.433
REMARK  6 active torsions:
REMARK  status: ('A' for Active; 'I' for Inactive)
REMARK    1  A    between atoms: C_2  and  O_3 
REMARK    2  A    between atoms: O_3  and  C_4 
REMARK    3  A    between atoms: C_8  and  C_9 
REMARK    4  A    between atoms: C_9  and  N_10 
REMARK       I    between atoms: N_10  and  C_11 
REMARK       I    between atoms: C_11  and  N_12 
REMARK    5  A    between atoms: N_12  and  C_13 
REMARK    6  A    between atoms: C_14  and  C_15 
ROOT
HETATM    1  N   UNL     1     -41.185  58.317 -53.261  1.00  0.00    -0.339 N 
HETATM    2  C   UNL     1     -41.745  57.698 -52.172  1.00  0.00     0.316 C 
HETATM    3  N   UNL     1     -41.032  56.580 -51.802  1.00  0.00    -0.338 N 
HETATM    4  O   UNL     1     -42.754  58.093 -51.602  1.00  0.00    -0.247 OA
HETATM    5  H   UNL     1     -40.194  58.185 -53.388  1.00  0.00     0.164 HD
HETATM    6  H   UNL     1     -40.569  56.103 -52.566  1.00  0.00     0.164 HD
ENDROOT
BRANCH   1   7
HETATM    7  C   UNL     1     -41.771  59.511 -53.827  1.00  0.00     0.163 C 
BRANCH   7   8
HETATM    8  C   UNL     1     -42.836  59.209 -54.846  1.00  0.00    -0.035 A 
HETATM    9  C   UNL     1     -44.193  59.258 -54.510  1.00  0.00     0.028 A 
HETATM   10  C   UNL     1     -45.131  58.932 -55.475  1.00  0.00     0.120 A 
HETATM   11  N   UNL     1     -44.818  58.551 -56.731  1.00  0.00    -0.237 NA
HETATM   12  C   UNL     1     -43.511  58.492 -57.036  1.00  0.00     0.165 A 
HETATM   13  C   UNL     1     -42.498  58.829 -56.149  1.00  0.00     0.066 A 
BRANCH  12  14
HETATM   14  O   UNL     1     -43.106  58.119 -58.298  1.00  0.00    -0.324 OA
BRANCH  14  15
HETATM   15  C   UNL     1     -43.334  56.766 -58.738  1.00  0.00     0.058 C 
HETATM   16  C   UNL     1     -44.718  56.576 -59.375  1.00  0.00     0.045 C 
HETATM   17  C   UNL     1     -43.053  55.726 -57.641  1.00  0.00     0.045 C 
HETATM   18  C   UNL     1     -42.283  56.562 -59.847  1.00  0.00     0.045 C 
ENDBRANCH  14  15
ENDBRANCH  12  14
ENDBRANCH   7   8
ENDBRANCH   1   7
BRANCH   3  19
HETATM   19  C   UNL     1     -41.458  55.768 -50.697  1.00  0.00     0.095 A 
HETATM   20  C   UNL     1     -41.498  54.255 -50.740  1.00  0.00     0.043 A 
HETATM   21  C   UNL     1     -40.456  54.973 -49.913  1.00  0.00     0.037 A 
BRANCH  20  22
HETATM   22  C   UNL     1     -41.075  53.459 -51.952  1.00  0.00    -0.052 A 
HETATM   23  C   UNL     1     -40.011  52.544 -51.886  1.00  0.00     0.007 A 
HETATM   24  C   UNL     1     -39.636  51.775 -52.991  1.00  0.00     0.001 A 
HETATM   25  C   UNL     1     -40.327  51.904 -54.193  1.00  0.00     0.000 A 
HETATM   26  C   UNL     1     -41.394  52.792 -54.283  1.00  0.00     0.001 A 
HETATM   27  C   UNL     1     -41.767  53.553 -53.171  1.00  0.00     0.007 A 
ENDBRANCH  20  22
ENDBRANCH   3  19
TORSDOF 6
ENDMDL
MODEL 5
REMARK VINA RESULT:      -7.4      2.481      7.951
REMARK  6 active torsions:
REMARK  status: ('A' for Active; 'I' for Inactive)
REMARK    1  A    between atoms: C_2  and  O_3 
REMARK    2  A    between atoms: O_3  and  C_4 
REMARK    3  A    between atoms: C_8  and  C_9 
REMARK    4  A    between atoms: C_9  and  N_10 
REMARK       I    between atoms: N_10  and  C_11 
REMARK       I    between atoms: C_11  and  N_12 
REMARK    5  A    between atoms: N_12  and  C_13 
REMARK    6  A    between atoms: C_14  and  C_15 
ROOT
HETATM    1  N   UNL     1     -45.770  57.709 -55.742  1.00  0.00    -0.339 N 
HETATM    2  C   UNL     1     -46.091  58.320 -56.928  1.00  0.00     0.316 C 
HETATM    3  N   UNL     1     -46.627  57.426 -57.828  1.00  0.00    -0.338 N 
HETATM    4  O   UNL     1     -45.920  59.510 -57.156  1.00  0.00    -0.247 OA
HETATM    5  H   UNL     1     -46.302  56.886 -55.505  1.00  0.00     0.164 HD
HETATM    6  H   UNL     1     -46.283  56.478 -57.738  1.00  0.00     0.164 HD
ENDROOT
BRANCH   1   7
HETATM    7  C   UNL     1     -45.187  58.456 -54.649  1.00  0.00     0.163 C 
BRANCH   7   8
HETATM    8  C   UNL     1     -44.593  57.567 -53.590  1.00  0.00    -0.035 A 
HETATM    9  C   UNL     1     -44.597  57.944 -52.244  1.00  0.00     0.028 A 
HETATM   10  C   UNL     1     -44.002  57.108 -51.315  1.00  0.00     0.120 A 
HETATM   11  N   UNL     1     -43.399  55.942 -51.629  1.00  0.00    -0.237 NA
HETATM   12  C   UNL     1     -43.389  55.598 -52.928  1.00  0.00     0.165 A 
HETATM   13  C   UNL     1     -43.984  56.354 -53.929  1.00  0.00     0.066 A 
BRANCH  12  14
HETATM   14  O   UNL     1     -42.800  54.421 -53.333  1.00  0.00    -0.324 OA
BRANCH  14  15
HETATM   15  C   UNL     1     -41.365  54.354 -53.438  1.00  0.00     0.058 C 
HETATM   16  C   UNL     1     -40.695  53.911 -52.130  1.00  0.00     0.045 C 
HETATM   17  C   UNL     1     -40.746  55.644 -53.999  1.00  0.00     0.045 C 
HETATM   18  C   UNL     1     -41.128  53.240 -54.478  1.00  0.00     0.045 C 
ENDBRANCH  14  15
ENDBRANCH  12  14
ENDBRANCH   7   8
ENDBRANCH   1   7
BRANCH   3  19
HETATM   19  C   UNL     1     -47.012  57.851 -59.145  1.00  0.00     0.095 A 
HETATM   20  C   UNL     1     -46.037  57.993 -60.294  1.00  0.00     0.043 A 
HETATM   21  C   UNL     1     -47.044  56.867 -60.277  1.00  0.00     0.037 A 
BRANCH  20  22
HETATM   22  C   UNL     1     -44.564  57.685 -60.161  1.00  0.00    -0.052 A 
HETATM   23  C   UNL     1     -44.108  56.363 -60.018  1.00  0.00     0.007 A 
HETATM   24  C   UNL     1     -42.746  56.063 -59.932  1.00  0.00     0.001 A 
HETATM   25  C   UNL     1     -41.804  57.087 -59.992  1.00  0.00     0.000 A 
HETATM   26  C   UNL     1     -42.226  58.403 -60.148  1.00  0.00     0.001 A 
HETATM   27  C   UNL     1     -43.590  58.695 -60.239  1.00  0.00     0.007 A 
ENDBRANCH  20  22
ENDBRANCH   3  19
TORSDOF 6
ENDMDL
MODEL 6
REMARK VINA RESULT:      -7.3      1.448      2.144
REMARK  6 active torsions:
REMARK  status: ('A' for Active; 'I' for Inactive)
REMARK    1  A    between atoms: C_2  and  O_3 
REMARK    2  A    between atoms: O_3  and  C_4 
REMARK    3  A    between atoms: C_8  and  C_9 
REMARK    4  A    between atoms: C_9  and  N_10 
REMARK       I    between atoms: N_10  and  C_11 
REMARK       I    between atoms: C_11  and  N_12 
REMARK    5  A    between atoms: N_12  and  C_13 
REMARK    6  A    between atoms: C_14  and  C_15 
ROOT
HETATM    1  N   UNL     1     -43.890  55.683 -51.161  1.00  0.00    -0.339 N 
HETATM    2  C   UNL     1     -42.702  55.563 -50.485  1.00  0.00     0.316 C 
HETATM    3  N   UNL     1     -42.244  54.264 -50.491  1.00  0.00    -0.338 N 
HETATM    4  O   UNL     1     -42.124  56.495 -49.942  1.00  0.00    -0.247 OA
HETATM    5  H   UNL     1     -44.059  55.005 -51.888  1.00  0.00     0.164 HD
HETATM    6  H   UNL     1     -42.971  53.560 -50.516  1.00  0.00     0.164 HD
ENDROOT
BRANCH   1   7
HETATM    7  C   UNL     1     -44.559  56.959 -51.279  1.00  0.00     0.163 C 
BRANCH   7   8
HETATM    8  C   UNL     1     -44.195  57.690 -52.543  1.00  0.00    -0.035 A 
HETATM    9  C   UNL     1     -43.829  59.039 -52.518  1.00  0.00     0.028 A 
HETATM   10  C   UNL     1     -43.542  59.675 -53.714  1.00  0.00     0.120 A 
HETATM   11  N   UNL     1     -43.607  59.074 -54.921  1.00  0.00    -0.237 NA
HETATM   12  C   UNL     1     -43.975  57.782 -54.933  1.00  0.00     0.165 A 
HETATM   13  C   UNL     1     -44.252  57.050 -53.786  1.00  0.00     0.066 A 
BRANCH  12  14
HETATM   14  O   UNL     1     -44.060  57.092 -56.121  1.00  0.00    -0.324 OA
BRANCH  14  15
HETATM   15  C   UNL     1     -42.849  56.676 -56.780  1.00  0.00     0.058 C 
HETATM   16  C   UNL     1     -41.839  56.037 -55.815  1.00  0.00     0.045 C 
HETATM   17  C   UNL     1     -42.215  57.791 -57.627  1.00  0.00     0.045 C 
HETATM   18  C   UNL     1     -43.321  55.573 -57.749  1.00  0.00     0.045 C 
ENDBRANCH  14  15
ENDBRANCH  12  14
ENDBRANCH   7   8
ENDBRANCH   1   7
BRANCH   3  19
HETATM   19  C   UNL     1     -41.026  53.911 -49.819  1.00  0.00     0.095 A 
HETATM   20  C   UNL     1     -39.956  53.034 -50.435  1.00  0.00     0.043 A 
HETATM   21  C   UNL     1     -39.723  54.516 -50.249  1.00  0.00     0.037 A 
BRANCH  20  22
HETATM   22  C   UNL     1     -40.070  52.462 -51.829  1.00  0.00    -0.052 A 
HETATM   23  C   UNL     1     -40.497  53.255 -52.908  1.00  0.00     0.007 A 
HETATM   24  C   UNL     1     -40.569  52.745 -54.207  1.00  0.00     0.001 A 
HETATM   25  C   UNL     1     -40.209  51.424 -54.456  1.00  0.00     0.000 A 
HETATM   26  C   UNL     1     -39.769  50.620 -53.409  1.00  0.00     0.001 A 
HETATM   27  C   UNL     1     -39.693  51.139 -52.113  1.00  0.00     0.007 A 
ENDBRANCH  20  22
ENDBRANCH   3  19
TORSDOF 6
ENDMDL
MODEL 7
REMARK VINA RESULT:      -7.3      2.468      4.374
REMARK  6 active torsions:
REMARK  status: ('A' for Active; 'I' for Inactive)
REMARK    1  A    between atoms: C_2  and  O_3 
REMARK    2  A    between atoms: O_3  and  C_4 
REMARK    3  A    between atoms: C_8  and  C_9 
REMARK    4  A    between atoms: C_9  and  N_10 
REMARK       I    between atoms: N_10  and  C_11 
REMARK       I    between atoms: C_11  and  N_12 
REMARK    5  A    between atoms: N_12  and  C_13 
REMARK    6  A    between atoms: C_14  and  C_15 
ROOT
HETATM    1  N   UNL     1     -41.640  56.081 -55.601  1.00  0.00    -0.339 N 
HETATM    2  C   UNL     1     -41.569  54.740 -55.318  1.00  0.00     0.316 C 
HETATM    3  N   UNL     1     -40.335  54.393 -54.813  1.00  0.00    -0.338 N 
HETATM    4  O   UNL     1     -42.489  53.952 -55.493  1.00  0.00    -0.247 OA
HETATM    5  H   UNL     1     -41.036  56.682 -55.063  1.00  0.00     0.164 HD
HETATM    6  H   UNL     1     -39.567  54.955 -55.156  1.00  0.00     0.164 HD
ENDROOT
BRANCH   1   7
HETATM    7  C   UNL     1     -42.843  56.668 -56.146  1.00  0.00     0.163 C 
BRANCH   7   8
HETATM    8  C   UNL     1     -42.830  56.729 -57.649  1.00  0.00    -0.035 A 
HETATM    9  C   UNL     1     -43.336  55.678 -58.420  1.00  0.00     0.028 A 
HETATM   10  C   UNL     1     -43.264  55.768 -59.800  1.00  0.00     0.120 A 
HETATM   11  N   UNL     1     -42.717  56.810 -60.459  1.00  0.00    -0.237 NA
HETATM   12  C   UNL     1     -42.219  57.806 -59.707  1.00  0.00     0.165 A 
HETATM   13  C   UNL     1     -42.273  57.823 -58.319  1.00  0.00     0.066 A 
BRANCH  12  14
HETATM   14  O   UNL     1     -41.649  58.910 -60.300  1.00  0.00    -0.324 OA
BRANCH  14  15
HETATM   15  C   UNL     1     -42.471  60.058 -60.584  1.00  0.00     0.058 C 
HETATM   16  C   UNL     1     -43.953  59.820 -60.259  1.00  0.00     0.045 C 
HETATM   17  C   UNL     1     -42.271  60.599 -62.009  1.00  0.00     0.045 C 
HETATM   18  C   UNL     1     -41.950  61.130 -59.606  1.00  0.00     0.045 C 
ENDBRANCH  14  15
ENDBRANCH  12  14
ENDBRANCH   7   8
ENDBRANCH   1   7
BRANCH   3  19
HETATM   19  C   UNL     1     -40.038  53.031 -54.471  1.00  0.00     0.095 A 
HETATM   20  C   UNL     1     -40.153  52.479 -53.066  1.00  0.00     0.043 A 
HETATM   21  C   UNL     1     -41.146  52.078 -54.132  1.00  0.00     0.037 A 
BRANCH  20  22
HETATM   22  C   UNL     1     -40.610  53.316 -51.893  1.00  0.00    -0.052 A 
HETATM   23  C   UNL     1     -41.951  53.715 -51.763  1.00  0.00     0.007 A 
HETATM   24  C   UNL     1     -42.392  54.456 -50.664  1.00  0.00     0.001 A 
HETATM   25  C   UNL     1     -41.493  54.813 -49.662  1.00  0.00     0.000 A 
HETATM   26  C   UNL     1     -40.162  54.420 -49.758  1.00  0.00     0.001 A 
HETATM   27  C   UNL     1     -39.731  53.673 -50.857  1.00  0.00     0.007 A 
ENDBRANCH  20  22
ENDBRANCH   3  19
TORSDOF 6
ENDMDL
MODEL 8
REMARK VINA RESULT:      -7.3      1.568      2.063
REMARK  6 active torsions:
REMARK  status: ('A' for Active; 'I' for Inactive)
REMARK    1  A    between atoms: C_2  and  O_3 
REMARK    2  A    between atoms: O_3  and  C_4 
REMARK    3  A    between atoms: C_8  and  C_9 
REMARK    4  A    between atoms: C_9  and  N_10 
REMARK       I    between atoms: N_10  and  C_11 
REMARK       I    between atoms: C_11  and  N_12 
REMARK    5  A    between atoms: N_12  and  C_13 
REMARK    6  A    between atoms: C_14  and  C_15 
ROOT
HETATM    1  N   UNL     1     -44.669  56.916 -53.037  1.00  0.00    -0.339 N 
HETATM    2  C   UNL     1     -43.670  56.704 -52.120  1.00  0.00     0.316 C 
HETATM    3  N   UNL     1     -43.690  55.414 -51.639  1.00  0.00    -0.338 N 
HETATM    4  O   UNL     1     -42.864  57.557 -51.773  1.00  0.00    -0.247 OA
HETATM    5  H   UNL     1     -44.987  56.106 -53.545  1.00  0.00     0.164 HD
HETATM    6  H   UNL     1     -44.608  54.990 -51.605  1.00  0.00     0.164 HD
ENDROOT
BRANCH   1   7
HETATM    7  C   UNL     1     -44.842  58.204 -53.671  1.00  0.00     0.163 C 
BRANCH   7   8
HETATM    8  C   UNL     1     -43.885  58.422 -54.812  1.00  0.00    -0.035 A 
HETATM    9  C   UNL     1     -43.199  59.631 -54.960  1.00  0.00     0.028 A 
HETATM   10  C   UNL     1     -42.360  59.793 -56.049  1.00  0.00     0.120 A 
HETATM   11  N   UNL     1     -42.169  58.854 -56.999  1.00  0.00    -0.237 NA
HETATM   12  C   UNL     1     -42.847  57.702 -56.854  1.00  0.00     0.165 A 
HETATM   13  C   UNL     1     -43.685  57.433 -55.781  1.00  0.00     0.066 A 
BRANCH  12  14
HETATM   14  O   UNL     1     -42.703  56.689 -57.775  1.00  0.00    -0.324 OA
BRANCH  14  15
HETATM   15  C   UNL     1     -43.269  56.850 -59.090  1.00  0.00     0.058 C 
HETATM   16  C   UNL     1     -42.260  57.405 -60.105  1.00  0.00     0.045 C 
HETATM   17  C   UNL     1     -44.582  57.648 -59.082  1.00  0.00     0.045 C 
HETATM   18  C   UNL     1     -43.609  55.408 -59.519  1.00  0.00     0.045 C 
ENDBRANCH  14  15
ENDBRANCH  12  14
ENDBRANCH   7   8
ENDBRANCH   1   7
BRANCH   3  19
HETATM   19  C   UNL     1     -42.743  54.984 -50.650  1.00  0.00     0.095 A 
HETATM   20  C   UNL     1     -41.428  54.314 -50.988  1.00  0.00     0.043 A 
HETATM   21  C   UNL     1     -41.455  55.730 -50.461  1.00  0.00     0.037 A 
BRANCH  20  22
HETATM   22  C   UNL     1     -40.985  54.051 -52.409  1.00  0.00    -0.052 A 
HETATM   23  C   UNL     1     -40.777  52.742 -52.875  1.00  0.00     0.007 A 
HETATM   24  C   UNL     1     -40.404  52.486 -54.197  1.00  0.00     0.001 A 
HETATM   25  C   UNL     1     -40.234  53.542 -55.088  1.00  0.00     0.000 A 
HETATM   26  C   UNL     1     -40.447  54.848 -54.657  1.00  0.00     0.001 A 
HETATM   27  C   UNL     1     -40.826  55.096 -53.335  1.00  0.00     0.007 A 
ENDBRANCH  20  22
ENDBRANCH   3  19
TORSDOF 6
ENDMDL
MODEL 9
REMARK VINA RESULT:      -7.2      1.940      8.131
REMARK  6 active torsions:
REMARK  status: ('A' for Active; 'I' for Inactive)
REMARK    1  A    between atoms: C_2  and  O_3 
REMARK    2  A    between atoms: O_3  and  C_4 
REMARK    3  A    between atoms: C_8  and  C_9 
REMARK    4  A    between atoms: C_9  and  N_10 
REMARK       I    between atoms: N_10  and  C_11 
REMARK       I    between atoms: C_11  and  N_12 
REMARK    5  A    between atoms: N_12  and  C_13 
REMARK    6  A    between atoms: C_14  and  C_15 
ROOT
HETATM    1  N   UNL     1     -41.399  54.003 -55.003  1.00  0.00    -0.339 N 
HETATM    2  C   UNL     1     -41.303  55.362 -54.837  1.00  0.00     0.316 C 
HETATM    3  N   UNL     1     -42.514  55.984 -55.046  1.00  0.00    -0.338 N 
HETATM    4  O   UNL     1     -40.269  55.946 -54.542  1.00  0.00    -0.247 OA
HETATM    5  H   UNL     1     -42.305  53.596 -54.831  1.00  0.00     0.164 HD
HETATM    6  H   UNL     1     -43.115  55.523 -55.717  1.00  0.00     0.164 HD
ENDROOT
BRANCH   1   7
HETATM    7  C   UNL     1     -40.247  53.146 -54.837  1.00  0.00     0.163 C 
BRANCH   7   8
HETATM    8  C   UNL     1     -40.147  52.571 -53.449  1.00  0.00    -0.035 A 
HETATM    9  C   UNL     1     -39.498  51.355 -53.215  1.00  0.00     0.028 A 
HETATM   10  C   UNL     1     -39.469  50.852 -51.926  1.00  0.00     0.120 A 
HETATM   11  N   UNL     1     -40.045  51.460 -50.867  1.00  0.00    -0.237 NA
HETATM   12  C   UNL     1     -40.679  52.620 -51.108  1.00  0.00     0.165 A 
HETATM   13  C   UNL     1     -40.736  53.220 -52.359  1.00  0.00     0.066 A 
BRANCH  12  14
HETATM   14  O   UNL     1     -41.287  53.307 -50.082  1.00  0.00    -0.324 OA
BRANCH  14  15
HETATM   15  C   UNL     1     -40.508  54.226 -49.293  1.00  0.00     0.058 C 
HETATM   16  C   UNL     1     -39.115  54.483 -49.886  1.00  0.00     0.045 C 
HETATM   17  C   UNL     1     -40.441  53.832 -47.809  1.00  0.00     0.045 C 
HETATM   18  C   UNL     1     -41.299  55.547 -49.384  1.00  0.00     0.045 C 
ENDBRANCH  14  15
ENDBRANCH  12  14
ENDBRANCH   7   8
ENDBRANCH   1   7
BRANCH   3  19
HETATM   19  C   UNL     1     -42.633  57.412 -54.947  1.00  0.00     0.095 A 
HETATM   20  C   UNL     1     -42.842  58.317 -56.142  1.00  0.00     0.043 A 
HETATM   21  C   UNL     1     -43.962  58.075 -55.158  1.00  0.00     0.037 A 
BRANCH  20  22
HETATM   22  C   UNL     1     -42.959  57.794 -57.555  1.00  0.00    -0.052 A 
HETATM   23  C   UNL     1     -41.932  57.997 -58.493  1.00  0.00     0.007 A 
HETATM   24  C   UNL     1     -42.014  57.484 -59.790  1.00  0.00     0.001 A 
HETATM   25  C   UNL     1     -43.131  56.749 -60.178  1.00  0.00     0.000 A 
HETATM   26  C   UNL     1     -44.156  56.522 -59.266  1.00  0.00     0.001 A 
HETATM   27  C   UNL     1     -44.064  57.031 -57.967  1.00  0.00     0.007 A 
ENDBRANCH  20  22
ENDBRANCH   3  19
TORSDOF 6
ENDMDL
MODEL 10
REMARK VINA RESULT:      -7.2      2.563      7.765
REMARK  6 active torsions:
REMARK  status: ('A' for Active; 'I' for Inactive)
REMARK    1  A    between atoms: C_2  and  O_3 
REMARK    2  A    between atoms: O_3  and  C_4 
REMARK    3  A    between atoms: C_8  and  C_9 
REMARK    4  A    between atoms: C_9  and  N_10 
REMARK       I    between atoms: N_10  and  C_11 
REMARK       I    between atoms: C_11  and  N_12 
REMARK    5  A    between atoms: N_12  and  C_13 
REMARK    6  A    between atoms: C_14  and  C_15 
ROOT
HETATM    1  N   UNL     1     -41.501  54.468 -55.003  1.00  0.00    -0.339 N 
HETATM    2  C   UNL     1     -42.545  54.526 -55.891  1.00  0.00     0.316 C 
HETATM    3  N   UNL     1     -42.283  55.399 -56.924  1.00  0.00    -0.338 N 
HETATM    4  O   UNL     1     -43.580  53.883 -55.778  1.00  0.00    -0.247 OA
HETATM    5  H   UNL     1     -40.588  54.682 -55.373  1.00  0.00     0.164 HD
HETATM    6  H   UNL     1     -41.688  56.180 -56.676  1.00  0.00     0.164 HD
ENDROOT
BRANCH   1   7
HETATM    7  C   UNL     1     -41.559  53.617 -53.835  1.00  0.00     0.163 C 
BRANCH   7   8
HETATM    8  C   UNL     1     -41.882  54.379 -52.578  1.00  0.00    -0.035 A 
HETATM    9  C   UNL     1     -42.920  53.973 -51.734  1.00  0.00     0.028 A 
HETATM   10  C   UNL     1     -43.201  54.732 -50.610  1.00  0.00     0.120 A 
HETATM   11  N   UNL     1     -42.539  55.860 -50.279  1.00  0.00    -0.237 NA
HETATM   12  C   UNL     1     -41.554  56.248 -51.107  1.00  0.00     0.165 A 
HETATM   13  C   UNL     1     -41.177  55.539 -52.239  1.00  0.00     0.066 A 
BRANCH  12  14
HETATM   14  O   UNL     1     -40.824  57.384 -50.838  1.00  0.00    -0.324 OA
BRANCH  14  15
HETATM   15  C   UNL     1     -41.159  58.610 -51.515  1.00  0.00     0.058 C 
HETATM   16  C   UNL     1     -42.659  58.728 -51.821  1.00  0.00     0.045 C 
HETATM   17  C   UNL     1     -40.293  58.861 -52.760  1.00  0.00     0.045 C 
HETATM   18  C   UNL     1     -40.811  59.703 -50.484  1.00  0.00     0.045 C 
ENDBRANCH  14  15
ENDBRANCH  12  14
ENDBRANCH   7   8
ENDBRANCH   1   7
BRANCH   3  19
HETATM   19  C   UNL     1     -43.255  55.630 -57.956  1.00  0.00     0.095 A 
HETATM   20  C   UNL     1     -43.708  57.010 -58.382  1.00  0.00     0.043 A 
HETATM   21  C   UNL     1     -42.828  56.178 -59.286  1.00  0.00     0.037 A 
BRANCH  20  22
HETATM   22  C   UNL     1     -43.163  58.278 -57.765  1.00  0.00    -0.052 A 
HETATM   23  C   UNL     1     -43.623  58.735 -56.519  1.00  0.00     0.007 A 
HETATM   24  C   UNL     1     -43.098  59.885 -55.922  1.00  0.00     0.001 A 
HETATM   25  C   UNL     1     -42.093  60.604 -56.563  1.00  0.00     0.000 A 
HETATM   26  C   UNL     1     -41.609  60.165 -57.792  1.00  0.00     0.001 A 
HETATM   27  C   UNL     1     -42.134  59.011 -58.379  1.00  0.00     0.007 A 
ENDBRANCH  20  22
ENDBRANCH   3  19
TORSDOF 6
ENDMDL
