MODEL 1
REMARK VINA RESULT:      -8.2      0.000      0.000
REMARK  5 active torsions:
REMARK  status: ('A' for Active; 'I' for Inactive)
REMARK    1  A    between atoms: C_5  and  C_6 
REMARK    2  A    between atoms: C_6  and  C_7 
REMARK    3  A    between atoms: C_7  and  C_8 
REMARK       I    between atoms: C_8  and  N_9 
REMARK    4  A    between atoms: N_9  and  C_10 
REMARK    5  A    between atoms: C_12  and  C_13 
ROOT
HETATM    1  C   UNL     1     -43.173  56.098 -53.608  1.00  0.00     0.222 C 
HETATM    2  N   UNL     1     -42.339  56.126 -54.709  1.00  0.00    -0.327 N 
HETATM    3  O   UNL     1     -44.280  56.624 -53.527  1.00  0.00    -0.273 OA
HETATM    4  H   UNL     1     -41.399  55.777 -54.588  1.00  0.00     0.169 HD
ENDROOT
BRANCH   2   5
HETATM    5  C   UNL     1     -42.622  56.661 -55.985  1.00  0.00     0.035 A 
HETATM    6  C   UNL     1     -43.199  55.929 -57.028  1.00  0.00     0.042 A 
HETATM    7  C   UNL     1     -43.422  56.510 -58.289  1.00  0.00    -0.021 A 
HETATM    8  C   UNL     1     -43.061  57.850 -58.486  1.00  0.00     0.012 A 
HETATM    9  C   UNL     1     -42.483  58.587 -57.453  1.00  0.00     0.003 A 
HETATM   10  C   UNL     1     -42.259  57.993 -56.212  1.00  0.00     0.029 A 
BRANCH   7  11
HETATM   11  C   UNL     1     -43.995  55.741 -59.387  1.00  0.00     0.010 A 
HETATM   12  C   UNL     1     -44.409  56.140 -60.682  1.00  0.00     0.152 A 
HETATM   13  N   UNL     1     -44.889  55.129 -61.411  1.00  0.00    -0.187 NA
HETATM   14  N   UNL     1     -44.785  54.075 -60.588  1.00  0.00    -0.289 N 
HETATM   15  H   UNL     1     -45.091  53.168 -60.923  1.00  0.00     0.188 HD
HETATM   16  C   UNL     1     -44.260  54.388 -59.367  1.00  0.00     0.123 A 
ENDBRANCH   7  11
ENDBRANCH   2   5
BRANCH   1  17
HETATM   17  C   UNL     1     -42.656  55.254 -52.451  1.00  0.00     0.108 C 
BRANCH  17  18
HETATM   18  C   UNL     1     -41.151  54.999 -52.402  1.00  0.00     0.047 C 
BRANCH  18  19
HETATM   19  C   UNL     1     -40.637  53.623 -52.759  1.00  0.00    -0.058 A 
HETATM   20  C   UNL     1     -39.976  52.782 -51.858  1.00  0.00     0.007 A 
HETATM   21  C   UNL     1     -39.569  51.500 -52.244  1.00  0.00     0.007 A 
HETATM   22  C   UNL     1     -39.826  51.026 -53.534  1.00  0.00    -0.062 A 
HETATM   23  C   UNL     1     -39.404  49.650 -53.953  1.00  0.00     0.048 C 
HETATM   24  C   UNL     1     -40.488  51.860 -54.439  1.00  0.00     0.007 A 
HETATM   25  C   UNL     1     -40.891  53.141 -54.054  1.00  0.00     0.007 A 
ENDBRANCH  18  19
ENDBRANCH  17  18
ENDBRANCH   1  17
TORSDOF 5
ENDMDL
MODEL 2
REMARK VINA RESULT:      -8.2      1.750      2.195
REMARK  5 active torsions:
REMARK  status: ('A' for Active; 'I' for Inactive)
REMARK    1  A    between atoms: C_5  and  C_6 
REMARK    2  A    between atoms: C_6  and  C_7 
REMARK    3  A    between atoms: C_7  and  C_8 
REMARK       I    between atoms: C_8  and  N_9 
REMARK    4  A    between atoms: N_9  and  C_10 
REMARK    5  A    between atoms: C_12  and  C_13 
ROOT
HETATM    1  C   UNL     1     -42.173  55.959 -52.623  1.00  0.00     0.222 C 
HETATM    2  N   UNL     1     -43.185  55.626 -53.503  1.00  0.00    -0.327 N 
HETATM    3  O   UNL     1     -41.405  56.912 -52.734  1.00  0.00    -0.273 OA
HETATM    4  H   UNL     1     -43.644  54.736 -53.365  1.00  0.00     0.169 HD
ENDROOT
BRANCH   2   5
HETATM    5  C   UNL     1     -43.614  56.356 -54.633  1.00  0.00     0.035 A 
HETATM    6  C   UNL     1     -43.016  56.264 -55.894  1.00  0.00     0.042 A 
HETATM    7  C   UNL     1     -43.467  57.047 -56.972  1.00  0.00    -0.021 A 
HETATM    8  C   UNL     1     -44.542  57.923 -56.765  1.00  0.00     0.012 A 
HETATM    9  C   UNL     1     -45.143  58.023 -55.510  1.00  0.00     0.003 A 
HETATM   10  C   UNL     1     -44.676  57.247 -54.449  1.00  0.00     0.029 A 
BRANCH   7  11
HETATM   11  C   UNL     1     -42.827  56.977 -58.279  1.00  0.00     0.010 A 
HETATM   12  C   UNL     1     -42.893  55.989 -59.292  1.00  0.00     0.152 A 
HETATM   13  N   UNL     1     -42.153  56.289 -60.364  1.00  0.00    -0.187 NA
HETATM   14  N   UNL     1     -41.609  57.473 -60.043  1.00  0.00    -0.289 N 
HETATM   15  H   UNL     1     -40.993  57.919 -60.715  1.00  0.00     0.188 HD
HETATM   16  C   UNL     1     -41.977  57.925 -58.809  1.00  0.00     0.123 A 
ENDBRANCH   7  11
ENDBRANCH   2   5
BRANCH   1  17
HETATM   17  C   UNL     1     -42.104  55.080 -51.382  1.00  0.00     0.108 C 
BRANCH  17  18
HETATM   18  C   UNL     1     -40.772  54.389 -51.099  1.00  0.00     0.047 C 
BRANCH  18  19
HETATM   19  C   UNL     1     -40.380  53.197 -51.941  1.00  0.00    -0.058 A 
HETATM   20  C   UNL     1     -39.870  52.006 -51.412  1.00  0.00     0.007 A 
HETATM   21  C   UNL     1     -39.572  50.923 -52.248  1.00  0.00     0.007 A 
HETATM   22  C   UNL     1     -39.792  51.002 -53.627  1.00  0.00    -0.062 A 
HETATM   23  C   UNL     1     -39.487  49.844 -54.528  1.00  0.00     0.048 C 
HETATM   24  C   UNL     1     -40.303  52.188 -54.161  1.00  0.00     0.007 A 
HETATM   25  C   UNL     1     -40.596  53.270 -53.327  1.00  0.00     0.007 A 
ENDBRANCH  18  19
ENDBRANCH  17  18
ENDBRANCH   1  17
TORSDOF 5
ENDMDL
MODEL 3
REMARK VINA RESULT:      -8.1      2.635      8.737
REMARK  5 active torsions:
REMARK  status: ('A' for Active; 'I' for Inactive)
REMARK    1  A    between atoms: C_5  and  C_6 
REMARK    2  A    between atoms: C_6  and  C_7 
REMARK    3  A    between atoms: C_7  and  C_8 
REMARK       I    between atoms: C_8  and  N_9 
REMARK    4  A    between atoms: N_9  and  C_10 
REMARK    5  A    between atoms: C_12  and  C_13 
ROOT
HETATM    1  C   UNL     1     -42.513  54.980 -56.014  1.00  0.00     0.222 C 
HETATM    2  N   UNL     1     -41.336  55.045 -55.293  1.00  0.00    -0.327 N 
HETATM    3  O   UNL     1     -43.364  54.099 -55.929  1.00  0.00    -0.273 OA
HETATM    4  H   UNL     1     -40.662  55.745 -55.567  1.00  0.00     0.169 HD
ENDROOT
BRANCH   2   5
HETATM    5  C   UNL     1     -40.923  54.189 -54.248  1.00  0.00     0.035 A 
HETATM    6  C   UNL     1     -41.053  54.496 -52.889  1.00  0.00     0.042 A 
HETATM    7  C   UNL     1     -40.587  53.615 -51.897  1.00  0.00    -0.021 A 
HETATM    8  C   UNL     1     -39.992  52.410 -52.292  1.00  0.00     0.012 A 
HETATM    9  C   UNL     1     -39.856  52.096 -53.644  1.00  0.00     0.003 A 
HETATM   10  C   UNL     1     -40.314  52.985 -54.616  1.00  0.00     0.029 A 
BRANCH   7  11
HETATM   11  C   UNL     1     -40.693  53.946 -50.482  1.00  0.00     0.010 A 
HETATM   12  C   UNL     1     -41.092  55.143 -49.836  1.00  0.00     0.152 A 
HETATM   13  N   UNL     1     -41.058  55.053 -48.503  1.00  0.00    -0.187 NA
HETATM   14  N   UNL     1     -40.637  53.798 -48.287  1.00  0.00    -0.289 N 
HETATM   15  H   UNL     1     -40.531  53.483 -47.328  1.00  0.00     0.188 HD
HETATM   16  C   UNL     1     -40.403  53.097 -49.435  1.00  0.00     0.123 A 
ENDBRANCH   7  11
ENDBRANCH   2   5
BRANCH   1  17
HETATM   17  C   UNL     1     -42.761  56.179 -56.919  1.00  0.00     0.108 C 
BRANCH  17  18
HETATM   18  C   UNL     1     -42.821  55.909 -58.421  1.00  0.00     0.047 C 
BRANCH  18  19
HETATM   19  C   UNL     1     -44.135  56.103 -59.141  1.00  0.00    -0.058 A 
HETATM   20  C   UNL     1     -45.056  57.107 -58.823  1.00  0.00     0.007 A 
HETATM   21  C   UNL     1     -46.233  57.258 -59.565  1.00  0.00     0.007 A 
HETATM   22  C   UNL     1     -46.509  56.419 -60.649  1.00  0.00    -0.062 A 
HETATM   23  C   UNL     1     -47.762  56.581 -61.456  1.00  0.00     0.048 C 
HETATM   24  C   UNL     1     -45.593  55.416 -60.974  1.00  0.00     0.007 A 
HETATM   25  C   UNL     1     -44.419  55.262 -60.231  1.00  0.00     0.007 A 
ENDBRANCH  18  19
ENDBRANCH  17  18
ENDBRANCH   1  17
TORSDOF 5
ENDMDL
MODEL 4
REMARK VINA RESULT:      -8.0      2.086      3.020
REMARK  5 active torsions:
REMARK  status: ('A' for Active; 'I' for Inactive)
REMARK    1  A    between atoms: C_5  and  C_6 
REMARK    2  A    between atoms: C_6  and  C_7 
REMARK    3  A    between atoms: C_7  and  C_8 
REMARK       I    between atoms: C_8  and  N_9 
REMARK    4  A    between atoms: N_9  and  C_10 
REMARK    5  A    between atoms: C_12  and  C_13 
ROOT
HETATM    1  C   UNL     1     -42.728  54.656 -51.004  1.00  0.00     0.222 C 
HETATM    2  N   UNL     1     -42.531  55.930 -51.500  1.00  0.00    -0.327 N 
HETATM    3  O   UNL     1     -43.620  53.881 -51.340  1.00  0.00    -0.273 OA
HETATM    4  H   UNL     1     -41.848  56.510 -51.031  1.00  0.00     0.169 HD
ENDROOT
BRANCH   2   5
HETATM    5  C   UNL     1     -43.231  56.558 -52.553  1.00  0.00     0.035 A 
HETATM    6  C   UNL     1     -42.993  56.307 -53.908  1.00  0.00     0.042 A 
HETATM    7  C   UNL     1     -43.700  56.993 -54.911  1.00  0.00    -0.021 A 
HETATM    8  C   UNL     1     -44.662  57.938 -54.530  1.00  0.00     0.012 A 
HETATM    9  C   UNL     1     -44.905  58.198 -53.181  1.00  0.00     0.003 A 
HETATM   10  C   UNL     1     -44.188  57.516 -52.199  1.00  0.00     0.029 A 
BRANCH   7  11
HETATM   11  C   UNL     1     -43.433  56.756 -56.324  1.00  0.00     0.010 A 
HETATM   12  C   UNL     1     -43.770  57.515 -57.472  1.00  0.00     0.152 A 
HETATM   13  N   UNL     1     -43.342  56.959 -58.610  1.00  0.00    -0.187 NA
HETATM   14  N   UNL     1     -42.728  55.840 -58.196  1.00  0.00    -0.289 N 
HETATM   15  H   UNL     1     -42.308  55.235 -58.894  1.00  0.00     0.188 HD
HETATM   16  C   UNL     1     -42.757  55.672 -56.842  1.00  0.00     0.123 A 
ENDBRANCH   7  11
ENDBRANCH   2   5
BRANCH   1  17
HETATM   17  C   UNL     1     -41.664  54.194 -50.018  1.00  0.00     0.108 C 
BRANCH  17  18
HETATM   18  C   UNL     1     -40.263  53.953 -50.577  1.00  0.00     0.047 C 
BRANCH  18  19
HETATM   19  C   UNL     1     -40.071  52.863 -51.606  1.00  0.00    -0.058 A 
HETATM   20  C   UNL     1     -39.704  51.551 -51.289  1.00  0.00     0.007 A 
HETATM   21  C   UNL     1     -39.591  50.579 -52.290  1.00  0.00     0.007 A 
HETATM   22  C   UNL     1     -39.855  50.894 -53.626  1.00  0.00    -0.062 A 
HETATM   23  C   UNL     1     -39.747  49.857 -54.703  1.00  0.00     0.048 C 
HETATM   24  C   UNL     1     -40.225  52.202 -53.949  1.00  0.00     0.007 A 
HETATM   25  C   UNL     1     -40.334  53.173 -52.951  1.00  0.00     0.007 A 
ENDBRANCH  18  19
ENDBRANCH  17  18
ENDBRANCH   1  17
TORSDOF 5
ENDMDL
MODEL 5
REMARK VINA RESULT:      -7.8      3.767      7.054
REMARK  5 active torsions:
REMARK  status: ('A' for Active; 'I' for Inactive)
REMARK    1  A    between atoms: C_5  and  C_6 
REMARK    2  A    between atoms: C_6  and  C_7 
REMARK    3  A    between atoms: C_7  and  C_8 
REMARK       I    between atoms: C_8  and  N_9 
REMARK    4  A    between atoms: N_9  and  C_10 
REMARK    5  A    between atoms: C_12  and  C_13 
ROOT
HETATM    1  C   UNL     1     -41.329  58.137 -50.735  1.00  0.00     0.222 C 
HETATM    2  N   UNL     1     -41.969  56.951 -50.431  1.00  0.00    -0.327 N 
HETATM    3  O   UNL     1     -40.115  58.295 -50.843  1.00  0.00    -0.273 OA
HETATM    4  H   UNL     1     -42.959  56.996 -50.231  1.00  0.00     0.169 HD
ENDROOT
BRANCH   2   5
HETATM    5  C   UNL     1     -41.385  55.673 -50.290  1.00  0.00     0.035 A 
HETATM    6  C   UNL     1     -41.073  54.834 -51.365  1.00  0.00     0.042 A 
HETATM    7  C   UNL     1     -40.526  53.555 -51.155  1.00  0.00    -0.021 A 
HETATM    8  C   UNL     1     -40.288  53.132 -49.841  1.00  0.00     0.012 A 
HETATM    9  C   UNL     1     -40.598  53.960 -48.762  1.00  0.00     0.003 A 
HETATM   10  C   UNL     1     -41.150  55.222 -48.986  1.00  0.00     0.029 A 
BRANCH   7  11
HETATM   11  C   UNL     1     -40.229  52.667 -52.271  1.00  0.00     0.010 A 
HETATM   12  C   UNL     1     -40.640  52.711 -53.626  1.00  0.00     0.152 A 
HETATM   13  N   UNL     1     -40.150  51.702 -54.354  1.00  0.00    -0.187 NA
HETATM   14  N   UNL     1     -39.421  51.006 -53.468  1.00  0.00    -0.289 N 
HETATM   15  H   UNL     1     -38.936  50.175 -53.789  1.00  0.00     0.188 HD
HETATM   16  C   UNL     1     -39.438  51.539 -52.211  1.00  0.00     0.123 A 
ENDBRANCH   7  11
ENDBRANCH   2   5
BRANCH   1  17
HETATM   17  C   UNL     1     -42.267  59.298 -51.036  1.00  0.00     0.108 C 
BRANCH  17  18
HETATM   18  C   UNL     1     -42.775  59.419 -52.471  1.00  0.00     0.047 C 
BRANCH  18  19
HETATM   19  C   UNL     1     -42.793  58.184 -53.341  1.00  0.00    -0.058 A 
HETATM   20  C   UNL     1     -41.694  57.741 -54.084  1.00  0.00     0.007 A 
HETATM   21  C   UNL     1     -41.767  56.560 -54.832  1.00  0.00     0.007 A 
HETATM   22  C   UNL     1     -42.934  55.789 -54.842  1.00  0.00    -0.062 A 
HETATM   23  C   UNL     1     -43.016  54.518 -55.631  1.00  0.00     0.048 C 
HETATM   24  C   UNL     1     -44.034  56.225 -54.100  1.00  0.00     0.007 A 
HETATM   25  C   UNL     1     -43.963  57.406 -53.357  1.00  0.00     0.007 A 
ENDBRANCH  18  19
ENDBRANCH  17  18
ENDBRANCH   1  17
TORSDOF 5
ENDMDL
MODEL 6
REMARK VINA RESULT:      -7.5      2.757      7.776
REMARK  5 active torsions:
REMARK  status: ('A' for Active; 'I' for Inactive)
REMARK    1  A    between atoms: C_5  and  C_6 
REMARK    2  A    between atoms: C_6  and  C_7 
REMARK    3  A    between atoms: C_7  and  C_8 
REMARK       I    between atoms: C_8  and  N_9 
REMARK    4  A    between atoms: N_9  and  C_10 
REMARK    5  A    between atoms: C_12  and  C_13 
ROOT
HETATM    1  C   UNL     1     -42.572  54.751 -55.936  1.00  0.00     0.222 C 
HETATM    2  N   UNL     1     -41.340  54.786 -55.311  1.00  0.00    -0.327 N 
HETATM    3  O   UNL     1     -43.469  53.941 -55.718  1.00  0.00    -0.273 OA
HETATM    4  H   UNL     1     -40.646  55.415 -55.690  1.00  0.00     0.169 HD
ENDROOT
BRANCH   2   5
HETATM    5  C   UNL     1     -40.901  53.983 -54.236  1.00  0.00     0.035 A 
HETATM    6  C   UNL     1     -41.048  54.332 -52.889  1.00  0.00     0.042 A 
HETATM    7  C   UNL     1     -40.555  53.505 -51.865  1.00  0.00    -0.021 A 
HETATM    8  C   UNL     1     -39.914  52.308 -52.215  1.00  0.00     0.012 A 
HETATM    9  C   UNL     1     -39.761  51.952 -53.555  1.00  0.00     0.003 A 
HETATM   10  C   UNL     1     -40.246  52.789 -54.560  1.00  0.00     0.029 A 
BRANCH   7  11
HETATM   11  C   UNL     1     -40.679  53.880 -50.462  1.00  0.00     0.010 A 
HETATM   12  C   UNL     1     -41.130  55.081 -49.860  1.00  0.00     0.152 A 
HETATM   13  N   UNL     1     -41.097  55.041 -48.525  1.00  0.00    -0.187 NA
HETATM   14  N   UNL     1     -40.623  53.813 -48.263  1.00  0.00    -0.289 N 
HETATM   15  H   UNL     1     -40.507  53.537 -47.294  1.00  0.00     0.188 HD
HETATM   16  C   UNL     1     -40.356  53.082 -49.385  1.00  0.00     0.123 A 
ENDBRANCH   7  11
ENDBRANCH   2   5
BRANCH   1  17
HETATM   17  C   UNL     1     -42.814  55.895 -56.911  1.00  0.00     0.108 C 
BRANCH  17  18
HETATM   18  C   UNL     1     -43.326  57.207 -56.322  1.00  0.00     0.047 C 
BRANCH  18  19
HETATM   19  C   UNL     1     -42.845  57.624 -54.951  1.00  0.00    -0.058 A 
HETATM   20  C   UNL     1     -41.683  58.369 -54.728  1.00  0.00     0.007 A 
HETATM   21  C   UNL     1     -41.323  58.762 -53.434  1.00  0.00     0.007 A 
HETATM   22  C   UNL     1     -42.124  58.430 -52.337  1.00  0.00    -0.062 A 
HETATM   23  C   UNL     1     -41.752  58.856 -50.949  1.00  0.00     0.048 C 
HETATM   24  C   UNL     1     -43.288  57.688 -52.553  1.00  0.00     0.007 A 
HETATM   25  C   UNL     1     -43.645  57.293 -53.844  1.00  0.00     0.007 A 
ENDBRANCH  18  19
ENDBRANCH  17  18
ENDBRANCH   1  17
TORSDOF 5
ENDMDL
MODEL 7
REMARK VINA RESULT:      -7.3     14.563     18.015
REMARK  5 active torsions:
REMARK  status: ('A' for Active; 'I' for Inactive)
REMARK    1  A    between atoms: C_5  and  C_6 
REMARK    2  A    between atoms: C_6  and  C_7 
REMARK    3  A    between atoms: C_7  and  C_8 
REMARK       I    between atoms: C_8  and  N_9 
REMARK    4  A    between atoms: N_9  and  C_10 
REMARK    5  A    between atoms: C_12  and  C_13 
ROOT
HETATM    1  C   UNL     1     -35.548  41.415 -54.547  1.00  0.00     0.222 C 
HETATM    2  N   UNL     1     -35.808  41.804 -53.247  1.00  0.00    -0.327 N 
HETATM    3  O   UNL     1     -35.113  40.321 -54.900  1.00  0.00    -0.273 OA
HETATM    4  H   UNL     1     -36.024  42.778 -53.089  1.00  0.00     0.169 HD
ENDROOT
BRANCH   2   5
HETATM    5  C   UNL     1     -35.736  41.007 -52.083  1.00  0.00     0.035 A 
HETATM    6  C   UNL     1     -34.545  40.715 -51.410  1.00  0.00     0.042 A 
HETATM    7  C   UNL     1     -34.535  39.884 -50.275  1.00  0.00    -0.021 A 
HETATM    8  C   UNL     1     -35.749  39.353 -49.819  1.00  0.00     0.012 A 
HETATM    9  C   UNL     1     -36.942  39.637 -50.485  1.00  0.00     0.003 A 
HETATM   10  C   UNL     1     -36.933  40.454 -51.615  1.00  0.00     0.029 A 
BRANCH   7  11
HETATM   11  C   UNL     1     -33.293  39.553 -49.590  1.00  0.00     0.010 A 
HETATM   12  C   UNL     1     -31.959  39.962 -49.838  1.00  0.00     0.152 A 
HETATM   13  N   UNL     1     -31.082  39.436 -48.978  1.00  0.00    -0.187 NA
HETATM   14  N   UNL     1     -31.850  38.686 -48.172  1.00  0.00    -0.289 N 
HETATM   15  H   UNL     1     -31.403  38.176 -47.418  1.00  0.00     0.188 HD
HETATM   16  C   UNL     1     -33.175  38.720 -48.498  1.00  0.00     0.123 A 
ENDBRANCH   7  11
ENDBRANCH   2   5
BRANCH   1  17
HETATM   17  C   UNL     1     -35.932  42.446 -55.600  1.00  0.00     0.108 C 
BRANCH  17  18
HETATM   18  C   UNL     1     -37.297  42.276 -56.265  1.00  0.00     0.047 C 
BRANCH  18  19
HETATM   19  C   UNL     1     -37.386  41.480 -57.546  1.00  0.00    -0.058 A 
HETATM   20  C   UNL     1     -37.811  40.148 -57.606  1.00  0.00     0.007 A 
HETATM   21  C   UNL     1     -37.915  39.486 -58.835  1.00  0.00     0.007 A 
HETATM   22  C   UNL     1     -37.610  40.144 -60.030  1.00  0.00    -0.062 A 
HETATM   23  C   UNL     1     -37.730  39.446 -61.351  1.00  0.00     0.048 C 
HETATM   24  C   UNL     1     -37.187  41.475 -59.978  1.00  0.00     0.007 A 
HETATM   25  C   UNL     1     -37.080  42.135 -58.751  1.00  0.00     0.007 A 
ENDBRANCH  18  19
ENDBRANCH  17  18
ENDBRANCH   1  17
TORSDOF 5
ENDMDL
MODEL 8
REMARK VINA RESULT:      -7.3      2.070      2.741
REMARK  5 active torsions:
REMARK  status: ('A' for Active; 'I' for Inactive)
REMARK    1  A    between atoms: C_5  and  C_6 
REMARK    2  A    between atoms: C_6  and  C_7 
REMARK    3  A    between atoms: C_7  and  C_8 
REMARK       I    between atoms: C_8  and  N_9 
REMARK    4  A    between atoms: N_9  and  C_10 
REMARK    5  A    between atoms: C_12  and  C_13 
ROOT
HETATM    1  C   UNL     1     -43.448  56.903 -54.622  1.00  0.00     0.222 C 
HETATM    2  N   UNL     1     -43.044  57.374 -55.857  1.00  0.00    -0.327 N 
HETATM    3  O   UNL     1     -44.355  56.100 -54.418  1.00  0.00    -0.273 OA
HETATM    4  H   UNL     1     -42.384  58.140 -55.867  1.00  0.00     0.169 HD
ENDROOT
BRANCH   2   5
HETATM    5  C   UNL     1     -43.503  56.959 -57.125  1.00  0.00     0.035 A 
HETATM    6  C   UNL     1     -44.414  57.683 -57.902  1.00  0.00     0.042 A 
HETATM    7  C   UNL     1     -44.861  57.195 -59.143  1.00  0.00    -0.021 A 
HETATM    8  C   UNL     1     -44.370  55.965 -59.600  1.00  0.00     0.012 A 
HETATM    9  C   UNL     1     -43.462  55.235 -58.832  1.00  0.00     0.003 A 
HETATM   10  C   UNL     1     -43.037  55.727 -57.599  1.00  0.00     0.029 A 
BRANCH   7  11
HETATM   11  C   UNL     1     -45.834  57.932 -59.940  1.00  0.00     0.010 A 
HETATM   12  C   UNL     1     -45.823  59.267 -60.415  1.00  0.00     0.152 A 
HETATM   13  N   UNL     1     -46.913  59.578 -61.123  1.00  0.00    -0.187 NA
HETATM   14  N   UNL     1     -47.629  58.443 -61.106  1.00  0.00    -0.289 N 
HETATM   15  H   UNL     1     -48.520  58.427 -61.590  1.00  0.00     0.188 HD
HETATM   16  C   UNL     1     -47.030  57.433 -60.410  1.00  0.00     0.123 A 
ENDBRANCH   7  11
ENDBRANCH   2   5
BRANCH   1  17
HETATM   17  C   UNL     1     -42.604  57.395 -53.455  1.00  0.00     0.108 C 
BRANCH  17  18
HETATM   18  C   UNL     1     -41.154  56.916 -53.403  1.00  0.00     0.047 C 
BRANCH  18  19
HETATM   19  C   UNL     1     -40.872  55.440 -53.562  1.00  0.00    -0.058 A 
HETATM   20  C   UNL     1     -41.078  54.495 -52.551  1.00  0.00     0.007 A 
HETATM   21  C   UNL     1     -40.841  53.136 -52.784  1.00  0.00     0.007 A 
HETATM   22  C   UNL     1     -40.406  52.690 -54.036  1.00  0.00    -0.062 A 
HETATM   23  C   UNL     1     -40.160  51.235 -54.298  1.00  0.00     0.048 C 
HETATM   24  C   UNL     1     -40.200  53.628 -55.051  1.00  0.00     0.007 A 
HETATM   25  C   UNL     1     -40.434  54.985 -54.817  1.00  0.00     0.007 A 
ENDBRANCH  18  19
ENDBRANCH  17  18
ENDBRANCH   1  17
TORSDOF 5
ENDMDL
MODEL 9
REMARK VINA RESULT:      -7.2      2.487      3.415
REMARK  5 active torsions:
REMARK  status: ('A' for Active; 'I' for Inactive)
REMARK    1  A    between atoms: C_5  and  C_6 
REMARK    2  A    between atoms: C_6  and  C_7 
REMARK    3  A    between atoms: C_7  and  C_8 
REMARK       I    between atoms: C_8  and  N_9 
REMARK    4  A    between atoms: N_9  and  C_10 
REMARK    5  A    between atoms: C_12  and  C_13 
ROOT
HETATM    1  C   UNL     1     -41.142  56.073 -54.358  1.00  0.00     0.222 C 
HETATM    2  N   UNL     1     -42.314  56.308 -55.052  1.00  0.00    -0.327 N 
HETATM    3  O   UNL     1     -40.023  55.956 -54.851  1.00  0.00    -0.273 OA
HETATM    4  H   UNL     1     -43.180  56.237 -54.536  1.00  0.00     0.169 HD
ENDROOT
BRANCH   2   5
HETATM    5  C   UNL     1     -42.456  56.568 -56.432  1.00  0.00     0.035 A 
HETATM    6  C   UNL     1     -42.162  57.799 -57.030  1.00  0.00     0.042 A 
HETATM    7  C   UNL     1     -42.360  58.006 -58.406  1.00  0.00    -0.021 A 
HETATM    8  C   UNL     1     -42.854  56.948 -59.182  1.00  0.00     0.012 A 
HETATM    9  C   UNL     1     -43.152  55.718 -58.595  1.00  0.00     0.003 A 
HETATM   10  C   UNL     1     -42.960  55.532 -57.226  1.00  0.00     0.029 A 
BRANCH   7  11
HETATM   11  C   UNL     1     -42.084  59.295 -59.026  1.00  0.00     0.010 A 
HETATM   12  C   UNL     1     -42.138  59.703 -60.382  1.00  0.00     0.152 A 
HETATM   13  N   UNL     1     -41.810  60.988 -60.554  1.00  0.00    -0.187 NA
HETATM   14  N   UNL     1     -41.544  61.410 -59.308  1.00  0.00    -0.289 N 
HETATM   15  H   UNL     1     -41.267  62.377 -59.176  1.00  0.00     0.188 HD
HETATM   16  C   UNL     1     -41.690  60.438 -58.362  1.00  0.00     0.123 A 
ENDBRANCH   7  11
ENDBRANCH   2   5
BRANCH   1  17
HETATM   17  C   UNL     1     -41.303  56.049 -52.845  1.00  0.00     0.108 C 
BRANCH  17  18
HETATM   18  C   UNL     1     -41.758  54.731 -52.221  1.00  0.00     0.047 C 
BRANCH  18  19
HETATM   19  C   UNL     1     -41.180  53.439 -52.751  1.00  0.00    -0.058 A 
HETATM   20  C   UNL     1     -41.542  52.871 -53.977  1.00  0.00     0.007 A 
HETATM   21  C   UNL     1     -40.929  51.696 -54.428  1.00  0.00     0.007 A 
HETATM   22  C   UNL     1     -39.933  51.072 -53.671  1.00  0.00    -0.062 A 
HETATM   23  C   UNL     1     -39.264  49.820 -54.152  1.00  0.00     0.048 C 
HETATM   24  C   UNL     1     -39.565  51.636 -52.447  1.00  0.00     0.007 A 
HETATM   25  C   UNL     1     -40.179  52.806 -51.995  1.00  0.00     0.007 A 
ENDBRANCH  18  19
ENDBRANCH  17  18
ENDBRANCH   1  17
TORSDOF 5
ENDMDL
MODEL 10
REMARK VINA RESULT:      -7.2      2.975      7.577
REMARK  5 active torsions:
REMARK  status: ('A' for Active; 'I' for Inactive)
REMARK    1  A    between atoms: C_5  and  C_6 
REMARK    2  A    between atoms: C_6  and  C_7 
REMARK    3  A    between atoms: C_7  and  C_8 
REMARK       I    between atoms: C_8  and  N_9 
REMARK    4  A    between atoms: N_9  and  C_10 
REMARK    5  A    between atoms: C_12  and  C_13 
ROOT
HETATM    1  C   UNL     1     -43.079  56.447 -52.282  1.00  0.00     0.222 C 
HETATM    2  N   UNL     1     -41.963  55.761 -52.720  1.00  0.00    -0.327 N 
HETATM    3  O   UNL     1     -43.655  56.280 -51.210  1.00  0.00    -0.273 OA
HETATM    4  H   UNL     1     -41.682  55.899 -53.681  1.00  0.00     0.169 HD
ENDROOT
BRANCH   2   5
HETATM    5  C   UNL     1     -41.198  54.819 -51.999  1.00  0.00     0.035 A 
HETATM    6  C   UNL     1     -40.892  53.537 -52.468  1.00  0.00     0.042 A 
HETATM    7  C   UNL     1     -40.155  52.632 -51.684  1.00  0.00    -0.021 A 
HETATM    8  C   UNL     1     -39.720  53.038 -50.416  1.00  0.00     0.012 A 
HETATM    9  C   UNL     1     -40.021  54.313 -49.938  1.00  0.00     0.003 A 
HETATM   10  C   UNL     1     -40.762  55.196 -50.723  1.00  0.00     0.029 A 
BRANCH   7  11
HETATM   11  C   UNL     1     -39.861  51.285 -52.158  1.00  0.00     0.010 A 
HETATM   12  C   UNL     1     -39.800  50.757 -53.471  1.00  0.00     0.152 A 
HETATM   13  N   UNL     1     -39.495  49.456 -53.497  1.00  0.00    -0.187 NA
HETATM   14  N   UNL     1     -39.359  49.143 -52.199  1.00  0.00    -0.289 N 
HETATM   15  H   UNL     1     -39.120  48.188 -51.956  1.00  0.00     0.188 HD
HETATM   16  C   UNL     1     -39.570  50.199 -51.360  1.00  0.00     0.123 A 
ENDBRANCH   7  11
ENDBRANCH   2   5
BRANCH   1  17
HETATM   17  C   UNL     1     -43.543  57.555 -53.218  1.00  0.00     0.108 C 
BRANCH  17  18
HETATM   18  C   UNL     1     -44.552  57.169 -54.297  1.00  0.00     0.047 C 
BRANCH  18  19
HETATM   19  C   UNL     1     -44.074  57.044 -55.725  1.00  0.00    -0.058 A 
HETATM   20  C   UNL     1     -44.291  58.018 -56.706  1.00  0.00     0.007 A 
HETATM   21  C   UNL     1     -43.777  57.858 -57.998  1.00  0.00     0.007 A 
HETATM   22  C   UNL     1     -43.025  56.728 -58.334  1.00  0.00    -0.062 A 
HETATM   23  C   UNL     1     -42.462  56.553 -59.712  1.00  0.00     0.048 C 
HETATM   24  C   UNL     1     -42.804  55.752 -57.359  1.00  0.00     0.007 A 
HETATM   25  C   UNL     1     -43.319  55.910 -56.070  1.00  0.00     0.007 A 
ENDBRANCH  18  19
ENDBRANCH  17  18
ENDBRANCH   1  17
TORSDOF 5
ENDMDL
