MODEL 1
REMARK VINA RESULT:      -8.8      0.000      0.000
REMARK  6 active torsions:
REMARK  status: ('A' for Active; 'I' for Inactive)
REMARK    1  A    between atoms: C_4  and  O_5 
REMARK    2  A    between atoms: O_5  and  C_6 
REMARK    3  A    between atoms: C_6  and  C_7 
REMARK       I    between atoms: C_7  and  N_8 
REMARK    4  A    between atoms: N_8  and  C_9 
REMARK    5  A    between atoms: C_9  and  C_10 
REMARK       I    between atoms: C_10  and  N_11 
REMARK    6  A    between atoms: N_11  and  N_12 
ROOT
HETATM    1  C   UNL     1     -41.144  58.376 -53.060  1.00  0.00     0.255 C 
HETATM    2  N   UNL     1     -42.191  57.888 -53.819  1.00  0.00    -0.245 N 
HETATM    3  O   UNL     1     -40.330  59.218 -53.446  1.00  0.00    -0.270 OA
HETATM    4  H   UNL     1     -42.787  57.157 -53.428  1.00  0.00     0.192 HD
ENDROOT
BRANCH   1   5
HETATM    5  C   UNL     1     -41.111  57.872 -51.612  1.00  0.00     0.227 C 
BRANCH   5   6
HETATM    6  N   UNL     1     -40.959  56.443 -51.360  1.00  0.00    -0.350 N 
HETATM    7  C   UNL     1     -42.081  55.694 -51.041  1.00  0.00     0.242 C 
HETATM    8  O   UNL     1     -43.102  56.196 -50.581  1.00  0.00    -0.271 OA
HETATM    9  H   UNL     1     -40.306  55.966 -51.973  1.00  0.00     0.163 HD
BRANCH   7  10
HETATM   10  C   UNL     1     -41.939  54.200 -51.299  1.00  0.00     0.278 C 
BRANCH  10  11
HETATM   11  O   UNL     1     -40.780  54.047 -52.122  1.00  0.00    -0.342 OA
BRANCH  11  12
HETATM   12  C   UNL     1     -40.346  52.749 -52.166  1.00  0.00     0.069 A 
HETATM   13  C   UNL     1     -40.174  52.061 -53.367  1.00  0.00     0.043 A 
HETATM   14  C   UNL     1     -39.763  50.722 -53.357  1.00  0.00    -0.059 A 
HETATM   15  C   UNL     1     -39.589  49.958 -54.637  1.00  0.00     0.048 C 
HETATM   16  C   UNL     1     -39.544  50.083 -52.129  1.00  0.00     0.007 A 
HETATM   17  C   UNL     1     -39.737  50.769 -50.929  1.00  0.00     0.003 A 
HETATM   18  C   UNL     1     -40.148  52.101 -50.948  1.00  0.00     0.037 A 
ENDBRANCH  11  12
ENDBRANCH  10  11
ENDBRANCH   7  10
ENDBRANCH   5   6
ENDBRANCH   1   5
BRANCH   2  19
HETATM   19  N   UNL     1     -42.239  58.157 -55.157  1.00  0.00    -0.166 NA
HETATM   20  C   UNL     1     -42.558  57.180 -55.941  1.00  0.00     0.157 A 
HETATM   21  C   UNL     1     -42.972  55.750 -55.581  1.00  0.00     0.277 A 
HETATM   22  C   UNL     1     -42.603  57.256 -57.396  1.00  0.00     0.028 A 
HETATM   23  O   UNL     1     -43.020  55.295 -54.457  1.00  0.00    -0.266 OA
HETATM   24  N   UNL     1     -43.259  55.138 -56.784  1.00  0.00    -0.321 N 
HETATM   25  C   UNL     1     -43.034  56.009 -57.847  1.00  0.00     0.048 A 
HETATM   26  H   UNL     1     -43.560  54.177 -56.859  1.00  0.00     0.169 HD
HETATM   27  C   UNL     1     -43.173  55.747 -59.193  1.00  0.00     0.032 A 
HETATM   28  C   UNL     1     -42.852  56.778 -60.086  1.00  0.00     0.021 A 
HETATM   29  C   UNL     1     -42.405  58.031 -59.615  1.00  0.00     0.012 A 
HETATM   30 BR   UNL     1     -41.959  59.382 -60.863  1.00  0.00    -0.051 Br
HETATM   31  C   UNL     1     -42.278  58.290 -58.251  1.00  0.00     0.035 A 
ENDBRANCH   2  19
TORSDOF 6
ENDMDL
MODEL 2
REMARK VINA RESULT:      -8.0      1.675      2.292
REMARK  6 active torsions:
REMARK  status: ('A' for Active; 'I' for Inactive)
REMARK    1  A    between atoms: C_4  and  O_5 
REMARK    2  A    between atoms: O_5  and  C_6 
REMARK    3  A    between atoms: C_6  and  C_7 
REMARK       I    between atoms: C_7  and  N_8 
REMARK    4  A    between atoms: N_8  and  C_9 
REMARK    5  A    between atoms: C_9  and  C_10 
REMARK       I    between atoms: C_10  and  N_11 
REMARK    6  A    between atoms: N_11  and  N_12 
ROOT
HETATM    1  C   UNL     1     -40.870  59.005 -52.870  1.00  0.00     0.255 C 
HETATM    2  N   UNL     1     -41.956  59.510 -53.559  1.00  0.00    -0.245 N 
HETATM    3  O   UNL     1     -39.691  59.211 -53.168  1.00  0.00    -0.270 OA
HETATM    4  H   UNL     1     -42.897  59.247 -53.263  1.00  0.00     0.192 HD
ENDROOT
BRANCH   1   5
HETATM    5  C   UNL     1     -41.223  58.226 -51.597  1.00  0.00     0.227 C 
BRANCH   5   6
HETATM    6  N   UNL     1     -41.160  56.768 -51.614  1.00  0.00    -0.350 N 
HETATM    7  C   UNL     1     -42.327  56.048 -51.812  1.00  0.00     0.242 C 
HETATM    8  O   UNL     1     -43.439  56.516 -51.588  1.00  0.00    -0.271 OA
HETATM    9  H   UNL     1     -40.350  56.379 -52.086  1.00  0.00     0.163 HD
BRANCH   7  10
HETATM   10  C   UNL     1     -42.116  54.628 -52.320  1.00  0.00     0.278 C 
BRANCH  10  11
HETATM   11  O   UNL     1     -40.740  54.320 -52.082  1.00  0.00    -0.342 OA
BRANCH  11  12
HETATM   12  C   UNL     1     -40.427  53.039 -52.448  1.00  0.00     0.069 A 
HETATM   13  C   UNL     1     -40.022  52.078 -51.522  1.00  0.00     0.043 A 
HETATM   14  C   UNL     1     -39.678  50.789 -51.951  1.00  0.00    -0.059 A 
HETATM   15  C   UNL     1     -39.222  49.746 -50.975  1.00  0.00     0.048 C 
HETATM   16  C   UNL     1     -39.730  50.488 -53.320  1.00  0.00     0.007 A 
HETATM   17  C   UNL     1     -40.117  51.459 -54.245  1.00  0.00     0.003 A 
HETATM   18  C   UNL     1     -40.456  52.739 -53.809  1.00  0.00     0.037 A 
ENDBRANCH  11  12
ENDBRANCH  10  11
ENDBRANCH   7  10
ENDBRANCH   5   6
ENDBRANCH   1   5
BRANCH   2  19
HETATM   19  N   UNL     1     -41.770  60.097 -54.778  1.00  0.00    -0.166 NA
HETATM   20  C   UNL     1     -42.182  59.441 -55.814  1.00  0.00     0.157 A 
HETATM   21  C   UNL     1     -42.933  58.108 -55.875  1.00  0.00     0.277 A 
HETATM   22  C   UNL     1     -42.019  59.874 -57.196  1.00  0.00     0.028 A 
HETATM   23  O   UNL     1     -43.222  57.421 -54.918  1.00  0.00    -0.266 OA
HETATM   24  N   UNL     1     -43.182  57.889 -57.214  1.00  0.00    -0.321 N 
HETATM   25  C   UNL     1     -42.640  58.911 -57.990  1.00  0.00     0.048 A 
HETATM   26  H   UNL     1     -43.666  57.075 -57.563  1.00  0.00     0.169 HD
HETATM   27  C   UNL     1     -42.653  59.021 -59.365  1.00  0.00     0.032 A 
HETATM   28  C   UNL     1     -42.007  60.130 -59.927  1.00  0.00     0.021 A 
HETATM   29  C   UNL     1     -41.372  61.089 -59.111  1.00  0.00     0.012 A 
HETATM   30 BR   UNL     1     -40.491  62.555 -59.922  1.00  0.00    -0.051 Br
HETATM   31  C   UNL     1     -41.373  60.975 -57.721  1.00  0.00     0.035 A 
ENDBRANCH   2  19
TORSDOF 6
ENDMDL
MODEL 3
REMARK VINA RESULT:      -8.0      2.838      7.962
REMARK  6 active torsions:
REMARK  status: ('A' for Active; 'I' for Inactive)
REMARK    1  A    between atoms: C_4  and  O_5 
REMARK    2  A    between atoms: O_5  and  C_6 
REMARK    3  A    between atoms: C_6  and  C_7 
REMARK       I    between atoms: C_7  and  N_8 
REMARK    4  A    between atoms: N_8  and  C_9 
REMARK    5  A    between atoms: C_9  and  C_10 
REMARK       I    between atoms: C_10  and  N_11 
REMARK    6  A    between atoms: N_11  and  N_12 
ROOT
HETATM    1  C   UNL     1     -42.564  57.081 -52.488  1.00  0.00     0.255 C 
HETATM    2  N   UNL     1     -41.291  56.575 -52.306  1.00  0.00    -0.245 N 
HETATM    3  O   UNL     1     -43.554  56.404 -52.777  1.00  0.00    -0.270 OA
HETATM    4  H   UNL     1     -40.524  57.220 -52.113  1.00  0.00     0.192 HD
ENDROOT
BRANCH   1   5
HETATM    5  C   UNL     1     -42.707  58.579 -52.196  1.00  0.00     0.227 C 
BRANCH   5   6
HETATM    6  N   UNL     1     -43.017  59.492 -53.292  1.00  0.00    -0.350 N 
HETATM    7  C   UNL     1     -42.036  59.772 -54.231  1.00  0.00     0.242 C 
HETATM    8  O   UNL     1     -40.839  59.627 -54.000  1.00  0.00    -0.271 OA
HETATM    9  H   UNL     1     -43.946  59.390 -53.686  1.00  0.00     0.163 HD
BRANCH   7  10
HETATM   10  C   UNL     1     -42.563  60.283 -55.564  1.00  0.00     0.278 C 
BRANCH  10  11
HETATM   11  O   UNL     1     -41.484  60.159 -56.493  1.00  0.00    -0.342 OA
BRANCH  11  12
HETATM   12  C   UNL     1     -41.869  59.541 -57.652  1.00  0.00     0.069 A 
HETATM   13  C   UNL     1     -42.187  58.184 -57.702  1.00  0.00     0.043 A 
HETATM   14  C   UNL     1     -42.541  57.590 -58.921  1.00  0.00    -0.059 A 
HETATM   15  C   UNL     1     -42.869  56.128 -59.001  1.00  0.00     0.048 C 
HETATM   16  C   UNL     1     -42.553  58.371 -60.085  1.00  0.00     0.007 A 
HETATM   17  C   UNL     1     -42.215  59.724 -60.033  1.00  0.00     0.003 A 
HETATM   18  C   UNL     1     -41.862  60.307 -58.817  1.00  0.00     0.037 A 
ENDBRANCH  11  12
ENDBRANCH  10  11
ENDBRANCH   7  10
ENDBRANCH   5   6
ENDBRANCH   1   5
BRANCH   2  19
HETATM   19  N   UNL     1     -41.017  55.288 -52.672  1.00  0.00    -0.166 NA
HETATM   20  C   UNL     1     -40.811  54.438 -51.719  1.00  0.00     0.157 A 
HETATM   21  C   UNL     1     -40.904  54.646 -50.204  1.00  0.00     0.277 A 
HETATM   22  C   UNL     1     -40.447  53.039 -51.911  1.00  0.00     0.028 A 
HETATM   23  O   UNL     1     -41.151  55.698 -49.655  1.00  0.00    -0.266 OA
HETATM   24  N   UNL     1     -40.646  53.409 -49.649  1.00  0.00    -0.321 N 
HETATM   25  C   UNL     1     -40.367  52.471 -50.640  1.00  0.00     0.048 A 
HETATM   26  H   UNL     1     -40.636  53.240 -48.654  1.00  0.00     0.169 HD
HETATM   27  C   UNL     1     -40.029  51.145 -50.472  1.00  0.00     0.032 A 
HETATM   28  C   UNL     1     -39.756  50.400 -51.627  1.00  0.00     0.021 A 
HETATM   29  C   UNL     1     -39.829  50.992 -52.906  1.00  0.00     0.012 A 
HETATM   30 BR   UNL     1     -39.426  49.949 -54.432  1.00  0.00    -0.051 Br
HETATM   31  C   UNL     1     -40.183  52.332 -53.066  1.00  0.00     0.035 A 
ENDBRANCH   2  19
TORSDOF 6
ENDMDL
MODEL 4
REMARK VINA RESULT:      -8.0      3.463      7.825
REMARK  6 active torsions:
REMARK  status: ('A' for Active; 'I' for Inactive)
REMARK    1  A    between atoms: C_4  and  O_5 
REMARK    2  A    between atoms: O_5  and  C_6 
REMARK    3  A    between atoms: C_6  and  C_7 
REMARK       I    between atoms: C_7  and  N_8 
REMARK    4  A    between atoms: N_8  and  C_9 
REMARK    5  A    between atoms: C_9  and  C_10 
REMARK       I    between atoms: C_10  and  N_11 
REMARK    6  A    between atoms: N_11  and  N_12 
ROOT
HETATM    1  C   UNL     1     -41.551  59.169 -54.138  1.00  0.00     0.255 C 
HETATM    2  N   UNL     1     -42.224  57.995 -53.857  1.00  0.00    -0.245 N 
HETATM    3  O   UNL     1     -40.456  59.480 -53.665  1.00  0.00    -0.270 OA
HETATM    4  H   UNL     1     -43.150  57.845 -54.262  1.00  0.00     0.192 HD
ENDROOT
BRANCH   1   5
HETATM    5  C   UNL     1     -42.220  60.054 -55.196  1.00  0.00     0.227 C 
BRANCH   5   6
HETATM    6  N   UNL     1     -42.195  59.636 -56.594  1.00  0.00    -0.350 N 
HETATM    7  C   UNL     1     -43.297  58.977 -57.117  1.00  0.00     0.242 C 
HETATM    8  O   UNL     1     -44.109  58.385 -56.413  1.00  0.00    -0.271 OA
HETATM    9  H   UNL     1     -41.770  60.299 -57.233  1.00  0.00     0.163 HD
BRANCH   7  10
HETATM   10  C   UNL     1     -43.410  59.041 -58.634  1.00  0.00     0.278 C 
BRANCH  10  11
HETATM   11  O   UNL     1     -42.775  57.860 -59.131  1.00  0.00    -0.342 OA
BRANCH  11  12
HETATM   12  C   UNL     1     -43.681  56.920 -59.541  1.00  0.00     0.069 A 
HETATM   13  C   UNL     1     -44.942  57.263 -60.028  1.00  0.00     0.043 A 
HETATM   14  C   UNL     1     -45.847  56.261 -60.402  1.00  0.00    -0.059 A 
HETATM   15  C   UNL     1     -47.216  56.608 -60.910  1.00  0.00     0.048 C 
HETATM   16  C   UNL     1     -45.475  54.916 -60.264  1.00  0.00     0.007 A 
HETATM   17  C   UNL     1     -44.219  54.578 -59.758  1.00  0.00     0.003 A 
HETATM   18  C   UNL     1     -43.325  55.581 -59.387  1.00  0.00     0.037 A 
ENDBRANCH  11  12
ENDBRANCH  10  11
ENDBRANCH   7  10
ENDBRANCH   5   6
ENDBRANCH   1   5
BRANCH   2  19
HETATM   19  N   UNL     1     -41.797  57.200 -52.832  1.00  0.00    -0.166 NA
HETATM   20  C   UNL     1     -41.436  55.996 -53.134  1.00  0.00     0.157 A 
HETATM   21  C   UNL     1     -41.342  55.334 -54.513  1.00  0.00     0.277 A 
HETATM   22  C   UNL     1     -41.010  54.985 -52.174  1.00  0.00     0.028 A 
HETATM   23  O   UNL     1     -41.651  55.856 -55.563  1.00  0.00    -0.266 OA
HETATM   24  N   UNL     1     -40.851  54.067 -54.277  1.00  0.00    -0.321 N 
HETATM   25  C   UNL     1     -40.666  53.854 -52.913  1.00  0.00     0.048 A 
HETATM   26  H   UNL     1     -40.685  53.392 -55.009  1.00  0.00     0.169 HD
HETATM   27  C   UNL     1     -40.228  52.703 -52.293  1.00  0.00     0.032 A 
HETATM   28  C   UNL     1     -40.155  52.715 -50.894  1.00  0.00     0.021 A 
HETATM   29  C   UNL     1     -40.518  53.863 -50.159  1.00  0.00     0.012 A 
HETATM   30 BR   UNL     1     -40.427  53.818 -48.269  1.00  0.00    -0.051 Br
HETATM   31  C   UNL     1     -40.950  55.026 -50.795  1.00  0.00     0.035 A 
ENDBRANCH   2  19
TORSDOF 6
ENDMDL
MODEL 5
REMARK VINA RESULT:      -7.9      4.111      9.416
REMARK  6 active torsions:
REMARK  status: ('A' for Active; 'I' for Inactive)
REMARK    1  A    between atoms: C_4  and  O_5 
REMARK    2  A    between atoms: O_5  and  C_6 
REMARK    3  A    between atoms: C_6  and  C_7 
REMARK       I    between atoms: C_7  and  N_8 
REMARK    4  A    between atoms: N_8  and  C_9 
REMARK    5  A    between atoms: C_9  and  C_10 
REMARK       I    between atoms: C_10  and  N_11 
REMARK    6  A    between atoms: N_11  and  N_12 
ROOT
HETATM    1  C   UNL     1     -43.056  56.758 -55.992  1.00  0.00     0.255 C 
HETATM    2  N   UNL     1     -43.153  56.073 -54.796  1.00  0.00    -0.245 N 
HETATM    3  O   UNL     1     -42.603  56.285 -57.037  1.00  0.00    -0.270 OA
HETATM    4  H   UNL     1     -43.500  56.563 -53.970  1.00  0.00     0.192 HD
ENDROOT
BRANCH   1   5
HETATM    5  C   UNL     1     -43.665  58.165 -55.977  1.00  0.00     0.227 C 
BRANCH   5   6
HETATM    6  N   UNL     1     -43.361  59.085 -57.069  1.00  0.00    -0.350 N 
HETATM    7  C   UNL     1     -42.224  59.873 -56.986  1.00  0.00     0.242 C 
HETATM    8  O   UNL     1     -41.678  60.137 -55.919  1.00  0.00    -0.271 OA
HETATM    9  H   UNL     1     -43.544  58.722 -57.999  1.00  0.00     0.163 HD
BRANCH   7  10
HETATM   10  C   UNL     1     -41.714  60.390 -58.324  1.00  0.00     0.278 C 
BRANCH  10  11
HETATM   11  O   UNL     1     -40.860  61.496 -58.024  1.00  0.00    -0.342 OA
BRANCH  11  12
HETATM   12  C   UNL     1     -40.425  62.134 -59.155  1.00  0.00     0.069 A 
HETATM   13  C   UNL     1     -39.408  63.088 -59.128  1.00  0.00     0.043 A 
HETATM   14  C   UNL     1     -39.023  63.739 -60.307  1.00  0.00    -0.059 A 
HETATM   15  C   UNL     1     -37.945  64.782 -60.297  1.00  0.00     0.048 C 
HETATM   16  C   UNL     1     -39.683  63.430 -61.505  1.00  0.00     0.007 A 
HETATM   17  C   UNL     1     -40.714  62.489 -61.524  1.00  0.00     0.003 A 
HETATM   18  C   UNL     1     -41.091  61.848 -60.346  1.00  0.00     0.037 A 
ENDBRANCH  11  12
ENDBRANCH  10  11
ENDBRANCH   7  10
ENDBRANCH   5   6
ENDBRANCH   1   5
BRANCH   2  19
HETATM   19  N   UNL     1     -42.520  54.871 -54.653  1.00  0.00    -0.166 NA
HETATM   20  C   UNL     1     -41.858  54.683 -53.558  1.00  0.00     0.157 A 
HETATM   21  C   UNL     1     -41.734  55.598 -52.336  1.00  0.00     0.277 A 
HETATM   22  C   UNL     1     -41.073  53.494 -53.250  1.00  0.00     0.028 A 
HETATM   23  O   UNL     1     -42.226  56.702 -52.234  1.00  0.00    -0.266 OA
HETATM   24  N   UNL     1     -40.964  54.898 -51.431  1.00  0.00    -0.321 N 
HETATM   25  C   UNL     1     -40.565  53.674 -51.964  1.00  0.00     0.048 A 
HETATM   26  H   UNL     1     -40.710  55.259 -50.523  1.00  0.00     0.169 HD
HETATM   27  C   UNL     1     -39.761  52.722 -51.375  1.00  0.00     0.032 A 
HETATM   28  C   UNL     1     -39.465  51.576 -52.126  1.00  0.00     0.021 A 
HETATM   29  C   UNL     1     -39.976  51.414 -53.431  1.00  0.00     0.012 A 
HETATM   30 BR   UNL     1     -39.526  49.859 -54.412  1.00  0.00    -0.051 Br
HETATM   31  C   UNL     1     -40.798  52.377 -54.014  1.00  0.00     0.035 A 
ENDBRANCH   2  19
TORSDOF 6
ENDMDL
MODEL 6
REMARK VINA RESULT:      -7.9      3.341      7.410
REMARK  6 active torsions:
REMARK  status: ('A' for Active; 'I' for Inactive)
REMARK    1  A    between atoms: C_4  and  O_5 
REMARK    2  A    between atoms: O_5  and  C_6 
REMARK    3  A    between atoms: C_6  and  C_7 
REMARK       I    between atoms: C_7  and  N_8 
REMARK    4  A    between atoms: N_8  and  C_9 
REMARK    5  A    between atoms: C_9  and  C_10 
REMARK       I    between atoms: C_10  and  N_11 
REMARK    6  A    between atoms: N_11  and  N_12 
ROOT
HETATM    1  C   UNL     1     -43.061  56.956 -52.074  1.00  0.00     0.255 C 
HETATM    2  N   UNL     1     -41.733  56.679 -52.340  1.00  0.00    -0.245 N 
HETATM    3  O   UNL     1     -43.814  56.225 -51.427  1.00  0.00    -0.270 OA
HETATM    4  H   UNL     1     -41.199  57.323 -52.924  1.00  0.00     0.192 HD
ENDROOT
BRANCH   1   5
HETATM    5  C   UNL     1     -43.539  58.329 -52.559  1.00  0.00     0.227 C 
BRANCH   5   6
HETATM    6  N   UNL     1     -43.452  58.653 -53.979  1.00  0.00    -0.350 N 
HETATM    7  C   UNL     1     -44.356  58.076 -54.857  1.00  0.00     0.242 C 
HETATM    8  O   UNL     1     -44.958  57.038 -54.598  1.00  0.00    -0.271 OA
HETATM    9  H   UNL     1     -43.240  59.624 -54.185  1.00  0.00     0.163 HD
BRANCH   7  10
HETATM   10  C   UNL     1     -44.534  58.829 -56.168  1.00  0.00     0.278 C 
BRANCH  10  11
HETATM   11  O   UNL     1     -43.473  58.396 -57.023  1.00  0.00    -0.342 OA
BRANCH  11  12
HETATM   12  C   UNL     1     -43.900  57.494 -57.960  1.00  0.00     0.069 A 
HETATM   13  C   UNL     1     -45.158  57.579 -58.557  1.00  0.00     0.043 A 
HETATM   14  C   UNL     1     -45.562  56.610 -59.484  1.00  0.00    -0.059 A 
HETATM   15  C   UNL     1     -46.918  56.671 -60.124  1.00  0.00     0.048 C 
HETATM   16  C   UNL     1     -44.695  55.551 -59.789  1.00  0.00     0.007 A 
HETATM   17  C   UNL     1     -43.446  55.459 -59.174  1.00  0.00     0.003 A 
HETATM   18  C   UNL     1     -43.052  56.426 -58.251  1.00  0.00     0.037 A 
ENDBRANCH  11  12
ENDBRANCH  10  11
ENDBRANCH   7  10
ENDBRANCH   5   6
ENDBRANCH   1   5
BRANCH   2  19
HETATM   19  N   UNL     1     -41.238  55.432 -52.081  1.00  0.00    -0.166 NA
HETATM   20  C   UNL     1     -40.958  54.689 -53.100  1.00  0.00     0.157 A 
HETATM   21  C   UNL     1     -41.029  55.030 -54.592  1.00  0.00     0.277 A 
HETATM   22  C   UNL     1     -40.478  53.314 -53.026  1.00  0.00     0.028 A 
HETATM   23  O   UNL     1     -41.420  56.082 -55.053  1.00  0.00    -0.266 OA
HETATM   24  N   UNL     1     -40.568  53.907 -55.247  1.00  0.00    -0.321 N 
HETATM   25  C   UNL     1     -40.257  52.898 -54.338  1.00  0.00     0.048 A 
HETATM   26  H   UNL     1     -40.505  53.838 -56.252  1.00  0.00     0.169 HD
HETATM   27  C   UNL     1     -39.805  51.626 -54.616  1.00  0.00     0.032 A 
HETATM   28  C   UNL     1     -39.593  50.767 -53.530  1.00  0.00     0.021 A 
HETATM   29  C   UNL     1     -39.833  51.198 -52.208  1.00  0.00     0.012 A 
HETATM   30 BR   UNL     1     -39.555  49.991 -50.777  1.00  0.00    -0.051 Br
HETATM   31  C   UNL     1     -40.279  52.491 -51.936  1.00  0.00     0.035 A 
ENDBRANCH   2  19
TORSDOF 6
ENDMDL
MODEL 7
REMARK VINA RESULT:      -7.8      3.135      7.251
REMARK  6 active torsions:
REMARK  status: ('A' for Active; 'I' for Inactive)
REMARK    1  A    between atoms: C_4  and  O_5 
REMARK    2  A    between atoms: O_5  and  C_6 
REMARK    3  A    between atoms: C_6  and  C_7 
REMARK       I    between atoms: C_7  and  N_8 
REMARK    4  A    between atoms: N_8  and  C_9 
REMARK    5  A    between atoms: C_9  and  C_10 
REMARK       I    between atoms: C_10  and  N_11 
REMARK    6  A    between atoms: N_11  and  N_12 
ROOT
HETATM    1  C   UNL     1     -42.952  56.975 -51.375  1.00  0.00     0.255 C 
HETATM    2  N   UNL     1     -41.622  56.706 -51.640  1.00  0.00    -0.245 N 
HETATM    3  O   UNL     1     -43.731  56.192 -50.827  1.00  0.00    -0.270 OA
HETATM    4  H   UNL     1     -41.066  57.400 -52.141  1.00  0.00     0.192 HD
ENDROOT
BRANCH   1   5
HETATM    5  C   UNL     1     -43.399  58.400 -51.720  1.00  0.00     0.227 C 
BRANCH   5   6
HETATM    6  N   UNL     1     -43.344  58.848 -53.108  1.00  0.00    -0.350 N 
HETATM    7  C   UNL     1     -42.307  59.678 -53.506  1.00  0.00     0.242 C 
HETATM    8  O   UNL     1     -41.670  60.366 -52.714  1.00  0.00    -0.271 OA
HETATM    9  H   UNL     1     -43.596  58.145 -53.796  1.00  0.00     0.163 HD
BRANCH   7  10
HETATM   10  C   UNL     1     -42.031  59.673 -55.003  1.00  0.00     0.278 C 
BRANCH  10  11
HETATM   11  O   UNL     1     -43.238  59.230 -55.629  1.00  0.00    -0.342 OA
BRANCH  11  12
HETATM   12  C   UNL     1     -43.005  58.657 -56.850  1.00  0.00     0.069 A 
HETATM   13  C   UNL     1     -43.461  57.378 -57.172  1.00  0.00     0.043 A 
HETATM   14  C   UNL     1     -43.166  56.821 -58.423  1.00  0.00    -0.059 A 
HETATM   15  C   UNL     1     -43.630  55.441 -58.783  1.00  0.00     0.048 C 
HETATM   16  C   UNL     1     -42.395  57.557 -59.335  1.00  0.00     0.007 A 
HETATM   17  C   UNL     1     -41.925  58.828 -59.000  1.00  0.00     0.003 A 
HETATM   18  C   UNL     1     -42.221  59.374 -57.753  1.00  0.00     0.037 A 
ENDBRANCH  11  12
ENDBRANCH  10  11
ENDBRANCH   7  10
ENDBRANCH   5   6
ENDBRANCH   1   5
BRANCH   2  19
HETATM   19  N   UNL     1     -41.151  55.431 -51.506  1.00  0.00    -0.166 NA
HETATM   20  C   UNL     1     -40.941  54.765 -52.594  1.00  0.00     0.157 A 
HETATM   21  C   UNL     1     -41.074  55.227 -54.048  1.00  0.00     0.277 A 
HETATM   22  C   UNL     1     -40.498  53.377 -52.653  1.00  0.00     0.028 A 
HETATM   23  O   UNL     1     -41.456  56.322 -54.404  1.00  0.00    -0.266 OA
HETATM   24  N   UNL     1     -40.677  54.149 -54.812  1.00  0.00    -0.321 N 
HETATM   25  C   UNL     1     -40.351  53.064 -54.003  1.00  0.00     0.048 A 
HETATM   26  H   UNL     1     -40.663  54.161 -55.822  1.00  0.00     0.169 HD
HETATM   27  C   UNL     1     -39.950  51.807 -54.403  1.00  0.00     0.032 A 
HETATM   28  C   UNL     1     -39.710  50.858 -53.399  1.00  0.00     0.021 A 
HETATM   29  C   UNL     1     -39.876  51.187 -52.038  1.00  0.00     0.012 A 
HETATM   30 BR   UNL     1     -39.564  49.863 -50.722  1.00  0.00    -0.051 Br
HETATM   31  C   UNL     1     -40.271  52.465 -51.642  1.00  0.00     0.035 A 
ENDBRANCH   2  19
TORSDOF 6
ENDMDL
MODEL 8
REMARK VINA RESULT:      -7.5      3.855      4.789
REMARK  6 active torsions:
REMARK  status: ('A' for Active; 'I' for Inactive)
REMARK    1  A    between atoms: C_4  and  O_5 
REMARK    2  A    between atoms: O_5  and  C_6 
REMARK    3  A    between atoms: C_6  and  C_7 
REMARK       I    between atoms: C_7  and  N_8 
REMARK    4  A    between atoms: N_8  and  C_9 
REMARK    5  A    between atoms: C_9  and  C_10 
REMARK       I    between atoms: C_10  and  N_11 
REMARK    6  A    between atoms: N_11  and  N_12 
ROOT
HETATM    1  C   UNL     1     -44.710  58.094 -56.380  1.00  0.00     0.255 C 
HETATM    2  N   UNL     1     -44.809  57.708 -57.703  1.00  0.00    -0.245 N 
HETATM    3  O   UNL     1     -45.578  58.717 -55.763  1.00  0.00    -0.270 OA
HETATM    4  H   UNL     1     -44.019  57.234 -58.142  1.00  0.00     0.192 HD
ENDROOT
BRANCH   1   5
HETATM    5  C   UNL     1     -43.454  57.594 -55.658  1.00  0.00     0.227 C 
BRANCH   5   6
HETATM    6  N   UNL     1     -43.453  56.258 -55.072  1.00  0.00    -0.350 N 
HETATM    7  C   UNL     1     -42.879  55.214 -55.782  1.00  0.00     0.242 C 
HETATM    8  O   UNL     1     -42.728  55.247 -56.999  1.00  0.00    -0.271 OA
HETATM    9  H   UNL     1     -43.271  56.226 -54.074  1.00  0.00     0.163 HD
BRANCH   7  10
HETATM   10  C   UNL     1     -42.463  54.023 -54.930  1.00  0.00     0.278 C 
BRANCH  10  11
HETATM   11  O   UNL     1     -41.378  54.476 -54.116  1.00  0.00    -0.342 OA
BRANCH  11  12
HETATM   12  C   UNL     1     -40.716  53.439 -53.515  1.00  0.00     0.069 A 
HETATM   13  C   UNL     1     -40.384  52.270 -54.199  1.00  0.00     0.043 A 
HETATM   14  C   UNL     1     -39.739  51.222 -53.529  1.00  0.00    -0.059 A 
HETATM   15  C   UNL     1     -39.390  49.949 -54.241  1.00  0.00     0.048 C 
HETATM   16  C   UNL     1     -39.448  51.360 -52.164  1.00  0.00     0.007 A 
HETATM   17  C   UNL     1     -39.800  52.524 -51.479  1.00  0.00     0.003 A 
HETATM   18  C   UNL     1     -40.444  53.560 -52.153  1.00  0.00     0.037 A 
ENDBRANCH  11  12
ENDBRANCH  10  11
ENDBRANCH   7  10
ENDBRANCH   5   6
ENDBRANCH   1   5
BRANCH   2  19
HETATM   19  N   UNL     1     -45.812  58.212 -58.481  1.00  0.00    -0.166 NA
HETATM   20  C   UNL     1     -46.206  57.486 -59.475  1.00  0.00     0.157 A 
HETATM   21  C   UNL     1     -45.757  56.077 -59.878  1.00  0.00     0.277 A 
HETATM   22  C   UNL     1     -47.218  57.878 -60.448  1.00  0.00     0.028 A 
HETATM   23  O   UNL     1     -44.895  55.430 -59.322  1.00  0.00    -0.266 OA
HETATM   24  N   UNL     1     -46.529  55.746 -60.972  1.00  0.00    -0.321 N 
HETATM   25  C   UNL     1     -47.375  56.798 -61.316  1.00  0.00     0.048 A 
HETATM   26  H   UNL     1     -46.451  54.866 -61.460  1.00  0.00     0.169 HD
HETATM   27  C   UNL     1     -48.262  56.854 -62.370  1.00  0.00     0.032 A 
HETATM   28  C   UNL     1     -48.986  58.042 -62.539  1.00  0.00     0.021 A 
HETATM   29  C   UNL     1     -48.807  59.131 -61.660  1.00  0.00     0.012 A 
HETATM   30 BR   UNL     1     -49.791  60.722 -61.946  1.00  0.00    -0.051 Br
HETATM   31  C   UNL     1     -47.915  59.061 -60.590  1.00  0.00     0.035 A 
ENDBRANCH   2  19
TORSDOF 6
ENDMDL
MODEL 9
REMARK VINA RESULT:      -7.5      4.601      8.788
REMARK  6 active torsions:
REMARK  status: ('A' for Active; 'I' for Inactive)
REMARK    1  A    between atoms: C_4  and  O_5 
REMARK    2  A    between atoms: O_5  and  C_6 
REMARK    3  A    between atoms: C_6  and  C_7 
REMARK       I    between atoms: C_7  and  N_8 
REMARK    4  A    between atoms: N_8  and  C_9 
REMARK    5  A    between atoms: C_9  and  C_10 
REMARK       I    between atoms: C_10  and  N_11 
REMARK    6  A    between atoms: N_11  and  N_12 
ROOT
HETATM    1  C   UNL     1     -43.402  57.639 -53.304  1.00  0.00     0.255 C 
HETATM    2  N   UNL     1     -42.070  57.282 -53.217  1.00  0.00    -0.245 N 
HETATM    3  O   UNL     1     -44.342  56.841 -53.321  1.00  0.00    -0.270 OA
HETATM    4  H   UNL     1     -41.357  58.012 -53.256  1.00  0.00     0.192 HD
ENDROOT
BRANCH   1   5
HETATM    5  C   UNL     1     -43.666  59.148 -53.271  1.00  0.00     0.227 C 
BRANCH   5   6
HETATM    6  N   UNL     1     -43.595  59.856 -51.997  1.00  0.00    -0.350 N 
HETATM    7  C   UNL     1     -42.393  60.428 -51.612  1.00  0.00     0.242 C 
HETATM    8  O   UNL     1     -41.312  60.058 -52.060  1.00  0.00    -0.271 OA
HETATM    9  H   UNL     1     -44.409  60.420 -51.774  1.00  0.00     0.163 HD
BRANCH   7  10
HETATM   10  C   UNL     1     -42.523  61.542 -50.583  1.00  0.00     0.278 C 
BRANCH  10  11
HETATM   11  O   UNL     1     -43.913  61.869 -50.523  1.00  0.00    -0.342 OA
BRANCH  11  12
HETATM   12  C   UNL     1     -44.314  62.188 -49.253  1.00  0.00     0.069 A 
HETATM   13  C   UNL     1     -44.714  61.220 -48.332  1.00  0.00     0.043 A 
HETATM   14  C   UNL     1     -45.150  61.602 -47.056  1.00  0.00    -0.059 A 
HETATM   15  C   UNL     1     -45.603  60.579 -46.057  1.00  0.00     0.048 C 
HETATM   16  C   UNL     1     -45.193  62.964 -46.728  1.00  0.00     0.007 A 
HETATM   17  C   UNL     1     -44.811  63.930 -47.660  1.00  0.00     0.003 A 
HETATM   18  C   UNL     1     -44.380  63.542 -48.927  1.00  0.00     0.037 A 
ENDBRANCH  11  12
ENDBRANCH  10  11
ENDBRANCH   7  10
ENDBRANCH   5   6
ENDBRANCH   1   5
BRANCH   2  19
HETATM   19  N   UNL     1     -41.708  55.975 -53.379  1.00  0.00    -0.166 NA
HETATM   20  C   UNL     1     -41.259  55.357 -52.336  1.00  0.00     0.157 A 
HETATM   21  C   UNL     1     -41.139  55.859 -50.894  1.00  0.00     0.277 A 
HETATM   22  C   UNL     1     -40.770  53.983 -52.325  1.00  0.00     0.028 A 
HETATM   23  O   UNL     1     -41.419  56.977 -50.516  1.00  0.00    -0.266 OA
HETATM   24  N   UNL     1     -40.656  54.787 -50.172  1.00  0.00    -0.321 N 
HETATM   25  C   UNL     1     -40.428  53.694 -51.005  1.00  0.00     0.048 A 
HETATM   26  H   UNL     1     -40.472  54.825 -49.180  1.00  0.00     0.169 HD
HETATM   27  C   UNL     1     -39.915  52.463 -50.655  1.00  0.00     0.032 A 
HETATM   28  C   UNL     1     -39.741  51.524 -51.680  1.00  0.00     0.021 A 
HETATM   29  C   UNL     1     -40.080  51.836 -53.013  1.00  0.00     0.012 A 
HETATM   30 BR   UNL     1     -39.800  50.541 -54.365  1.00  0.00    -0.051 Br
HETATM   31  C   UNL     1     -40.608  53.080 -53.356  1.00  0.00     0.035 A 
ENDBRANCH   2  19
TORSDOF 6
ENDMDL
MODEL 10
REMARK VINA RESULT:      -7.4      2.487      3.736
REMARK  6 active torsions:
REMARK  status: ('A' for Active; 'I' for Inactive)
REMARK    1  A    between atoms: C_4  and  O_5 
REMARK    2  A    between atoms: O_5  and  C_6 
REMARK    3  A    between atoms: C_6  and  C_7 
REMARK       I    between atoms: C_7  and  N_8 
REMARK    4  A    between atoms: N_8  and  C_9 
REMARK    5  A    between atoms: C_9  and  C_10 
REMARK       I    between atoms: C_10  and  N_11 
REMARK    6  A    between atoms: N_11  and  N_12 
ROOT
HETATM    1  C   UNL     1     -44.034  60.194 -55.300  1.00  0.00     0.255 C 
HETATM    2  N   UNL     1     -44.181  58.829 -55.457  1.00  0.00    -0.245 N 
HETATM    3  O   UNL     1     -44.624  61.045 -55.970  1.00  0.00    -0.270 OA
HETATM    4  H   UNL     1     -43.615  58.200 -54.886  1.00  0.00     0.192 HD
ENDROOT
BRANCH   1   5
HETATM    5  C   UNL     1     -43.138  60.612 -54.128  1.00  0.00     0.227 C 
BRANCH   5   6
HETATM    6  N   UNL     1     -42.797  59.629 -53.106  1.00  0.00    -0.350 N 
HETATM    7  C   UNL     1     -41.469  59.272 -52.933  1.00  0.00     0.242 C 
HETATM    8  O   UNL     1     -40.625  59.420 -53.812  1.00  0.00    -0.271 OA
HETATM    9  H   UNL     1     -43.317  59.714 -52.239  1.00  0.00     0.163 HD
BRANCH   7  10
HETATM   10  C   UNL     1     -41.146  58.675 -51.571  1.00  0.00     0.278 C 
BRANCH  10  11
HETATM   11  O   UNL     1     -42.101  57.633 -51.356  1.00  0.00    -0.342 OA
BRANCH  11  12
HETATM   12  C   UNL     1     -41.511  56.400 -51.281  1.00  0.00     0.069 A 
HETATM   13  C   UNL     1     -41.429  55.545 -52.381  1.00  0.00     0.043 A 
HETATM   14  C   UNL     1     -40.847  54.278 -52.244  1.00  0.00    -0.059 A 
HETATM   15  C   UNL     1     -40.765  53.336 -53.409  1.00  0.00     0.048 C 
HETATM   16  C   UNL     1     -40.368  53.877 -50.989  1.00  0.00     0.007 A 
HETATM   17  C   UNL     1     -40.472  54.728 -49.887  1.00  0.00     0.003 A 
HETATM   18  C   UNL     1     -41.053  55.986 -50.031  1.00  0.00     0.037 A 
ENDBRANCH  11  12
ENDBRANCH  10  11
ENDBRANCH   7  10
ENDBRANCH   5   6
ENDBRANCH   1   5
BRANCH   2  19
HETATM   19  N   UNL     1     -44.839  58.341 -56.550  1.00  0.00    -0.166 NA
HETATM   20  C   UNL     1     -44.213  57.470 -57.272  1.00  0.00     0.157 A 
HETATM   21  C   UNL     1     -42.840  56.831 -57.038  1.00  0.00     0.277 A 
HETATM   22  C   UNL     1     -44.724  56.882 -58.504  1.00  0.00     0.028 A 
HETATM   23  O   UNL     1     -42.089  57.098 -56.123  1.00  0.00    -0.266 OA
HETATM   24  N   UNL     1     -42.675  55.931 -58.070  1.00  0.00    -0.321 N 
HETATM   25  C   UNL     1     -43.767  55.965 -58.935  1.00  0.00     0.048 A 
HETATM   26  H   UNL     1     -41.851  55.358 -58.179  1.00  0.00     0.169 HD
HETATM   27  C   UNL     1     -43.945  55.239 -60.093  1.00  0.00     0.032 A 
HETATM   28  C   UNL     1     -45.119  55.471 -60.823  1.00  0.00     0.021 A 
HETATM   29  C   UNL     1     -46.073  56.411 -60.380  1.00  0.00     0.012 A 
HETATM   30 BR   UNL     1     -47.629  56.706 -61.416  1.00  0.00    -0.051 Br
HETATM   31  C   UNL     1     -45.889  57.133 -59.202  1.00  0.00     0.035 A 
ENDBRANCH   2  19
TORSDOF 6
ENDMDL
