MODEL 1
REMARK VINA RESULT:      -9.2      0.000      0.000
REMARK  6 active torsions:
REMARK  status: ('A' for Active; 'I' for Inactive)
REMARK    1  A    between atoms: C_2  and  C_3 
REMARK    2  A    between atoms: C_3  and  C_4 
REMARK    3  A    between atoms: C_3  and  C_10 
REMARK    4  A    between atoms: C_10  and  C_11 
REMARK       I    between atoms: C_11  and  N_12 
REMARK    5  A    between atoms: N_12  and  C_13 
REMARK    6  A    between atoms: C_20  and  C_21 
REMARK       I    between atoms: C_21  and  N_22 
ROOT
HETATM    1  C   UNL     1     -42.363  56.078 -56.627  1.00  0.00     0.035 A 
HETATM    2  C   UNL     1     -43.029  55.496 -57.715  1.00  0.00     0.046 A 
HETATM    3  C   UNL     1     -43.921  56.276 -58.485  1.00  0.00     0.030 A 
HETATM    4  C   UNL     1     -44.121  57.606 -58.138  1.00  0.00     0.063 A 
HETATM    5  N   UNL     1     -45.027  58.085 -59.040  1.00  0.00    -0.277 N 
HETATM    6  H   UNL     1     -45.411  59.023 -59.087  1.00  0.00     0.189 HD
HETATM    7  N   UNL     1     -45.429  57.189 -59.956  1.00  0.00    -0.168 NA
HETATM    8  C   UNL     1     -44.752  56.065 -59.628  1.00  0.00     0.156 A 
HETATM    9  C   UNL     1     -43.473  58.219 -57.065  1.00  0.00     0.034 A 
HETATM   10  C   UNL     1     -42.587  57.428 -56.322  1.00  0.00     0.032 A 
ENDROOT
BRANCH   1  11
HETATM   11  N   UNL     1     -41.454  55.385 -55.799  1.00  0.00    -0.327 N 
HETATM   12  C   UNL     1     -41.712  54.287 -54.990  1.00  0.00     0.222 C 
HETATM   13  O   UNL     1     -42.794  53.736 -54.840  1.00  0.00    -0.273 OA
HETATM   14  H   UNL     1     -40.520  55.769 -55.751  1.00  0.00     0.169 HD
BRANCH  12  15
HETATM   15  C   UNL     1     -40.452  53.835 -54.262  1.00  0.00     0.113 C 
BRANCH  15  16
HETATM   16  C   UNL     1     -40.715  52.800 -53.144  1.00  0.00     0.030 C 
BRANCH  16  17
HETATM   17  C   UNL     1     -39.699  51.613 -53.143  1.00  0.00    -0.014 C 
HETATM   18  C   UNL     1     -39.918  50.678 -54.340  1.00  0.00     0.010 C 
HETATM   19  C   UNL     1     -39.659  50.788 -51.853  1.00  0.00     0.010 C 
ENDBRANCH  16  17
BRANCH  16  20
HETATM   20  C   UNL     1     -40.853  53.491 -51.788  1.00  0.00    -0.053 A 
HETATM   21  C   UNL     1     -39.748  53.751 -50.962  1.00  0.00     0.007 A 
HETATM   22  C   UNL     1     -39.908  54.393 -49.733  1.00  0.00     0.001 A 
HETATM   23  C   UNL     1     -41.176  54.787 -49.311  1.00  0.00     0.000 A 
HETATM   24  C   UNL     1     -42.283  54.535 -50.116  1.00  0.00     0.001 A 
HETATM   25  C   UNL     1     -42.123  53.893 -51.345  1.00  0.00     0.007 A 
ENDBRANCH  16  20
ENDBRANCH  15  16
ENDBRANCH  12  15
ENDBRANCH   1  11
BRANCH   8  26
HETATM   26  C   UNL     1     -44.908  54.829 -60.409  1.00  0.00     0.270 C 
HETATM   27  N   UNL     1     -45.086  53.707 -59.647  1.00  0.00    -0.365 N 
HETATM   28  H   UNL     1     -45.104  53.803 -58.639  1.00  0.00     0.159 HD
HETATM   29  H   UNL     1     -45.211  52.814 -60.097  1.00  0.00     0.159 HD
HETATM   30  O   UNL     1     -44.891  54.768 -61.634  1.00  0.00    -0.266 OA
ENDBRANCH   8  26
TORSDOF 6
ENDMDL
MODEL 2
REMARK VINA RESULT:      -9.1      1.357      2.989
REMARK  6 active torsions:
REMARK  status: ('A' for Active; 'I' for Inactive)
REMARK    1  A    between atoms: C_2  and  C_3 
REMARK    2  A    between atoms: C_3  and  C_4 
REMARK    3  A    between atoms: C_3  and  C_10 
REMARK    4  A    between atoms: C_10  and  C_11 
REMARK       I    between atoms: C_11  and  N_12 
REMARK    5  A    between atoms: N_12  and  C_13 
REMARK    6  A    between atoms: C_20  and  C_21 
REMARK       I    between atoms: C_21  and  N_22 
ROOT
HETATM    1  C   UNL     1     -42.800  55.875 -56.381  1.00  0.00     0.035 A 
HETATM    2  C   UNL     1     -43.425  55.371 -57.531  1.00  0.00     0.046 A 
HETATM    3  C   UNL     1     -43.475  56.164 -58.700  1.00  0.00     0.030 A 
HETATM    4  C   UNL     1     -42.907  57.431 -58.677  1.00  0.00     0.063 A 
HETATM    5  N   UNL     1     -43.120  57.948 -59.924  1.00  0.00    -0.277 N 
HETATM    6  H   UNL     1     -42.842  58.861 -60.265  1.00  0.00     0.189 HD
HETATM    7  N   UNL     1     -43.766  57.125 -60.765  1.00  0.00    -0.168 NA
HETATM    8  C   UNL     1     -43.991  56.016 -60.024  1.00  0.00     0.156 A 
HETATM    9  C   UNL     1     -42.274  57.963 -57.552  1.00  0.00     0.034 A 
HETATM   10  C   UNL     1     -42.230  57.155 -56.409  1.00  0.00     0.032 A 
ENDROOT
BRANCH   1  11
HETATM   11  N   UNL     1     -42.698  55.163 -55.167  1.00  0.00    -0.327 N 
HETATM   12  C   UNL     1     -43.401  55.386 -53.991  1.00  0.00     0.222 C 
HETATM   13  O   UNL     1     -44.229  56.266 -53.797  1.00  0.00    -0.273 OA
HETATM   14  H   UNL     1     -41.990  54.441 -55.136  1.00  0.00     0.169 HD
BRANCH  12  15
HETATM   15  C   UNL     1     -42.998  54.388 -52.913  1.00  0.00     0.113 C 
BRANCH  15  16
HETATM   16  C   UNL     1     -41.511  54.485 -52.497  1.00  0.00     0.030 C 
BRANCH  16  17
HETATM   17  C   UNL     1     -41.303  55.059 -51.059  1.00  0.00    -0.014 C 
HETATM   18  C   UNL     1     -42.431  54.632 -50.111  1.00  0.00     0.010 C 
HETATM   19  C   UNL     1     -41.121  56.577 -50.982  1.00  0.00     0.010 C 
ENDBRANCH  16  17
BRANCH  16  20
HETATM   20  C   UNL     1     -40.794  53.156 -52.736  1.00  0.00    -0.053 A 
HETATM   21  C   UNL     1     -40.052  52.513 -51.734  1.00  0.00     0.007 A 
HETATM   22  C   UNL     1     -39.417  51.294 -51.984  1.00  0.00     0.001 A 
HETATM   23  C   UNL     1     -39.517  50.699 -53.240  1.00  0.00     0.000 A 
HETATM   24  C   UNL     1     -40.248  51.324 -54.246  1.00  0.00     0.001 A 
HETATM   25  C   UNL     1     -40.883  52.543 -53.997  1.00  0.00     0.007 A 
ENDBRANCH  16  20
ENDBRANCH  15  16
ENDBRANCH  12  15
ENDBRANCH   1  11
BRANCH   8  26
HETATM   26  C   UNL     1     -44.682  54.850 -60.594  1.00  0.00     0.270 C 
HETATM   27  N   UNL     1     -45.050  53.912 -59.667  1.00  0.00    -0.365 N 
HETATM   28  H   UNL     1     -44.836  54.084 -58.692  1.00  0.00     0.159 HD
HETATM   29  H   UNL     1     -45.538  53.083 -59.964  1.00  0.00     0.159 HD
HETATM   30  O   UNL     1     -44.930  54.695 -61.784  1.00  0.00    -0.266 OA
ENDBRANCH   8  26
TORSDOF 6
ENDMDL
MODEL 3
REMARK VINA RESULT:      -8.8      1.857      3.387
REMARK  6 active torsions:
REMARK  status: ('A' for Active; 'I' for Inactive)
REMARK    1  A    between atoms: C_2  and  C_3 
REMARK    2  A    between atoms: C_3  and  C_4 
REMARK    3  A    between atoms: C_3  and  C_10 
REMARK    4  A    between atoms: C_10  and  C_11 
REMARK       I    between atoms: C_11  and  N_12 
REMARK    5  A    between atoms: N_12  and  C_13 
REMARK    6  A    between atoms: C_20  and  C_21 
REMARK       I    between atoms: C_21  and  N_22 
ROOT
HETATM    1  C   UNL     1     -43.408  56.225 -55.145  1.00  0.00     0.035 A 
HETATM    2  C   UNL     1     -43.077  56.127 -56.504  1.00  0.00     0.046 A 
HETATM    3  C   UNL     1     -43.423  57.179 -57.383  1.00  0.00     0.030 A 
HETATM    4  C   UNL     1     -44.090  58.285 -56.875  1.00  0.00     0.063 A 
HETATM    5  N   UNL     1     -44.293  59.110 -57.945  1.00  0.00    -0.277 N 
HETATM    6  H   UNL     1     -44.758  60.012 -57.946  1.00  0.00     0.189 HD
HETATM    7  N   UNL     1     -43.806  58.646 -59.107  1.00  0.00    -0.168 NA
HETATM    8  C   UNL     1     -43.262  57.452 -58.776  1.00  0.00     0.156 A 
HETATM    9  C   UNL     1     -44.431  58.419 -55.529  1.00  0.00     0.034 A 
HETATM   10  C   UNL     1     -44.071  57.367 -54.676  1.00  0.00     0.032 A 
ENDROOT
BRANCH   1  11
HETATM   11  N   UNL     1     -43.107  55.231 -54.189  1.00  0.00    -0.327 N 
HETATM   12  C   UNL     1     -42.019  55.183 -53.328  1.00  0.00     0.222 C 
HETATM   13  O   UNL     1     -41.110  56.000 -53.264  1.00  0.00    -0.273 OA
HETATM   14  H   UNL     1     -43.731  54.435 -54.169  1.00  0.00     0.169 HD
BRANCH  12  15
HETATM   15  C   UNL     1     -42.072  53.942 -52.447  1.00  0.00     0.113 C 
BRANCH  15  16
HETATM   16  C   UNL     1     -40.707  53.558 -51.829  1.00  0.00     0.030 C 
BRANCH  16  17
HETATM   17  C   UNL     1     -40.659  53.720 -50.276  1.00  0.00    -0.014 C 
HETATM   18  C   UNL     1     -41.891  54.466 -49.747  1.00  0.00     0.010 C 
HETATM   19  C   UNL     1     -39.391  54.379 -49.727  1.00  0.00     0.010 C 
ENDBRANCH  16  17
BRANCH  16  20
HETATM   20  C   UNL     1     -40.261  52.179 -52.316  1.00  0.00    -0.053 A 
HETATM   21  C   UNL     1     -39.851  51.168 -51.433  1.00  0.00     0.007 A 
HETATM   22  C   UNL     1     -39.459  49.916 -51.911  1.00  0.00     0.001 A 
HETATM   23  C   UNL     1     -39.473  49.655 -53.279  1.00  0.00     0.000 A 
HETATM   24  C   UNL     1     -39.876  50.647 -54.169  1.00  0.00     0.001 A 
HETATM   25  C   UNL     1     -40.267  51.899 -53.692  1.00  0.00     0.007 A 
ENDBRANCH  16  20
ENDBRANCH  15  16
ENDBRANCH  12  15
ENDBRANCH   1  11
BRANCH   8  26
HETATM   26  C   UNL     1     -42.602  56.612 -59.786  1.00  0.00     0.270 C 
HETATM   27  N   UNL     1     -41.340  57.026 -60.117  1.00  0.00    -0.365 N 
HETATM   28  H   UNL     1     -40.962  57.844 -59.656  1.00  0.00     0.159 HD
HETATM   29  H   UNL     1     -40.807  56.505 -60.795  1.00  0.00     0.159 HD
HETATM   30  O   UNL     1     -43.101  55.620 -60.306  1.00  0.00    -0.266 OA
ENDBRANCH   8  26
TORSDOF 6
ENDMDL
MODEL 4
REMARK VINA RESULT:      -8.5      2.501      4.320
REMARK  6 active torsions:
REMARK  status: ('A' for Active; 'I' for Inactive)
REMARK    1  A    between atoms: C_2  and  C_3 
REMARK    2  A    between atoms: C_3  and  C_4 
REMARK    3  A    between atoms: C_3  and  C_10 
REMARK    4  A    between atoms: C_10  and  C_11 
REMARK       I    between atoms: C_11  and  N_12 
REMARK    5  A    between atoms: N_12  and  C_13 
REMARK    6  A    between atoms: C_20  and  C_21 
REMARK       I    between atoms: C_21  and  N_22 
ROOT
HETATM    1  C   UNL     1     -42.747  56.075 -56.823  1.00  0.00     0.035 A 
HETATM    2  C   UNL     1     -42.401  57.433 -56.868  1.00  0.00     0.046 A 
HETATM    3  C   UNL     1     -42.426  58.118 -58.104  1.00  0.00     0.030 A 
HETATM    4  C   UNL     1     -42.788  57.421 -59.250  1.00  0.00     0.063 A 
HETATM    5  N   UNL     1     -42.709  58.329 -60.268  1.00  0.00    -0.277 N 
HETATM    6  H   UNL     1     -42.900  58.168 -61.251  1.00  0.00     0.189 HD
HETATM    7  N   UNL     1     -42.338  59.562 -59.887  1.00  0.00    -0.168 NA
HETATM    8  C   UNL     1     -42.162  59.449 -58.550  1.00  0.00     0.156 A 
HETATM    9  C   UNL     1     -43.142  56.071 -59.242  1.00  0.00     0.034 A 
HETATM   10  C   UNL     1     -43.118  55.417 -58.004  1.00  0.00     0.032 A 
ENDROOT
BRANCH   1  11
HETATM   11  N   UNL     1     -42.753  55.304 -55.641  1.00  0.00    -0.327 N 
HETATM   12  C   UNL     1     -43.550  55.479 -54.518  1.00  0.00     0.222 C 
HETATM   13  O   UNL     1     -44.384  56.359 -54.352  1.00  0.00    -0.273 OA
HETATM   14  H   UNL     1     -42.057  54.572 -55.587  1.00  0.00     0.169 HD
BRANCH  12  15
HETATM   15  C   UNL     1     -43.248  54.424 -53.461  1.00  0.00     0.113 C 
BRANCH  15  16
HETATM   16  C   UNL     1     -41.861  54.586 -52.797  1.00  0.00     0.030 C 
BRANCH  16  17
HETATM   17  C   UNL     1     -41.931  55.114 -51.329  1.00  0.00    -0.014 C 
HETATM   18  C   UNL     1     -43.272  54.770 -50.667  1.00  0.00     0.010 C 
HETATM   19  C   UNL     1     -41.649  56.610 -51.158  1.00  0.00     0.010 C 
ENDBRANCH  16  17
BRANCH  16  20
HETATM   20  C   UNL     1     -41.035  53.309 -52.950  1.00  0.00    -0.053 A 
HETATM   21  C   UNL     1     -40.248  52.795 -51.908  1.00  0.00     0.007 A 
HETATM   22  C   UNL     1     -39.513  51.619 -52.080  1.00  0.00     0.001 A 
HETATM   23  C   UNL     1     -39.556  50.939 -53.295  1.00  0.00     0.000 A 
HETATM   24  C   UNL     1     -40.331  51.436 -54.339  1.00  0.00     0.001 A 
HETATM   25  C   UNL     1     -41.066  52.611 -54.169  1.00  0.00     0.007 A 
ENDBRANCH  16  20
ENDBRANCH  15  16
ENDBRANCH  12  15
ENDBRANCH   1  11
BRANCH   8  26
HETATM   26  C   UNL     1     -41.754  60.604 -57.738  1.00  0.00     0.270 C 
HETATM   27  N   UNL     1     -42.718  61.044 -56.871  1.00  0.00    -0.365 N 
HETATM   28  H   UNL     1     -43.605  60.557 -56.846  1.00  0.00     0.159 HD
HETATM   29  H   UNL     1     -42.525  61.826 -56.267  1.00  0.00     0.159 HD
HETATM   30  O   UNL     1     -40.658  61.151 -57.797  1.00  0.00    -0.266 OA
ENDBRANCH   8  26
TORSDOF 6
ENDMDL
MODEL 5
REMARK VINA RESULT:      -8.3      2.702      8.646
REMARK  6 active torsions:
REMARK  status: ('A' for Active; 'I' for Inactive)
REMARK    1  A    between atoms: C_2  and  C_3 
REMARK    2  A    between atoms: C_3  and  C_4 
REMARK    3  A    between atoms: C_3  and  C_10 
REMARK    4  A    between atoms: C_10  and  C_11 
REMARK       I    between atoms: C_11  and  N_12 
REMARK    5  A    between atoms: N_12  and  C_13 
REMARK    6  A    between atoms: C_20  and  C_21 
REMARK       I    between atoms: C_21  and  N_22 
ROOT
HETATM    1  C   UNL     1     -41.021  54.396 -54.579  1.00  0.00     0.035 A 
HETATM    2  C   UNL     1     -40.601  53.066 -54.442  1.00  0.00     0.046 A 
HETATM    3  C   UNL     1     -40.271  52.567 -53.162  1.00  0.00     0.030 A 
HETATM    4  C   UNL     1     -40.367  53.414 -52.066  1.00  0.00     0.063 A 
HETATM    5  N   UNL     1     -39.981  52.665 -50.992  1.00  0.00    -0.277 N 
HETATM    6  H   UNL     1     -39.924  52.963 -50.024  1.00  0.00     0.189 HD
HETATM    7  N   UNL     1     -39.652  51.397 -51.286  1.00  0.00    -0.168 NA
HETATM    8  C   UNL     1     -39.828  51.319 -52.625  1.00  0.00     0.156 A 
HETATM    9  C   UNL     1     -40.786  54.742 -52.164  1.00  0.00     0.034 A 
HETATM   10  C   UNL     1     -41.115  55.211 -53.442  1.00  0.00     0.032 A 
ENDROOT
BRANCH   1  11
HETATM   11  N   UNL     1     -41.372  54.988 -55.811  1.00  0.00    -0.327 N 
HETATM   12  C   UNL     1     -42.640  55.116 -56.360  1.00  0.00     0.222 C 
HETATM   13  O   UNL     1     -43.686  54.713 -55.869  1.00  0.00    -0.273 OA
HETATM   14  H   UNL     1     -40.601  55.306 -56.383  1.00  0.00     0.169 HD
BRANCH  12  15
HETATM   15  C   UNL     1     -42.585  55.825 -57.708  1.00  0.00     0.113 C 
BRANCH  15  16
HETATM   16  C   UNL     1     -43.629  56.956 -57.861  1.00  0.00     0.030 C 
BRANCH  16  17
HETATM   17  C   UNL     1     -42.992  58.373 -58.019  1.00  0.00    -0.014 C 
HETATM   18  C   UNL     1     -41.968  58.409 -59.161  1.00  0.00     0.010 C 
HETATM   19  C   UNL     1     -42.359  58.951 -56.750  1.00  0.00     0.010 C 
ENDBRANCH  16  17
BRANCH  16  20
HETATM   20  C   UNL     1     -44.642  56.613 -58.952  1.00  0.00    -0.053 A 
HETATM   21  C   UNL     1     -45.873  57.279 -59.069  1.00  0.00     0.007 A 
HETATM   22  C   UNL     1     -46.772  56.947 -60.086  1.00  0.00     0.001 A 
HETATM   23  C   UNL     1     -46.453  55.946 -61.001  1.00  0.00     0.000 A 
HETATM   24  C   UNL     1     -45.238  55.276 -60.898  1.00  0.00     0.001 A 
HETATM   25  C   UNL     1     -44.339  55.606 -59.883  1.00  0.00     0.007 A 
ENDBRANCH  16  20
ENDBRANCH  15  16
ENDBRANCH  12  15
ENDBRANCH   1  11
BRANCH   8  26
HETATM   26  C   UNL     1     -39.578  50.066 -53.352  1.00  0.00     0.270 C 
HETATM   27  N   UNL     1     -39.368  48.984 -52.541  1.00  0.00    -0.365 N 
HETATM   28  H   UNL     1     -39.405  49.115 -51.537  1.00  0.00     0.159 HD
HETATM   29  H   UNL     1     -39.198  48.079 -52.951  1.00  0.00     0.159 HD
HETATM   30  O   UNL     1     -39.557  49.956 -54.573  1.00  0.00    -0.266 OA
ENDBRANCH   8  26
TORSDOF 6
ENDMDL
MODEL 6
REMARK VINA RESULT:      -8.3      3.981      6.163
REMARK  6 active torsions:
REMARK  status: ('A' for Active; 'I' for Inactive)
REMARK    1  A    between atoms: C_2  and  C_3 
REMARK    2  A    between atoms: C_3  and  C_4 
REMARK    3  A    between atoms: C_3  and  C_10 
REMARK    4  A    between atoms: C_10  and  C_11 
REMARK       I    between atoms: C_11  and  N_12 
REMARK    5  A    between atoms: N_12  and  C_13 
REMARK    6  A    between atoms: C_20  and  C_21 
REMARK       I    between atoms: C_21  and  N_22 
ROOT
HETATM    1  C   UNL     1     -44.033  56.961 -53.737  1.00  0.00     0.035 A 
HETATM    2  C   UNL     1     -44.311  57.672 -52.560  1.00  0.00     0.046 A 
HETATM    3  C   UNL     1     -44.981  58.914 -52.637  1.00  0.00     0.030 A 
HETATM    4  C   UNL     1     -45.343  59.404 -53.885  1.00  0.00     0.063 A 
HETATM    5  N   UNL     1     -45.952  60.603 -53.642  1.00  0.00    -0.277 N 
HETATM    6  H   UNL     1     -46.341  61.244 -54.325  1.00  0.00     0.189 HD
HETATM    7  N   UNL     1     -46.031  60.934 -52.343  1.00  0.00    -0.168 NA
HETATM    8  C   UNL     1     -45.436  59.898 -51.708  1.00  0.00     0.156 A 
HETATM    9  C   UNL     1     -45.087  58.723 -55.076  1.00  0.00     0.034 A 
HETATM   10  C   UNL     1     -44.429  57.491 -54.973  1.00  0.00     0.032 A 
ENDROOT
BRANCH   1  11
HETATM   11  N   UNL     1     -43.370  55.716 -53.766  1.00  0.00    -0.327 N 
HETATM   12  C   UNL     1     -42.001  55.483 -53.758  1.00  0.00     0.222 C 
HETATM   13  O   UNL     1     -41.122  56.334 -53.744  1.00  0.00    -0.273 OA
HETATM   14  H   UNL     1     -43.963  54.902 -53.857  1.00  0.00     0.169 HD
BRANCH  12  15
HETATM   15  C   UNL     1     -41.699  53.990 -53.790  1.00  0.00     0.113 C 
BRANCH  15  16
HETATM   16  C   UNL     1     -40.723  53.527 -52.683  1.00  0.00     0.030 C 
BRANCH  16  17
HETATM   17  C   UNL     1     -41.262  53.770 -51.237  1.00  0.00    -0.014 C 
HETATM   18  C   UNL     1     -42.796  53.775 -51.198  1.00  0.00     0.010 C 
HETATM   19  C   UNL     1     -40.731  55.028 -50.544  1.00  0.00     0.010 C 
ENDBRANCH  16  17
BRANCH  16  20
HETATM   20  C   UNL     1     -40.263  52.091 -52.933  1.00  0.00    -0.053 A 
HETATM   21  C   UNL     1     -40.247  51.521 -54.216  1.00  0.00     0.007 A 
HETATM   22  C   UNL     1     -39.811  50.208 -54.410  1.00  0.00     0.001 A 
HETATM   23  C   UNL     1     -39.382  49.447 -53.325  1.00  0.00     0.000 A 
HETATM   24  C   UNL     1     -39.391  49.997 -52.046  1.00  0.00     0.001 A 
HETATM   25  C   UNL     1     -39.828  51.309 -51.851  1.00  0.00     0.007 A 
ENDBRANCH  16  20
ENDBRANCH  15  16
ENDBRANCH  12  15
ENDBRANCH   1  11
BRANCH   8  26
HETATM   26  C   UNL     1     -45.324  59.870 -50.242  1.00  0.00     0.270 C 
HETATM   27  N   UNL     1     -44.220  60.518 -49.756  1.00  0.00    -0.365 N 
HETATM   28  H   UNL     1     -43.588  60.959 -50.413  1.00  0.00     0.159 HD
HETATM   29  H   UNL     1     -44.065  60.559 -48.761  1.00  0.00     0.159 HD
HETATM   30  O   UNL     1     -46.126  59.332 -49.488  1.00  0.00    -0.266 OA
ENDBRANCH   8  26
TORSDOF 6
ENDMDL
MODEL 7
REMARK VINA RESULT:      -8.3      1.947      3.635
REMARK  6 active torsions:
REMARK  status: ('A' for Active; 'I' for Inactive)
REMARK    1  A    between atoms: C_2  and  C_3 
REMARK    2  A    between atoms: C_3  and  C_4 
REMARK    3  A    between atoms: C_3  and  C_10 
REMARK    4  A    between atoms: C_10  and  C_11 
REMARK       I    between atoms: C_11  and  N_12 
REMARK    5  A    between atoms: N_12  and  C_13 
REMARK    6  A    between atoms: C_20  and  C_21 
REMARK       I    between atoms: C_21  and  N_22 
ROOT
HETATM    1  C   UNL     1     -42.391  57.237 -55.510  1.00  0.00     0.035 A 
HETATM    2  C   UNL     1     -42.683  57.116 -56.876  1.00  0.00     0.046 A 
HETATM    3  C   UNL     1     -42.651  58.264 -57.700  1.00  0.00     0.030 A 
HETATM    4  C   UNL     1     -42.335  59.490 -57.130  1.00  0.00     0.063 A 
HETATM    5  N   UNL     1     -42.394  60.393 -58.153  1.00  0.00    -0.277 N 
HETATM    6  H   UNL     1     -42.225  61.392 -58.102  1.00  0.00     0.189 HD
HETATM    7  N   UNL     1     -42.710  59.863 -59.346  1.00  0.00    -0.168 NA
HETATM    8  C   UNL     1     -42.869  58.546 -59.083  1.00  0.00     0.156 A 
HETATM    9  C   UNL     1     -42.034  59.647 -55.776  1.00  0.00     0.034 A 
HETATM   10  C   UNL     1     -42.065  58.494 -54.982  1.00  0.00     0.032 A 
ENDROOT
BRANCH   1  11
HETATM   11  N   UNL     1     -42.396  56.154 -54.606  1.00  0.00    -0.327 N 
HETATM   12  C   UNL     1     -43.277  55.928 -53.557  1.00  0.00     0.222 C 
HETATM   13  O   UNL     1     -44.203  56.654 -53.220  1.00  0.00    -0.273 OA
HETATM   14  H   UNL     1     -41.636  55.493 -54.703  1.00  0.00     0.169 HD
BRANCH  12  15
HETATM   15  C   UNL     1     -42.940  54.634 -52.826  1.00  0.00     0.113 C 
BRANCH  15  16
HETATM   16  C   UNL     1     -41.491  54.581 -52.289  1.00  0.00     0.030 C 
BRANCH  16  17
HETATM   17  C   UNL     1     -41.380  54.905 -50.765  1.00  0.00    -0.014 C 
HETATM   18  C   UNL     1     -42.682  54.582 -50.021  1.00  0.00     0.010 C 
HETATM   19  C   UNL     1     -40.943  56.334 -50.430  1.00  0.00     0.010 C 
ENDBRANCH  16  17
BRANCH  16  20
HETATM   20  C   UNL     1     -40.814  53.270 -52.688  1.00  0.00    -0.053 A 
HETATM   21  C   UNL     1     -40.987  52.692 -53.955  1.00  0.00     0.007 A 
HETATM   22  C   UNL     1     -40.344  51.497 -54.290  1.00  0.00     0.001 A 
HETATM   23  C   UNL     1     -39.518  50.865 -53.364  1.00  0.00     0.000 A 
HETATM   24  C   UNL     1     -39.337  51.424 -52.103  1.00  0.00     0.001 A 
HETATM   25  C   UNL     1     -39.978  52.617 -51.767  1.00  0.00     0.007 A 
ENDBRANCH  16  20
ENDBRANCH  15  16
ENDBRANCH  12  15
ENDBRANCH   1  11
BRANCH   8  26
HETATM   26  C   UNL     1     -43.218  57.596 -60.149  1.00  0.00     0.270 C 
HETATM   27  N   UNL     1     -44.436  57.830 -60.728  1.00  0.00    -0.365 N 
HETATM   28  H   UNL     1     -44.986  58.614 -60.400  1.00  0.00     0.159 HD
HETATM   29  H   UNL     1     -44.755  57.235 -61.476  1.00  0.00     0.159 HD
HETATM   30  O   UNL     1     -42.508  56.668 -60.521  1.00  0.00    -0.266 OA
ENDBRANCH   8  26
TORSDOF 6
ENDMDL
MODEL 8
REMARK VINA RESULT:      -8.1      1.941      3.374
REMARK  6 active torsions:
REMARK  status: ('A' for Active; 'I' for Inactive)
REMARK    1  A    between atoms: C_2  and  C_3 
REMARK    2  A    between atoms: C_3  and  C_4 
REMARK    3  A    between atoms: C_3  and  C_10 
REMARK    4  A    between atoms: C_10  and  C_11 
REMARK       I    between atoms: C_11  and  N_12 
REMARK    5  A    between atoms: N_12  and  C_13 
REMARK    6  A    between atoms: C_20  and  C_21 
REMARK       I    between atoms: C_21  and  N_22 
ROOT
HETATM    1  C   UNL     1     -43.234  56.953 -55.989  1.00  0.00     0.035 A 
HETATM    2  C   UNL     1     -43.514  57.271 -57.326  1.00  0.00     0.046 A 
HETATM    3  C   UNL     1     -44.697  57.976 -57.641  1.00  0.00     0.030 A 
HETATM    4  C   UNL     1     -45.561  58.332 -56.613  1.00  0.00     0.063 A 
HETATM    5  N   UNL     1     -46.600  58.980 -57.219  1.00  0.00    -0.277 N 
HETATM    6  H   UNL     1     -47.420  59.376 -56.773  1.00  0.00     0.189 HD
HETATM    7  N   UNL     1     -46.486  59.090 -58.553  1.00  0.00    -0.168 NA
HETATM    8  C   UNL     1     -45.313  58.476 -58.829  1.00  0.00     0.156 A 
HETATM    9  C   UNL     1     -45.313  58.036 -55.272  1.00  0.00     0.034 A 
HETATM   10  C   UNL     1     -44.129  57.344 -54.984  1.00  0.00     0.032 A 
ENDROOT
BRANCH   1  11
HETATM   11  N   UNL     1     -42.082  56.253 -55.572  1.00  0.00    -0.327 N 
HETATM   12  C   UNL     1     -41.929  54.881 -55.427  1.00  0.00     0.222 C 
HETATM   13  O   UNL     1     -42.788  54.031 -55.621  1.00  0.00    -0.273 OA
HETATM   14  H   UNL     1     -41.294  56.824 -55.296  1.00  0.00     0.169 HD
BRANCH  12  15
HETATM   15  C   UNL     1     -40.520  54.532 -54.961  1.00  0.00     0.113 C 
BRANCH  15  16
HETATM   16  C   UNL     1     -40.442  54.107 -53.477  1.00  0.00     0.030 C 
BRANCH  16  17
HETATM   17  C   UNL     1     -41.637  54.628 -52.616  1.00  0.00    -0.014 C 
HETATM   18  C   UNL     1     -41.211  55.773 -51.689  1.00  0.00     0.010 C 
HETATM   19  C   UNL     1     -42.369  53.559 -51.800  1.00  0.00     0.010 C 
ENDBRANCH  16  17
BRANCH  16  20
HETATM   20  C   UNL     1     -40.210  52.601 -53.357  1.00  0.00    -0.053 A 
HETATM   21  C   UNL     1     -40.530  51.708 -54.391  1.00  0.00     0.007 A 
HETATM   22  C   UNL     1     -40.295  50.338 -54.251  1.00  0.00     0.001 A 
HETATM   23  C   UNL     1     -39.736  49.841 -53.076  1.00  0.00     0.000 A 
HETATM   24  C   UNL     1     -39.413  50.713 -52.040  1.00  0.00     0.001 A 
HETATM   25  C   UNL     1     -39.648  52.082 -52.179  1.00  0.00     0.007 A 
ENDBRANCH  16  20
ENDBRANCH  15  16
ENDBRANCH  12  15
ENDBRANCH   1  11
BRANCH   8  26
HETATM   26  C   UNL     1     -44.810  58.387 -60.208  1.00  0.00     0.270 C 
HETATM   27  N   UNL     1     -45.060  57.187 -60.816  1.00  0.00    -0.365 N 
HETATM   28  H   UNL     1     -45.560  56.476 -60.297  1.00  0.00     0.159 HD
HETATM   29  H   UNL     1     -44.760  57.038 -61.766  1.00  0.00     0.159 HD
HETATM   30  O   UNL     1     -44.220  59.286 -60.798  1.00  0.00    -0.266 OA
ENDBRANCH   8  26
TORSDOF 6
ENDMDL
MODEL 9
REMARK VINA RESULT:      -8.0      5.190      7.303
REMARK  6 active torsions:
REMARK  status: ('A' for Active; 'I' for Inactive)
REMARK    1  A    between atoms: C_2  and  C_3 
REMARK    2  A    between atoms: C_3  and  C_4 
REMARK    3  A    between atoms: C_3  and  C_10 
REMARK    4  A    between atoms: C_10  and  C_11 
REMARK       I    between atoms: C_11  and  N_12 
REMARK    5  A    between atoms: N_12  and  C_13 
REMARK    6  A    between atoms: C_20  and  C_21 
REMARK       I    between atoms: C_21  and  N_22 
ROOT
HETATM    1  C   UNL     1     -44.709  57.988 -52.116  1.00  0.00     0.035 A 
HETATM    2  C   UNL     1     -44.903  58.704 -50.927  1.00  0.00     0.046 A 
HETATM    3  C   UNL     1     -45.331  60.050 -50.985  1.00  0.00     0.030 A 
HETATM    4  C   UNL     1     -45.544  60.633 -52.227  1.00  0.00     0.063 A 
HETATM    5  N   UNL     1     -45.934  61.916 -51.964  1.00  0.00    -0.277 N 
HETATM    6  H   UNL     1     -46.170  62.636 -52.638  1.00  0.00     0.189 HD
HETATM    7  N   UNL     1     -46.006  62.220 -50.658  1.00  0.00    -0.168 NA
HETATM    8  C   UNL     1     -45.639  61.075 -50.039  1.00  0.00     0.156 A 
HETATM    9  C   UNL     1     -45.366  59.950 -53.431  1.00  0.00     0.034 A 
HETATM   10  C   UNL     1     -44.949  58.615 -53.347  1.00  0.00     0.032 A 
ENDROOT
BRANCH   1  11
HETATM   11  N   UNL     1     -44.283  56.644 -52.164  1.00  0.00    -0.327 N 
HETATM   12  C   UNL     1     -43.032  56.137 -51.840  1.00  0.00     0.222 C 
HETATM   13  O   UNL     1     -42.062  56.785 -51.469  1.00  0.00    -0.273 OA
HETATM   14  H   UNL     1     -44.954  55.981 -52.530  1.00  0.00     0.169 HD
BRANCH  12  15
HETATM   15  C   UNL     1     -42.988  54.625 -52.022  1.00  0.00     0.113 C 
BRANCH  15  16
HETATM   16  C   UNL     1     -42.471  54.179 -53.409  1.00  0.00     0.030 C 
BRANCH  16  17
HETATM   17  C   UNL     1     -42.076  55.371 -54.339  1.00  0.00    -0.014 C 
HETATM   18  C   UNL     1     -42.752  55.266 -55.712  1.00  0.00     0.010 C 
HETATM   19  C   UNL     1     -40.571  55.581 -54.529  1.00  0.00     0.010 C 
ENDBRANCH  16  17
BRANCH  16  20
HETATM   20  C   UNL     1     -41.373  53.125 -53.264  1.00  0.00    -0.053 A 
HETATM   21  C   UNL     1     -40.596  53.006 -52.102  1.00  0.00     0.007 A 
HETATM   22  C   UNL     1     -39.608  52.024 -51.999  1.00  0.00     0.001 A 
HETATM   23  C   UNL     1     -39.383  51.146 -53.057  1.00  0.00     0.000 A 
HETATM   24  C   UNL     1     -40.144  51.250 -54.217  1.00  0.00     0.001 A 
HETATM   25  C   UNL     1     -41.132  52.232 -54.321  1.00  0.00     0.007 A 
ENDBRANCH  16  20
ENDBRANCH  15  16
ENDBRANCH  12  15
ENDBRANCH   1  11
BRANCH   8  26
HETATM   26  C   UNL     1     -45.596  60.986 -48.572  1.00  0.00     0.270 C 
HETATM   27  N   UNL     1     -44.334  60.853 -48.058  1.00  0.00    -0.365 N 
HETATM   28  H   UNL     1     -43.550  60.833 -48.698  1.00  0.00     0.159 HD
HETATM   29  H   UNL     1     -44.206  60.794 -47.061  1.00  0.00     0.159 HD
HETATM   30  O   UNL     1     -46.577  61.029 -47.838  1.00  0.00    -0.266 OA
ENDBRANCH   8  26
TORSDOF 6
ENDMDL
MODEL 10
REMARK VINA RESULT:      -7.9      5.200      7.306
REMARK  6 active torsions:
REMARK  status: ('A' for Active; 'I' for Inactive)
REMARK    1  A    between atoms: C_2  and  C_3 
REMARK    2  A    between atoms: C_3  and  C_4 
REMARK    3  A    between atoms: C_3  and  C_10 
REMARK    4  A    between atoms: C_10  and  C_11 
REMARK       I    between atoms: C_11  and  N_12 
REMARK    5  A    between atoms: N_12  and  C_13 
REMARK    6  A    between atoms: C_20  and  C_21 
REMARK       I    between atoms: C_21  and  N_22 
ROOT
HETATM    1  C   UNL     1     -44.124  58.538 -52.485  1.00  0.00     0.035 A 
HETATM    2  C   UNL     1     -44.398  58.958 -51.175  1.00  0.00     0.046 A 
HETATM    3  C   UNL     1     -45.245  60.069 -50.962  1.00  0.00     0.030 A 
HETATM    4  C   UNL     1     -45.783  60.723 -52.063  1.00  0.00     0.063 A 
HETATM    5  N   UNL     1     -46.535  61.741 -51.549  1.00  0.00    -0.277 N 
HETATM    6  H   UNL     1     -47.071  62.430 -52.065  1.00  0.00     0.189 HD
HETATM    7  N   UNL     1     -46.547  61.803 -50.207  1.00  0.00    -0.168 NA
HETATM    8  C   UNL     1     -45.755  60.774 -49.829  1.00  0.00     0.156 A 
HETATM    9  C   UNL     1     -45.536  60.331 -53.379  1.00  0.00     0.034 A 
HETATM   10  C   UNL     1     -44.700  59.222 -53.564  1.00  0.00     0.032 A 
ENDROOT
BRANCH   1  11
HETATM   11  N   UNL     1     -43.293  57.443 -52.802  1.00  0.00    -0.327 N 
HETATM   12  C   UNL     1     -41.913  57.360 -52.673  1.00  0.00     0.222 C 
HETATM   13  O   UNL     1     -41.168  58.245 -52.274  1.00  0.00    -0.273 OA
HETATM   14  H   UNL     1     -43.753  56.646 -53.222  1.00  0.00     0.169 HD
BRANCH  12  15
HETATM   15  C   UNL     1     -41.402  55.996 -53.120  1.00  0.00     0.113 C 
BRANCH  15  16
HETATM   16  C   UNL     1     -41.089  55.033 -51.951  1.00  0.00     0.030 C 
BRANCH  16  17
HETATM   17  C   UNL     1     -42.249  54.921 -50.911  1.00  0.00    -0.014 C 
HETATM   18  C   UNL     1     -41.722  54.575 -49.511  1.00  0.00     0.010 C 
HETATM   19  C   UNL     1     -43.372  53.950 -51.285  1.00  0.00     0.010 C 
ENDBRANCH  16  17
BRANCH  16  20
HETATM   20  C   UNL     1     -40.605  53.682 -52.478  1.00  0.00    -0.053 A 
HETATM   21  C   UNL     1     -39.889  52.778 -51.678  1.00  0.00     0.007 A 
HETATM   22  C   UNL     1     -39.469  51.547 -52.188  1.00  0.00     0.001 A 
HETATM   23  C   UNL     1     -39.762  51.201 -53.505  1.00  0.00     0.000 A 
HETATM   24  C   UNL     1     -40.470  52.087 -54.313  1.00  0.00     0.001 A 
HETATM   25  C   UNL     1     -40.889  53.317 -53.804  1.00  0.00     0.007 A 
ENDBRANCH  16  20
ENDBRANCH  15  16
ENDBRANCH  12  15
ENDBRANCH   1  11
BRANCH   8  26
HETATM   26  C   UNL     1     -45.511  60.486 -48.408  1.00  0.00     0.270 C 
HETATM   27  N   UNL     1     -44.398  61.099 -47.899  1.00  0.00    -0.365 N 
HETATM   28  H   UNL     1     -43.847  61.689 -48.509  1.00  0.00     0.159 HD
HETATM   29  H   UNL     1     -44.157  60.968 -46.929  1.00  0.00     0.159 HD
HETATM   30  O   UNL     1     -46.219  59.772 -47.706  1.00  0.00    -0.266 OA
ENDBRANCH   8  26
TORSDOF 6
ENDMDL
