MODEL 1
REMARK VINA RESULT:      -7.9      0.000      0.000
REMARK  8 active torsions:
REMARK  status: ('A' for Active; 'I' for Inactive)
REMARK    1  A    between atoms: C_2  and  N_3 
REMARK    2  A    between atoms: N_3  and  C_5 
REMARK    3  A    between atoms: N_3  and  C_30 
REMARK    4  A    between atoms: C_5  and  C_6 
REMARK    5  A    between atoms: C_6  and  N_7 
REMARK       I    between atoms: N_7  and  C_8 
REMARK    6  A    between atoms: C_8  and  C_9 
REMARK    7  A    between atoms: C_9  and  O_10 
REMARK    8  A    between atoms: N_11  and  C_12 
ROOT
HETATM    1  C   UNL     1     -41.313  55.051 -53.665  1.00  0.00     0.256 C 
HETATM    2  N   UNL     1     -41.866  55.818 -52.527  1.00  0.00    -0.254 N 
HETATM    3  C   UNL     1     -41.543  55.472 -51.218  1.00  0.00     0.330 C 
HETATM    4  O   UNL     1     -41.778  56.148 -50.219  1.00  0.00    -0.246 OA
HETATM    5  N   UNL     1     -40.936  54.276 -51.004  1.00  0.00    -0.308 N 
HETATM    6  C   UNL     1     -40.535  53.375 -51.972  1.00  0.00     0.048 A 
HETATM    7  C   UNL     1     -40.688  53.715 -53.305  1.00  0.00     0.034 A 
HETATM    8  C   UNL     1     -39.960  52.161 -51.590  1.00  0.00     0.030 A 
HETATM    9  C   UNL     1     -39.525  51.265 -52.564  1.00  0.00     0.002 A 
HETATM   10  C   UNL     1     -39.646  51.597 -53.911  1.00  0.00     0.001 A 
HETATM   11  C   UNL     1     -40.212  52.818 -54.279  1.00  0.00     0.015 A 
HETATM   12  H   UNL     1     -40.749  54.079 -50.027  1.00  0.00     0.170 HD
ENDROOT
BRANCH   1  13
HETATM   13  C   UNL     1     -42.501  54.715 -54.698  1.00  0.00     0.279 C 
HETATM   14  N   UNL     1     -42.343  55.213 -55.991  1.00  0.00    -0.355 N 
HETATM   15  H   UNL     1     -41.396  55.465 -56.267  1.00  0.00     0.162 HD
HETATM   16  O   UNL     1     -43.565  54.175 -54.383  1.00  0.00    -0.268 OA
BRANCH  14  17
HETATM   17  C   UNL     1     -43.322  54.889 -57.006  1.00  0.00     0.150 C 
BRANCH  17  18
HETATM   18  C   UNL     1     -43.303  55.896 -58.173  1.00  0.00     0.254 C 
BRANCH  18  19
HETATM   19  N   UNL     1     -44.662  56.510 -58.488  1.00  0.00    -0.070 N 
HETATM   20  H   UNL     1     -45.334  55.999 -57.900  1.00  0.00     0.279 HD
BRANCH  19  21
HETATM   21  C   UNL     1     -45.109  56.255 -59.923  1.00  0.00     0.230 C 
HETATM   22  C   UNL     1     -44.811  54.823 -60.335  1.00  0.00     0.034 C 
ENDBRANCH  19  21
BRANCH  19  23
HETATM   23  C   UNL     1     -44.817  57.968 -58.107  1.00  0.00     0.230 C 
HETATM   24  C   UNL     1     -44.948  58.135 -56.605  1.00  0.00     0.034 C 
ENDBRANCH  19  23
ENDBRANCH  18  19
ENDBRANCH  17  18
ENDBRANCH  14  17
ENDBRANCH   1  13
BRANCH   1  25
HETATM   25  O   UNL     1     -40.250  55.811 -54.212  1.00  0.00    -0.359 OA
HETATM   26  H   UNL     1     -40.622  56.230 -55.005  1.00  0.00     0.213 HD
ENDBRANCH   1  25
BRANCH   2  27
HETATM   27  C   UNL     1     -42.703  56.984 -52.788  1.00  0.00     0.043 A 
HETATM   28  C   UNL     1     -42.155  58.158 -53.332  1.00  0.00     0.037 A 
HETATM   29  C   UNL     1     -42.914  59.328 -53.539  1.00  0.00    -0.054 A 
HETATM   30  C   UNL     1     -42.244  60.540 -54.131  1.00  0.00     0.049 C 
HETATM   31  C   UNL     1     -44.268  59.342 -53.173  1.00  0.00    -0.056 A 
HETATM   32  C   UNL     1     -45.132  60.553 -53.390  1.00  0.00     0.049 C 
HETATM   33  C   UNL     1     -44.830  58.181 -52.633  1.00  0.00     0.009 A 
HETATM   34  C   UNL     1     -44.061  57.026 -52.437  1.00  0.00     0.030 A 
ENDBRANCH   2  27
TORSDOF 8
ENDMDL
MODEL 2
REMARK VINA RESULT:      -7.9      1.544      1.726
REMARK  8 active torsions:
REMARK  status: ('A' for Active; 'I' for Inactive)
REMARK    1  A    between atoms: C_2  and  N_3 
REMARK    2  A    between atoms: N_3  and  C_5 
REMARK    3  A    between atoms: N_3  and  C_30 
REMARK    4  A    between atoms: C_5  and  C_6 
REMARK    5  A    between atoms: C_6  and  N_7 
REMARK       I    between atoms: N_7  and  C_8 
REMARK    6  A    between atoms: C_8  and  C_9 
REMARK    7  A    between atoms: C_9  and  O_10 
REMARK    8  A    between atoms: N_11  and  C_12 
ROOT
HETATM    1  C   UNL     1     -41.706  55.951 -53.190  1.00  0.00     0.256 C 
HETATM    2  N   UNL     1     -42.180  56.197 -51.809  1.00  0.00    -0.254 N 
HETATM    3  C   UNL     1     -41.763  55.378 -50.764  1.00  0.00     0.330 C 
HETATM    4  O   UNL     1     -41.928  55.604 -49.567  1.00  0.00    -0.246 OA
HETATM    5  N   UNL     1     -41.138  54.213 -51.073  1.00  0.00    -0.308 N 
HETATM    6  C   UNL     1     -40.804  53.774 -52.339  1.00  0.00     0.048 A 
HETATM    7  C   UNL     1     -41.053  54.601 -53.421  1.00  0.00     0.034 A 
HETATM    8  C   UNL     1     -40.199  52.525 -52.500  1.00  0.00     0.030 A 
HETATM    9  C   UNL     1     -39.831  52.093 -53.773  1.00  0.00     0.002 A 
HETATM   10  C   UNL     1     -40.049  52.919 -54.872  1.00  0.00     0.001 A 
HETATM   11  C   UNL     1     -40.644  54.169 -54.697  1.00  0.00     0.015 A 
HETATM   12  H   UNL     1     -40.881  53.657 -50.265  1.00  0.00     0.170 HD
ENDROOT
BRANCH   1  13
HETATM   13  C   UNL     1     -42.964  56.007 -54.193  1.00  0.00     0.279 C 
HETATM   14  N   UNL     1     -43.031  57.126 -55.023  1.00  0.00    -0.355 N 
HETATM   15  H   UNL     1     -42.165  57.643 -55.159  1.00  0.00     0.162 HD
HETATM   16  O   UNL     1     -43.905  55.210 -54.174  1.00  0.00    -0.268 OA
BRANCH  14  17
HETATM   17  C   UNL     1     -44.082  57.218 -56.014  1.00  0.00     0.150 C 
BRANCH  17  18
HETATM   18  C   UNL     1     -43.526  57.212 -57.451  1.00  0.00     0.254 C 
BRANCH  18  19
HETATM   19  N   UNL     1     -44.443  56.545 -58.470  1.00  0.00    -0.070 N 
HETATM   20  H   UNL     1     -45.110  55.992 -57.915  1.00  0.00     0.279 HD
BRANCH  19  21
HETATM   21  C   UNL     1     -43.716  55.533 -59.349  1.00  0.00     0.230 C 
HETATM   22  C   UNL     1     -44.616  54.352 -59.671  1.00  0.00     0.034 C 
ENDBRANCH  19  21
BRANCH  19  23
HETATM   23  C   UNL     1     -45.289  57.492 -59.296  1.00  0.00     0.230 C 
HETATM   24  C   UNL     1     -46.765  57.335 -58.976  1.00  0.00     0.034 C 
ENDBRANCH  19  23
ENDBRANCH  18  19
ENDBRANCH  17  18
ENDBRANCH  14  17
ENDBRANCH   1  13
BRANCH   1  25
HETATM   25  O   UNL     1     -40.688  56.897 -53.463  1.00  0.00    -0.359 OA
HETATM   26  H   UNL     1     -40.073  56.441 -54.061  1.00  0.00     0.213 HD
ENDBRANCH   1  25
BRANCH   2  27
HETATM   27  C   UNL     1     -43.038  57.346 -51.540  1.00  0.00     0.043 A 
HETATM   28  C   UNL     1     -42.489  58.624 -51.338  1.00  0.00     0.037 A 
HETATM   29  C   UNL     1     -43.276  59.747 -51.011  1.00  0.00    -0.054 A 
HETATM   30  C   UNL     1     -42.603  61.080 -50.817  1.00  0.00     0.049 C 
HETATM   31  C   UNL     1     -44.661  59.594 -50.857  1.00  0.00    -0.056 A 
HETATM   32  C   UNL     1     -45.553  60.759 -50.530  1.00  0.00     0.049 C 
HETATM   33  C   UNL     1     -45.224  58.329 -51.057  1.00  0.00     0.009 A 
HETATM   34  C   UNL     1     -44.427  57.224 -51.385  1.00  0.00     0.030 A 
ENDBRANCH   2  27
TORSDOF 8
ENDMDL
MODEL 3
REMARK VINA RESULT:      -7.6      2.167      5.825
REMARK  8 active torsions:
REMARK  status: ('A' for Active; 'I' for Inactive)
REMARK    1  A    between atoms: C_2  and  N_3 
REMARK    2  A    between atoms: N_3  and  C_5 
REMARK    3  A    between atoms: N_3  and  C_30 
REMARK    4  A    between atoms: C_5  and  C_6 
REMARK    5  A    between atoms: C_6  and  N_7 
REMARK       I    between atoms: N_7  and  C_8 
REMARK    6  A    between atoms: C_8  and  C_9 
REMARK    7  A    between atoms: C_9  and  O_10 
REMARK    8  A    between atoms: N_11  and  C_12 
ROOT
HETATM    1  C   UNL     1     -43.306  55.319 -54.011  1.00  0.00     0.256 C 
HETATM    2  N   UNL     1     -42.324  55.218 -55.115  1.00  0.00    -0.254 N 
HETATM    3  C   UNL     1     -41.136  54.517 -54.941  1.00  0.00     0.330 C 
HETATM    4  O   UNL     1     -40.351  54.201 -55.833  1.00  0.00    -0.246 OA
HETATM    5  N   UNL     1     -40.782  54.159 -53.679  1.00  0.00    -0.308 N 
HETATM    6  C   UNL     1     -41.524  54.363 -52.531  1.00  0.00     0.048 A 
HETATM    7  C   UNL     1     -42.785  54.923 -52.642  1.00  0.00     0.034 A 
HETATM    8  C   UNL     1     -41.003  53.977 -51.295  1.00  0.00     0.030 A 
HETATM    9  C   UNL     1     -41.763  54.151 -50.139  1.00  0.00     0.002 A 
HETATM   10  C   UNL     1     -43.044  54.689 -50.229  1.00  0.00     0.001 A 
HETATM   11  C   UNL     1     -43.557  55.062 -51.473  1.00  0.00     0.015 A 
HETATM   12  H   UNL     1     -39.896  53.670 -53.623  1.00  0.00     0.170 HD
ENDROOT
BRANCH   1  13
HETATM   13  C   UNL     1     -43.784  56.850 -53.873  1.00  0.00     0.279 C 
HETATM   14  N   UNL     1     -42.821  57.750 -53.421  1.00  0.00    -0.355 N 
HETATM   15  H   UNL     1     -41.850  57.458 -53.509  1.00  0.00     0.162 HD
HETATM   16  O   UNL     1     -44.950  57.229 -54.014  1.00  0.00    -0.268 OA
BRANCH  14  17
HETATM   17  C   UNL     1     -43.140  59.160 -53.346  1.00  0.00     0.150 C 
BRANCH  17  18
HETATM   18  C   UNL     1     -41.891  60.024 -53.082  1.00  0.00     0.254 C 
BRANCH  18  19
HETATM   19  N   UNL     1     -41.501  60.122 -51.612  1.00  0.00    -0.070 N 
HETATM   20  H   UNL     1     -41.086  61.056 -51.502  1.00  0.00     0.279 HD
BRANCH  19  21
HETATM   21  C   UNL     1     -40.397  59.144 -51.225  1.00  0.00     0.230 C 
HETATM   22  C   UNL     1     -40.971  57.945 -50.489  1.00  0.00     0.034 C 
ENDBRANCH  19  21
BRANCH  19  23
HETATM   23  C   UNL     1     -42.655  60.073 -50.632  1.00  0.00     0.230 C 
HETATM   24  C   UNL     1     -43.156  61.467 -50.301  1.00  0.00     0.034 C 
ENDBRANCH  19  23
ENDBRANCH  18  19
ENDBRANCH  17  18
ENDBRANCH  14  17
ENDBRANCH   1  13
BRANCH   1  25
HETATM   25  O   UNL     1     -44.345  54.397 -54.284  1.00  0.00    -0.359 OA
HETATM   26  H   UNL     1     -44.082  53.578 -53.831  1.00  0.00     0.213 HD
ENDBRANCH   1  25
BRANCH   2  27
HETATM   27  C   UNL     1     -42.642  55.807 -56.412  1.00  0.00     0.043 A 
HETATM   28  C   UNL     1     -43.297  55.056 -57.403  1.00  0.00     0.037 A 
HETATM   29  C   UNL     1     -43.563  55.565 -58.691  1.00  0.00    -0.054 A 
HETATM   30  C   UNL     1     -44.275  54.691 -59.690  1.00  0.00     0.049 C 
HETATM   31  C   UNL     1     -43.145  56.863 -59.017  1.00  0.00    -0.056 A 
HETATM   32  C   UNL     1     -43.420  57.466 -60.366  1.00  0.00     0.049 C 
HETATM   33  C   UNL     1     -42.494  57.624 -58.041  1.00  0.00     0.009 A 
HETATM   34  C   UNL     1     -42.240  57.104 -56.765  1.00  0.00     0.030 A 
ENDBRANCH   2  27
TORSDOF 8
ENDMDL
MODEL 4
REMARK VINA RESULT:      -7.6      0.856      1.580
REMARK  8 active torsions:
REMARK  status: ('A' for Active; 'I' for Inactive)
REMARK    1  A    between atoms: C_2  and  N_3 
REMARK    2  A    between atoms: N_3  and  C_5 
REMARK    3  A    between atoms: N_3  and  C_30 
REMARK    4  A    between atoms: C_5  and  C_6 
REMARK    5  A    between atoms: C_6  and  N_7 
REMARK       I    between atoms: N_7  and  C_8 
REMARK    6  A    between atoms: C_8  and  C_9 
REMARK    7  A    between atoms: C_9  and  O_10 
REMARK    8  A    between atoms: N_11  and  C_12 
ROOT
HETATM    1  C   UNL     1     -41.296  55.105 -53.702  1.00  0.00     0.256 C 
HETATM    2  N   UNL     1     -41.894  55.842 -52.565  1.00  0.00    -0.254 N 
HETATM    3  C   UNL     1     -41.618  55.465 -51.255  1.00  0.00     0.330 C 
HETATM    4  O   UNL     1     -41.892  56.115 -50.249  1.00  0.00    -0.246 OA
HETATM    5  N   UNL     1     -41.015  54.265 -51.048  1.00  0.00    -0.308 N 
HETATM    6  C   UNL     1     -40.575  53.390 -52.022  1.00  0.00     0.048 A 
HETATM    7  C   UNL     1     -40.681  53.762 -53.351  1.00  0.00     0.034 A 
HETATM    8  C   UNL     1     -40.011  52.169 -51.649  1.00  0.00     0.030 A 
HETATM    9  C   UNL     1     -39.537  51.298 -52.628  1.00  0.00     0.002 A 
HETATM   10  C   UNL     1     -39.609  51.662 -53.970  1.00  0.00     0.001 A 
HETATM   11  C   UNL     1     -40.166  52.890 -54.329  1.00  0.00     0.015 A 
HETATM   12  H   UNL     1     -40.864  54.045 -50.070  1.00  0.00     0.170 HD
ENDROOT
BRANCH   1  13
HETATM   13  C   UNL     1     -42.444  54.791 -54.786  1.00  0.00     0.279 C 
HETATM   14  N   UNL     1     -42.244  55.329 -56.056  1.00  0.00    -0.355 N 
HETATM   15  H   UNL     1     -41.291  55.597 -56.291  1.00  0.00     0.162 HD
HETATM   16  O   UNL     1     -43.513  54.234 -54.524  1.00  0.00    -0.268 OA
BRANCH  14  17
HETATM   17  C   UNL     1     -43.184  55.028 -57.115  1.00  0.00     0.150 C 
BRANCH  17  18
HETATM   18  C   UNL     1     -43.019  55.972 -58.323  1.00  0.00     0.254 C 
BRANCH  18  19
HETATM   19  N   UNL     1     -43.034  57.453 -57.963  1.00  0.00    -0.070 N 
HETATM   20  H   UNL     1     -42.260  57.579 -57.297  1.00  0.00     0.279 HD
BRANCH  19  21
HETATM   21  C   UNL     1     -44.289  57.865 -57.202  1.00  0.00     0.230 C 
HETATM   22  C   UNL     1     -44.311  59.367 -56.970  1.00  0.00     0.034 C 
ENDBRANCH  19  21
BRANCH  19  23
HETATM   23  C   UNL     1     -42.742  58.400 -59.109  1.00  0.00     0.230 C 
HETATM   24  C   UNL     1     -41.891  57.731 -60.173  1.00  0.00     0.034 C 
ENDBRANCH  19  23
ENDBRANCH  18  19
ENDBRANCH  17  18
ENDBRANCH  14  17
ENDBRANCH   1  13
BRANCH   1  25
HETATM   25  O   UNL     1     -40.217  55.881 -54.189  1.00  0.00    -0.359 OA
HETATM   26  H   UNL     1     -39.472  55.261 -54.262  1.00  0.00     0.213 HD
ENDBRANCH   1  25
BRANCH   2  27
HETATM   27  C   UNL     1     -42.725  57.012 -52.829  1.00  0.00     0.043 A 
HETATM   28  C   UNL     1     -42.154  58.215 -53.279  1.00  0.00     0.037 A 
HETATM   29  C   UNL     1     -42.912  59.387 -53.483  1.00  0.00    -0.054 A 
HETATM   30  C   UNL     1     -42.217  60.631 -53.971  1.00  0.00     0.049 C 
HETATM   31  C   UNL     1     -44.287  59.373 -53.210  1.00  0.00    -0.056 A 
HETATM   32  C   UNL     1     -45.148  60.585 -53.429  1.00  0.00     0.049 C 
HETATM   33  C   UNL     1     -44.871  58.182 -52.765  1.00  0.00     0.009 A 
HETATM   34  C   UNL     1     -44.104  57.025 -52.570  1.00  0.00     0.030 A 
ENDBRANCH   2  27
TORSDOF 8
ENDMDL
MODEL 5
REMARK VINA RESULT:      -7.5      2.055      5.770
REMARK  8 active torsions:
REMARK  status: ('A' for Active; 'I' for Inactive)
REMARK    1  A    between atoms: C_2  and  N_3 
REMARK    2  A    between atoms: N_3  and  C_5 
REMARK    3  A    between atoms: N_3  and  C_30 
REMARK    4  A    between atoms: C_5  and  C_6 
REMARK    5  A    between atoms: C_6  and  N_7 
REMARK       I    between atoms: N_7  and  C_8 
REMARK    6  A    between atoms: C_8  and  C_9 
REMARK    7  A    between atoms: C_9  and  O_10 
REMARK    8  A    between atoms: N_11  and  C_12 
ROOT
HETATM    1  C   UNL     1     -43.815  57.350 -52.022  1.00  0.00     0.256 C 
HETATM    2  N   UNL     1     -42.405  57.061 -51.673  1.00  0.00    -0.254 N 
HETATM    3  C   UNL     1     -41.671  57.957 -50.901  1.00  0.00     0.330 C 
HETATM    4  O   UNL     1     -40.576  57.732 -50.390  1.00  0.00    -0.246 OA
HETATM    5  N   UNL     1     -42.183  59.199 -50.703  1.00  0.00    -0.308 N 
HETATM    6  C   UNL     1     -43.410  59.660 -51.139  1.00  0.00     0.048 A 
HETATM    7  C   UNL     1     -44.261  58.781 -51.787  1.00  0.00     0.034 A 
HETATM    8  C   UNL     1     -43.777  60.984 -50.893  1.00  0.00     0.030 A 
HETATM    9  C   UNL     1     -45.028  61.442 -51.302  1.00  0.00     0.002 A 
HETATM   10  C   UNL     1     -45.911  60.570 -51.934  1.00  0.00     0.001 A 
HETATM   11  C   UNL     1     -45.535  59.245 -52.164  1.00  0.00     0.015 A 
HETATM   12  H   UNL     1     -41.586  59.805 -50.150  1.00  0.00     0.170 HD
ENDROOT
BRANCH   1  13
HETATM   13  C   UNL     1     -44.033  57.075 -53.593  1.00  0.00     0.279 C 
HETATM   14  N   UNL     1     -43.525  58.044 -54.457  1.00  0.00    -0.355 N 
HETATM   15  H   UNL     1     -42.812  58.663 -54.076  1.00  0.00     0.162 HD
HETATM   16  O   UNL     1     -44.716  56.154 -54.050  1.00  0.00    -0.268 OA
BRANCH  14  17
HETATM   17  C   UNL     1     -43.603  57.838 -55.888  1.00  0.00     0.150 C 
BRANCH  17  18
HETATM   18  C   UNL     1     -42.221  57.931 -56.563  1.00  0.00     0.254 C 
BRANCH  18  19
HETATM   19  N   UNL     1     -42.158  57.289 -57.944  1.00  0.00    -0.070 N 
HETATM   20  H   UNL     1     -41.269  56.772 -57.963  1.00  0.00     0.279 HD
BRANCH  19  21
HETATM   21  C   UNL     1     -42.050  58.313 -59.070  1.00  0.00     0.230 C 
HETATM   22  C   UNL     1     -41.844  59.710 -58.510  1.00  0.00     0.034 C 
ENDBRANCH  19  21
BRANCH  19  23
HETATM   23  C   UNL     1     -43.233  56.260 -58.229  1.00  0.00     0.230 C 
HETATM   24  C   UNL     1     -43.131  55.735 -59.649  1.00  0.00     0.034 C 
ENDBRANCH  19  23
ENDBRANCH  18  19
ENDBRANCH  17  18
ENDBRANCH  14  17
ENDBRANCH   1  13
BRANCH   1  25
HETATM   25  O   UNL     1     -44.630  56.571 -51.166  1.00  0.00    -0.359 OA
HETATM   26  H   UNL     1     -44.517  56.963 -50.284  1.00  0.00     0.213 HD
ENDBRANCH   1  25
BRANCH   2  27
HETATM   27  C   UNL     1     -41.808  55.797 -52.091  1.00  0.00     0.043 A 
HETATM   28  C   UNL     1     -41.192  55.671 -53.349  1.00  0.00     0.037 A 
HETATM   29  C   UNL     1     -40.663  54.452 -53.817  1.00  0.00    -0.054 A 
HETATM   30  C   UNL     1     -40.016  54.409 -55.177  1.00  0.00     0.049 C 
HETATM   31  C   UNL     1     -40.766  53.305 -53.017  1.00  0.00    -0.056 A 
HETATM   32  C   UNL     1     -40.200  51.983 -53.455  1.00  0.00     0.049 C 
HETATM   33  C   UNL     1     -41.373  53.414 -51.761  1.00  0.00     0.009 A 
HETATM   34  C   UNL     1     -41.892  54.635 -51.310  1.00  0.00     0.030 A 
ENDBRANCH   2  27
TORSDOF 8
ENDMDL
MODEL 6
REMARK VINA RESULT:      -7.5      1.585      5.552
REMARK  8 active torsions:
REMARK  status: ('A' for Active; 'I' for Inactive)
REMARK    1  A    between atoms: C_2  and  N_3 
REMARK    2  A    between atoms: N_3  and  C_5 
REMARK    3  A    between atoms: N_3  and  C_30 
REMARK    4  A    between atoms: C_5  and  C_6 
REMARK    5  A    between atoms: C_6  and  N_7 
REMARK       I    between atoms: N_7  and  C_8 
REMARK    6  A    between atoms: C_8  and  C_9 
REMARK    7  A    between atoms: C_9  and  O_10 
REMARK    8  A    between atoms: N_11  and  C_12 
ROOT
HETATM    1  C   UNL     1     -43.332  56.229 -52.317  1.00  0.00     0.256 C 
HETATM    2  N   UNL     1     -41.965  55.910 -51.844  1.00  0.00    -0.254 N 
HETATM    3  C   UNL     1     -41.297  56.775 -50.983  1.00  0.00     0.330 C 
HETATM    4  O   UNL     1     -40.258  56.522 -50.376  1.00  0.00    -0.246 OA
HETATM    5  N   UNL     1     -41.808  58.020 -50.802  1.00  0.00    -0.308 N 
HETATM    6  C   UNL     1     -42.982  58.510 -51.340  1.00  0.00     0.048 A 
HETATM    7  C   UNL     1     -43.779  57.661 -52.089  1.00  0.00     0.034 A 
HETATM    8  C   UNL     1     -43.355  59.834 -51.097  1.00  0.00     0.030 A 
HETATM    9  C   UNL     1     -44.555  60.321 -51.611  1.00  0.00     0.002 A 
HETATM   10  C   UNL     1     -45.385  59.477 -52.345  1.00  0.00     0.001 A 
HETATM   11  C   UNL     1     -45.006  58.153 -52.572  1.00  0.00     0.015 A 
HETATM   12  H   UNL     1     -41.260  58.603 -50.180  1.00  0.00     0.170 HD
ENDROOT
BRANCH   1  13
HETATM   13  C   UNL     1     -43.403  55.995 -53.908  1.00  0.00     0.279 C 
HETATM   14  N   UNL     1     -42.767  56.956 -54.693  1.00  0.00    -0.355 N 
HETATM   15  H   UNL     1     -42.069  57.532 -54.229  1.00  0.00     0.162 HD
HETATM   16  O   UNL     1     -44.078  55.117 -54.453  1.00  0.00    -0.268 OA
BRANCH  14  17
HETATM   17  C   UNL     1     -42.710  56.782 -56.129  1.00  0.00     0.150 C 
BRANCH  17  18
HETATM   18  C   UNL     1     -43.841  57.540 -56.851  1.00  0.00     0.254 C 
BRANCH  18  19
HETATM   19  N   UNL     1     -44.478  56.763 -57.998  1.00  0.00    -0.070 N 
HETATM   20  H   UNL     1     -45.189  56.164 -57.558  1.00  0.00     0.279 HD
BRANCH  19  21
HETATM   21  C   UNL     1     -43.507  55.803 -58.676  1.00  0.00     0.230 C 
HETATM   22  C   UNL     1     -44.251  54.827 -59.572  1.00  0.00     0.034 C 
ENDBRANCH  19  21
BRANCH  19  23
HETATM   23  C   UNL     1     -45.228  57.605 -59.011  1.00  0.00     0.230 C 
HETATM   24  C   UNL     1     -46.721  57.592 -58.742  1.00  0.00     0.034 C 
ENDBRANCH  19  23
ENDBRANCH  18  19
ENDBRANCH  17  18
ENDBRANCH  14  17
ENDBRANCH   1  13
BRANCH   1  25
HETATM   25  O   UNL     1     -44.235  55.442 -51.563  1.00  0.00    -0.359 OA
HETATM   26  H   UNL     1     -44.199  55.808 -50.663  1.00  0.00     0.213 HD
ENDBRANCH   1  25
BRANCH   2  27
HETATM   27  C   UNL     1     -41.348  54.647 -52.235  1.00  0.00     0.043 A 
HETATM   28  C   UNL     1     -41.113  53.635 -51.288  1.00  0.00     0.037 A 
HETATM   29  C   UNL     1     -40.461  52.428 -51.611  1.00  0.00    -0.054 A 
HETATM   30  C   UNL     1     -40.255  51.397 -50.533  1.00  0.00     0.049 C 
HETATM   31  C   UNL     1     -40.003  52.223 -52.920  1.00  0.00    -0.056 A 
HETATM   32  C   UNL     1     -39.320  50.947 -53.328  1.00  0.00     0.049 C 
HETATM   33  C   UNL     1     -40.232  53.219 -53.876  1.00  0.00     0.009 A 
HETATM   34  C   UNL     1     -40.884  54.412 -53.539  1.00  0.00     0.030 A 
ENDBRANCH   2  27
TORSDOF 8
ENDMDL
MODEL 7
REMARK VINA RESULT:      -7.4      1.943      5.750
REMARK  8 active torsions:
REMARK  status: ('A' for Active; 'I' for Inactive)
REMARK    1  A    between atoms: C_2  and  N_3 
REMARK    2  A    between atoms: N_3  and  C_5 
REMARK    3  A    between atoms: N_3  and  C_30 
REMARK    4  A    between atoms: C_5  and  C_6 
REMARK    5  A    between atoms: C_6  and  N_7 
REMARK       I    between atoms: N_7  and  C_8 
REMARK    6  A    between atoms: C_8  and  C_9 
REMARK    7  A    between atoms: C_9  and  O_10 
REMARK    8  A    between atoms: N_11  and  C_12 
ROOT
HETATM    1  C   UNL     1     -44.028  56.842 -53.375  1.00  0.00     0.256 C 
HETATM    2  N   UNL     1     -43.557  55.842 -52.389  1.00  0.00    -0.254 N 
HETATM    3  C   UNL     1     -43.988  55.898 -51.067  1.00  0.00     0.330 C 
HETATM    4  O   UNL     1     -43.825  55.019 -50.222  1.00  0.00    -0.246 OA
HETATM    5  N   UNL     1     -44.625  57.021 -50.648  1.00  0.00    -0.308 N 
HETATM    6  C   UNL     1     -44.958  58.113 -51.426  1.00  0.00     0.048 A 
HETATM    7  C   UNL     1     -44.695  58.070 -52.784  1.00  0.00     0.034 A 
HETATM    8  C   UNL     1     -45.576  59.218 -50.837  1.00  0.00     0.030 A 
HETATM    9  C   UNL     1     -45.944  60.307 -51.625  1.00  0.00     0.002 A 
HETATM   10  C   UNL     1     -45.712  60.275 -52.998  1.00  0.00     0.001 A 
HETATM   11  C   UNL     1     -45.103  59.160 -53.576  1.00  0.00     0.015 A 
HETATM   12  H   UNL     1     -44.891  57.002 -49.670  1.00  0.00     0.170 HD
ENDROOT
BRANCH   1  13
HETATM   13  C   UNL     1     -42.766  57.387 -54.211  1.00  0.00     0.279 C 
HETATM   14  N   UNL     1     -42.871  57.301 -55.598  1.00  0.00    -0.355 N 
HETATM   15  H   UNL     1     -43.811  57.203 -55.977  1.00  0.00     0.162 HD
HETATM   16  O   UNL     1     -41.697  57.741 -53.705  1.00  0.00    -0.268 OA
BRANCH  14  17
HETATM   17  C   UNL     1     -41.819  57.844 -56.431  1.00  0.00     0.150 C 
BRANCH  17  18
HETATM   18  C   UNL     1     -42.344  58.298 -57.807  1.00  0.00     0.254 C 
BRANCH  18  19
HETATM   19  N   UNL     1     -42.443  57.179 -58.836  1.00  0.00    -0.070 N 
HETATM   20  H   UNL     1     -41.916  56.392 -58.434  1.00  0.00     0.279 HD
BRANCH  19  21
HETATM   21  C   UNL     1     -41.733  57.511 -60.144  1.00  0.00     0.230 C 
HETATM   22  C   UNL     1     -42.108  58.904 -60.623  1.00  0.00     0.034 C 
ENDBRANCH  19  21
BRANCH  19  23
HETATM   23  C   UNL     1     -43.840  56.647 -59.081  1.00  0.00     0.230 C 
HETATM   24  C   UNL     1     -43.803  55.262 -59.702  1.00  0.00     0.034 C 
ENDBRANCH  19  23
ENDBRANCH  18  19
ENDBRANCH  17  18
ENDBRANCH  14  17
ENDBRANCH   1  13
BRANCH   1  25
HETATM   25  O   UNL     1     -45.034  56.224 -54.156  1.00  0.00    -0.359 OA
HETATM   26  H   UNL     1     -45.391  55.516 -53.595  1.00  0.00     0.213 HD
ENDBRANCH   1  25
BRANCH   2  27
HETATM   27  C   UNL     1     -42.688  54.757 -52.829  1.00  0.00     0.043 A 
HETATM   28  C   UNL     1     -41.646  54.289 -52.009  1.00  0.00     0.037 A 
HETATM   29  C   UNL     1     -40.743  53.288 -52.423  1.00  0.00    -0.054 A 
HETATM   30  C   UNL     1     -39.658  52.845 -51.476  1.00  0.00     0.049 C 
HETATM   31  C   UNL     1     -40.863  52.743 -53.709  1.00  0.00    -0.056 A 
HETATM   32  C   UNL     1     -39.944  51.658 -54.196  1.00  0.00     0.049 C 
HETATM   33  C   UNL     1     -41.897  53.195 -54.536  1.00  0.00     0.009 A 
HETATM   34  C   UNL     1     -42.788  54.188 -54.108  1.00  0.00     0.030 A 
ENDBRANCH   2  27
TORSDOF 8
ENDMDL
MODEL 8
REMARK VINA RESULT:      -7.3      2.431      6.073
REMARK  8 active torsions:
REMARK  status: ('A' for Active; 'I' for Inactive)
REMARK    1  A    between atoms: C_2  and  N_3 
REMARK    2  A    between atoms: N_3  and  C_5 
REMARK    3  A    between atoms: N_3  and  C_30 
REMARK    4  A    between atoms: C_5  and  C_6 
REMARK    5  A    between atoms: C_6  and  N_7 
REMARK       I    between atoms: N_7  and  C_8 
REMARK    6  A    between atoms: C_8  and  C_9 
REMARK    7  A    between atoms: C_9  and  O_10 
REMARK    8  A    between atoms: N_11  and  C_12 
ROOT
HETATM    1  C   UNL     1     -43.051  57.602 -56.055  1.00  0.00     0.256 C 
HETATM    2  N   UNL     1     -42.441  58.916 -55.749  1.00  0.00    -0.254 N 
HETATM    3  C   UNL     1     -41.988  59.740 -56.774  1.00  0.00     0.330 C 
HETATM    4  O   UNL     1     -41.654  60.917 -56.653  1.00  0.00    -0.246 OA
HETATM    5  N   UNL     1     -41.877  59.210 -58.020  1.00  0.00    -0.308 N 
HETATM    6  C   UNL     1     -42.235  57.932 -58.402  1.00  0.00     0.048 A 
HETATM    7  C   UNL     1     -42.832  57.099 -57.470  1.00  0.00     0.034 A 
HETATM    8  C   UNL     1     -42.018  57.518 -59.717  1.00  0.00     0.030 A 
HETATM    9  C   UNL     1     -42.409  56.240 -60.114  1.00  0.00     0.002 A 
HETATM   10  C   UNL     1     -43.033  55.394 -59.201  1.00  0.00     0.001 A 
HETATM   11  C   UNL     1     -43.254  55.824 -57.892  1.00  0.00     0.015 A 
HETATM   12  H   UNL     1     -41.521  59.859 -58.712  1.00  0.00     0.170 HD
ENDROOT
BRANCH   1  13
HETATM   13  C   UNL     1     -42.408  56.487 -55.089  1.00  0.00     0.279 C 
HETATM   14  N   UNL     1     -41.085  56.138 -55.357  1.00  0.00    -0.355 N 
HETATM   15  H   UNL     1     -40.544  56.802 -55.907  1.00  0.00     0.162 HD
HETATM   16  O   UNL     1     -43.042  55.852 -54.241  1.00  0.00    -0.268 OA
BRANCH  14  17
HETATM   17  C   UNL     1     -40.401  55.206 -54.487  1.00  0.00     0.150 C 
BRANCH  17  18
HETATM   18  C   UNL     1     -40.454  53.763 -55.027  1.00  0.00     0.254 C 
BRANCH  18  19
HETATM   19  N   UNL     1     -40.257  52.691 -53.960  1.00  0.00    -0.070 N 
HETATM   20  H   UNL     1     -39.240  52.640 -53.812  1.00  0.00     0.279 HD
BRANCH  19  21
HETATM   21  C   UNL     1     -40.665  51.301 -54.435  1.00  0.00     0.230 C 
HETATM   22  C   UNL     1     -39.606  50.274 -54.071  1.00  0.00     0.034 C 
ENDBRANCH  19  21
BRANCH  19  23
HETATM   23  C   UNL     1     -40.849  53.012 -52.603  1.00  0.00     0.230 C 
HETATM   24  C   UNL     1     -39.794  52.952 -51.513  1.00  0.00     0.034 C 
ENDBRANCH  19  23
ENDBRANCH  18  19
ENDBRANCH  17  18
ENDBRANCH  14  17
ENDBRANCH   1  13
BRANCH   1  25
HETATM   25  O   UNL     1     -44.454  57.749 -55.937  1.00  0.00    -0.359 OA
HETATM   26  H   UNL     1     -44.595  58.694 -55.763  1.00  0.00     0.213 HD
ENDBRANCH   1  25
BRANCH   2  27
HETATM   27  C   UNL     1     -42.376  59.369 -54.364  1.00  0.00     0.043 A 
HETATM   28  C   UNL     1     -41.246  59.107 -53.571  1.00  0.00     0.037 A 
HETATM   29  C   UNL     1     -41.170  59.470 -52.210  1.00  0.00    -0.054 A 
HETATM   30  C   UNL     1     -39.917  59.153 -51.437  1.00  0.00     0.049 C 
HETATM   31  C   UNL     1     -42.267  60.099 -51.605  1.00  0.00    -0.056 A 
HETATM   32  C   UNL     1     -42.235  60.529 -50.165  1.00  0.00     0.049 C 
HETATM   33  C   UNL     1     -43.399  60.371 -52.381  1.00  0.00     0.009 A 
HETATM   34  C   UNL     1     -43.456  60.006 -53.733  1.00  0.00     0.030 A 
ENDBRANCH   2  27
TORSDOF 8
ENDMDL
MODEL 9
REMARK VINA RESULT:      -7.3     15.860     18.141
REMARK  8 active torsions:
REMARK  status: ('A' for Active; 'I' for Inactive)
REMARK    1  A    between atoms: C_2  and  N_3 
REMARK    2  A    between atoms: N_3  and  C_5 
REMARK    3  A    between atoms: N_3  and  C_30 
REMARK    4  A    between atoms: C_5  and  C_6 
REMARK    5  A    between atoms: C_6  and  N_7 
REMARK       I    between atoms: N_7  and  C_8 
REMARK    6  A    between atoms: C_8  and  C_9 
REMARK    7  A    between atoms: C_9  and  O_10 
REMARK    8  A    between atoms: N_11  and  C_12 
ROOT
HETATM    1  C   UNL     1     -33.686  40.306 -53.958  1.00  0.00     0.256 C 
HETATM    2  N   UNL     1     -34.895  41.156 -54.044  1.00  0.00    -0.254 N 
HETATM    3  C   UNL     1     -35.428  41.744 -52.901  1.00  0.00     0.330 C 
HETATM    4  O   UNL     1     -36.294  42.616 -52.880  1.00  0.00    -0.246 OA
HETATM    5  N   UNL     1     -34.981  41.313 -51.693  1.00  0.00    -0.308 N 
HETATM    6  C   UNL     1     -33.985  40.382 -51.471  1.00  0.00     0.048 A 
HETATM    7  C   UNL     1     -33.305  39.861 -52.558  1.00  0.00     0.034 A 
HETATM    8  C   UNL     1     -33.667  40.009 -50.164  1.00  0.00     0.030 A 
HETATM    9  C   UNL     1     -32.641  39.094 -49.936  1.00  0.00     0.002 A 
HETATM   10  C   UNL     1     -31.925  38.576 -51.013  1.00  0.00     0.001 A 
HETATM   11  C   UNL     1     -32.246  38.965 -52.314  1.00  0.00     0.015 A 
HETATM   12  H   UNL     1     -35.427  41.768 -50.904  1.00  0.00     0.170 HD
ENDROOT
BRANCH   1  13
HETATM   13  C   UNL     1     -33.935  38.954 -54.796  1.00  0.00     0.279 C 
HETATM   14  N   UNL     1     -33.180  38.811 -55.959  1.00  0.00    -0.355 N 
HETATM   15  H   UNL     1     -32.341  39.382 -56.029  1.00  0.00     0.162 HD
HETATM   16  O   UNL     1     -34.821  38.133 -54.543  1.00  0.00    -0.268 OA
BRANCH  14  17
HETATM   17  C   UNL     1     -33.279  37.589 -56.729  1.00  0.00     0.150 C 
BRANCH  17  18
HETATM   18  C   UNL     1     -33.783  37.846 -58.163  1.00  0.00     0.254 C 
BRANCH  18  19
HETATM   19  N   UNL     1     -35.297  37.982 -58.276  1.00  0.00    -0.070 N 
HETATM   20  H   UNL     1     -35.569  38.629 -57.524  1.00  0.00     0.279 HD
BRANCH  19  21
HETATM   21  C   UNL     1     -36.033  36.681 -57.972  1.00  0.00     0.230 C 
HETATM   22  C   UNL     1     -37.152  36.916 -56.971  1.00  0.00     0.034 C 
ENDBRANCH  19  21
BRANCH  19  23
HETATM   23  C   UNL     1     -35.796  38.617 -59.558  1.00  0.00     0.230 C 
HETATM   24  C   UNL     1     -35.359  37.820 -60.774  1.00  0.00     0.034 C 
ENDBRANCH  19  23
ENDBRANCH  18  19
ENDBRANCH  17  18
ENDBRANCH  14  17
ENDBRANCH   1  13
BRANCH   1  25
HETATM   25  O   UNL     1     -32.589  41.084 -54.402  1.00  0.00    -0.359 OA
HETATM   26  H   UNL     1     -31.819  40.495 -54.335  1.00  0.00     0.213 HD
ENDBRANCH   1  25
BRANCH   2  27
HETATM   27  C   UNL     1     -35.488  41.428 -55.349  1.00  0.00     0.043 A 
HETATM   28  C   UNL     1     -36.695  40.819 -55.734  1.00  0.00     0.037 A 
HETATM   29  C   UNL     1     -37.267  41.003 -57.010  1.00  0.00    -0.054 A 
HETATM   30  C   UNL     1     -38.566  40.313 -57.335  1.00  0.00     0.049 C 
HETATM   31  C   UNL     1     -36.606  41.806 -57.950  1.00  0.00    -0.056 A 
HETATM   32  C   UNL     1     -37.179  42.055 -59.317  1.00  0.00     0.049 C 
HETATM   33  C   UNL     1     -35.406  42.422 -57.582  1.00  0.00     0.009 A 
HETATM   34  C   UNL     1     -34.852  42.231 -56.309  1.00  0.00     0.030 A 
ENDBRANCH   2  27
TORSDOF 8
ENDMDL
MODEL 10
REMARK VINA RESULT:      -7.2      2.380      4.802
REMARK  8 active torsions:
REMARK  status: ('A' for Active; 'I' for Inactive)
REMARK    1  A    between atoms: C_2  and  N_3 
REMARK    2  A    between atoms: N_3  and  C_5 
REMARK    3  A    between atoms: N_3  and  C_30 
REMARK    4  A    between atoms: C_5  and  C_6 
REMARK    5  A    between atoms: C_6  and  N_7 
REMARK       I    between atoms: N_7  and  C_8 
REMARK    6  A    between atoms: C_8  and  C_9 
REMARK    7  A    between atoms: C_9  and  O_10 
REMARK    8  A    between atoms: N_11  and  C_12 
ROOT
HETATM    1  C   UNL     1     -42.713  55.852 -51.923  1.00  0.00     0.256 C 
HETATM    2  N   UNL     1     -42.763  55.437 -53.344  1.00  0.00    -0.254 N 
HETATM    3  C   UNL     1     -42.297  54.184 -53.729  1.00  0.00     0.330 C 
HETATM    4  O   UNL     1     -42.471  53.662 -54.829  1.00  0.00    -0.246 OA
HETATM    5  N   UNL     1     -41.567  53.469 -52.834  1.00  0.00    -0.308 N 
HETATM    6  C   UNL     1     -41.285  53.830 -51.531  1.00  0.00     0.048 A 
HETATM    7  C   UNL     1     -41.838  54.996 -51.027  1.00  0.00     0.034 A 
HETATM    8  C   UNL     1     -40.479  53.006 -50.744  1.00  0.00     0.030 A 
HETATM    9  C   UNL     1     -40.221  53.351 -49.420  1.00  0.00     0.002 A 
HETATM   10  C   UNL     1     -40.786  54.505 -48.883  1.00  0.00     0.001 A 
HETATM   11  C   UNL     1     -41.599  55.316 -49.678  1.00  0.00     0.015 A 
HETATM   12  H   UNL     1     -41.243  52.576 -53.189  1.00  0.00     0.170 HD
ENDROOT
BRANCH   1  13
HETATM   13  C   UNL     1     -42.108  57.341 -51.834  1.00  0.00     0.279 C 
HETATM   14  N   UNL     1     -42.866  58.264 -51.115  1.00  0.00    -0.355 N 
HETATM   15  H   UNL     1     -43.548  57.883 -50.464  1.00  0.00     0.162 HD
HETATM   16  O   UNL     1     -41.114  57.726 -52.456  1.00  0.00    -0.268 OA
BRANCH  14  17
HETATM   17  C   UNL     1     -42.357  59.604 -50.913  1.00  0.00     0.150 C 
BRANCH  17  18
HETATM   18  C   UNL     1     -43.359  60.681 -51.373  1.00  0.00     0.254 C 
BRANCH  18  19
HETATM   19  N   UNL     1     -44.158  60.299 -52.613  1.00  0.00    -0.070 N 
HETATM   20  H   UNL     1     -43.949  59.305 -52.776  1.00  0.00     0.279 HD
BRANCH  19  21
HETATM   21  C   UNL     1     -43.684  61.021 -53.870  1.00  0.00     0.230 C 
HETATM   22  C   UNL     1     -42.327  60.499 -54.312  1.00  0.00     0.034 C 
ENDBRANCH  19  21
BRANCH  19  23
HETATM   23  C   UNL     1     -45.664  60.377 -52.462  1.00  0.00     0.230 C 
HETATM   24  C   UNL     1     -46.139  59.588 -51.256  1.00  0.00     0.034 C 
ENDBRANCH  19  23
ENDBRANCH  18  19
ENDBRANCH  17  18
ENDBRANCH  14  17
ENDBRANCH   1  13
BRANCH   1  25
HETATM   25  O   UNL     1     -44.019  55.712 -51.395  1.00  0.00    -0.359 OA
HETATM   26  H   UNL     1     -44.612  55.808 -52.159  1.00  0.00     0.213 HD
ENDBRANCH   1  25
BRANCH   2  27
HETATM   27  C   UNL     1     -43.365  56.328 -54.330  1.00  0.00     0.043 A 
HETATM   28  C   UNL     1     -42.638  56.754 -55.455  1.00  0.00     0.037 A 
HETATM   29  C   UNL     1     -43.159  57.666 -56.396  1.00  0.00    -0.054 A 
HETATM   30  C   UNL     1     -42.311  58.065 -57.575  1.00  0.00     0.049 C 
HETATM   31  C   UNL     1     -44.444  58.193 -56.204  1.00  0.00    -0.056 A 
HETATM   32  C   UNL     1     -45.059  59.151 -57.185  1.00  0.00     0.049 C 
HETATM   33  C   UNL     1     -45.182  57.776 -55.091  1.00  0.00     0.009 A 
HETATM   34  C   UNL     1     -44.650  56.867 -54.166  1.00  0.00     0.030 A 
ENDBRANCH   2  27
TORSDOF 8
ENDMDL
