MODEL 1
REMARK VINA RESULT:      -9.3      0.000      0.000
REMARK  3 active torsions:
REMARK  status: ('A' for Active; 'I' for Inactive)
REMARK    1  A    between atoms: C_7  and  C_8 
REMARK       I    between atoms: C_8  and  N_9 
REMARK    2  A    between atoms: N_9  and  N_10 
REMARK    3  A    between atoms: N_10  and  C_11 
ROOT
HETATM    1  C   UNL     1     -43.368  56.915 -58.057  1.00  0.00     0.124 A 
HETATM    2  N   UNL     1     -44.372  57.699 -57.622  1.00  0.00    -0.223 NA
HETATM    3  C   UNL     1     -45.525  57.682 -58.317  1.00  0.00     0.129 A 
HETATM    4 CL   UNL     1     -46.750  58.705 -57.690  1.00  0.00    -0.062 Cl
HETATM    5  C   UNL     1     -45.749  56.929 -59.449  1.00  0.00     0.067 A 
HETATM    6  C   UNL     1     -44.699  56.137 -59.897  1.00  0.00     0.051 A 
HETATM    7  C   UNL     1     -44.854  55.334 -61.072  1.00  0.00     0.099 C 
HETATM    8  N   UNL     1     -44.986  54.686 -62.025  1.00  0.00    -0.191 NA
HETATM    9  C   UNL     1     -43.490  56.131 -59.200  1.00  0.00     0.068 A 
ENDROOT
BRANCH   1  10
HETATM   10  N   UNL     1     -42.156  56.985 -57.341  1.00  0.00    -0.186 NA
HETATM   11  H   UNL     1     -42.077  57.962 -57.025  1.00  0.00     0.154 HD
BRANCH  10  12
HETATM   12  N   UNL     1     -42.094  56.088 -56.256  1.00  0.00    -0.281 N 
HETATM   13  C   UNL     1     -41.737  56.599 -55.024  1.00  0.00     0.271 C 
HETATM   14  O   UNL     1     -41.695  57.806 -54.788  1.00  0.00    -0.266 OA
HETATM   15  H   UNL     1     -41.922  55.101 -56.472  1.00  0.00     0.184 HD
BRANCH  13  16
HETATM   16  C   UNL     1     -41.373  55.577 -54.004  1.00  0.00     0.099 A 
HETATM   17  C   UNL     1     -40.867  54.216 -54.329  1.00  0.00     0.201 A 
HETATM   18  C   UNL     1     -40.492  53.319 -53.204  1.00  0.00     0.045 A 
HETATM   19  O   UNL     1     -40.746  53.845 -55.495  1.00  0.00    -0.286 OA
HETATM   20  C   UNL     1     -40.636  53.781 -51.878  1.00  0.00     0.052 A 
HETATM   21  C   UNL     1     -39.990  52.044 -53.478  1.00  0.00     0.060 A 
HETATM   22  C   UNL     1     -40.299  52.922 -50.812  1.00  0.00    -0.031 A 
HETATM   23  N   UNL     1     -41.172  55.059 -51.659  1.00  0.00    -0.364 N 
HETATM   24  C   UNL     1     -40.440  53.344 -49.376  1.00  0.00     0.050 C 
HETATM   25  C   UNL     1     -39.786  51.647 -51.100  1.00  0.00     0.051 A 
HETATM   26  C   UNL     1     -39.639  51.224 -52.418  1.00  0.00     0.117 A 
HETATM   27  F   UNL     1     -39.150  50.002 -52.665  1.00  0.00    -0.206 F 
HETATM   28  C   UNL     1     -41.477  55.893 -52.704  1.00  0.00     0.109 A 
HETATM   29  H   UNL     1     -41.145  55.456 -50.726  1.00  0.00     0.165 HD
ENDBRANCH  13  16
ENDBRANCH  10  12
ENDBRANCH   1  10
TORSDOF 3
ENDMDL
MODEL 2
REMARK VINA RESULT:      -9.2      1.433      2.123
REMARK  3 active torsions:
REMARK  status: ('A' for Active; 'I' for Inactive)
REMARK    1  A    between atoms: C_7  and  C_8 
REMARK       I    between atoms: C_8  and  N_9 
REMARK    2  A    between atoms: N_9  and  N_10 
REMARK    3  A    between atoms: N_10  and  C_11 
ROOT
HETATM    1  C   UNL     1     -43.530  57.026 -57.901  1.00  0.00     0.124 A 
HETATM    2  N   UNL     1     -44.544  57.825 -57.522  1.00  0.00    -0.223 NA
HETATM    3  C   UNL     1     -45.664  57.813 -58.271  1.00  0.00     0.129 A 
HETATM    4 CL   UNL     1     -46.905  58.856 -57.713  1.00  0.00    -0.062 Cl
HETATM    5  C   UNL     1     -45.841  57.051 -59.405  1.00  0.00     0.067 A 
HETATM    6  C   UNL     1     -44.780  56.243 -59.794  1.00  0.00     0.051 A 
HETATM    7  C   UNL     1     -44.888  55.431 -60.968  1.00  0.00     0.099 C 
HETATM    8  N   UNL     1     -44.982  54.774 -61.919  1.00  0.00    -0.191 NA
HETATM    9  C   UNL     1     -43.607  56.231 -59.040  1.00  0.00     0.068 A 
ENDROOT
BRANCH   1  10
HETATM   10  N   UNL     1     -42.353  57.091 -57.128  1.00  0.00    -0.186 NA
HETATM   11  H   UNL     1     -42.442  57.944 -56.558  1.00  0.00     0.154 HD
BRANCH  10  12
HETATM   12  N   UNL     1     -42.149  55.953 -56.322  1.00  0.00    -0.281 N 
HETATM   13  C   UNL     1     -41.547  56.140 -55.094  1.00  0.00     0.271 C 
HETATM   14  O   UNL     1     -41.392  57.251 -54.588  1.00  0.00    -0.266 OA
HETATM   15  H   UNL     1     -42.078  55.047 -56.797  1.00  0.00     0.184 HD
BRANCH  13  16
HETATM   16  C   UNL     1     -41.065  54.895 -54.436  1.00  0.00     0.099 A 
HETATM   17  C   UNL     1     -41.102  54.659 -52.966  1.00  0.00     0.201 A 
HETATM   18  C   UNL     1     -40.636  53.343 -52.454  1.00  0.00     0.045 A 
HETATM   19  O   UNL     1     -41.521  55.520 -52.195  1.00  0.00    -0.286 OA
HETATM   20  C   UNL     1     -40.169  52.374 -53.370  1.00  0.00     0.052 A 
HETATM   21  C   UNL     1     -40.682  53.082 -51.083  1.00  0.00     0.060 A 
HETATM   22  C   UNL     1     -39.709  51.135 -52.882  1.00  0.00    -0.031 A 
HETATM   23  N   UNL     1     -40.117  52.699 -54.734  1.00  0.00    -0.364 N 
HETATM   24  C   UNL     1     -39.187  50.064 -53.797  1.00  0.00     0.050 C 
HETATM   25  C   UNL     1     -39.770  50.881 -51.502  1.00  0.00     0.051 A 
HETATM   26  C   UNL     1     -40.251  51.849 -50.624  1.00  0.00     0.117 A 
HETATM   27  F   UNL     1     -40.295  51.581 -49.313  1.00  0.00    -0.206 F 
HETATM   28  C   UNL     1     -40.587  53.900 -55.199  1.00  0.00     0.109 A 
HETATM   29  H   UNL     1     -39.924  51.970 -55.411  1.00  0.00     0.165 HD
ENDBRANCH  13  16
ENDBRANCH  10  12
ENDBRANCH   1  10
TORSDOF 3
ENDMDL
MODEL 3
REMARK VINA RESULT:      -9.2      2.306      3.112
REMARK  3 active torsions:
REMARK  status: ('A' for Active; 'I' for Inactive)
REMARK    1  A    between atoms: C_7  and  C_8 
REMARK       I    between atoms: C_8  and  N_9 
REMARK    2  A    between atoms: N_9  and  N_10 
REMARK    3  A    between atoms: N_10  and  C_11 
ROOT
HETATM    1  C   UNL     1     -42.603  57.294 -57.466  1.00  0.00     0.124 A 
HETATM    2  N   UNL     1     -43.255  56.193 -57.882  1.00  0.00    -0.223 NA
HETATM    3  C   UNL     1     -43.508  56.076 -59.200  1.00  0.00     0.129 A 
HETATM    4 CL   UNL     1     -44.336  54.642 -59.642  1.00  0.00    -0.062 Cl
HETATM    5  C   UNL     1     -43.157  57.009 -60.152  1.00  0.00     0.067 A 
HETATM    6  C   UNL     1     -42.500  58.148 -59.706  1.00  0.00     0.051 A 
HETATM    7  C   UNL     1     -42.114  59.166 -60.636  1.00  0.00     0.099 C 
HETATM    8  N   UNL     1     -41.803  59.986 -61.395  1.00  0.00    -0.191 NA
HETATM    9  C   UNL     1     -42.222  58.300 -58.348  1.00  0.00     0.068 A 
ENDROOT
BRANCH   1  10
HETATM   10  N   UNL     1     -42.391  57.415 -56.077  1.00  0.00    -0.186 NA
HETATM   11  H   UNL     1     -43.227  57.891 -55.710  1.00  0.00     0.154 HD
BRANCH  10  12
HETATM   12  N   UNL     1     -42.178  56.179 -55.433  1.00  0.00    -0.281 N 
HETATM   13  C   UNL     1     -41.275  56.152 -54.389  1.00  0.00     0.271 C 
HETATM   14  O   UNL     1     -40.831  57.171 -53.861  1.00  0.00    -0.266 OA
HETATM   15  H   UNL     1     -42.366  55.330 -55.974  1.00  0.00     0.184 HD
BRANCH  13  16
HETATM   16  C   UNL     1     -40.849  54.789 -53.966  1.00  0.00     0.099 A 
HETATM   17  C   UNL     1     -40.834  54.320 -52.554  1.00  0.00     0.201 A 
HETATM   18  C   UNL     1     -40.434  52.913 -52.285  1.00  0.00     0.045 A 
HETATM   19  O   UNL     1     -41.156  55.067 -51.633  1.00  0.00    -0.286 OA
HETATM   20  C   UNL     1     -40.077  52.080 -53.368  1.00  0.00     0.052 A 
HETATM   21  C   UNL     1     -40.434  52.435 -50.973  1.00  0.00     0.060 A 
HETATM   22  C   UNL     1     -39.679  50.753 -53.111  1.00  0.00    -0.031 A 
HETATM   23  N   UNL     1     -40.067  52.618 -54.664  1.00  0.00    -0.364 N 
HETATM   24  C   UNL     1     -39.274  49.816 -54.214  1.00  0.00     0.050 C 
HETATM   25  C   UNL     1     -39.693  50.282 -51.788  1.00  0.00     0.051 A 
HETATM   26  C   UNL     1     -40.066  51.120 -50.741  1.00  0.00     0.117 A 
HETATM   27  F   UNL     1     -40.068  50.646 -49.489  1.00  0.00    -0.206 F 
HETATM   28  C   UNL     1     -40.475  53.905 -54.904  1.00  0.00     0.109 A 
HETATM   29  H   UNL     1     -39.955  51.999 -55.459  1.00  0.00     0.165 HD
ENDBRANCH  13  16
ENDBRANCH  10  12
ENDBRANCH   1  10
TORSDOF 3
ENDMDL
MODEL 4
REMARK VINA RESULT:      -9.2      1.796      1.919
REMARK  3 active torsions:
REMARK  status: ('A' for Active; 'I' for Inactive)
REMARK    1  A    between atoms: C_7  and  C_8 
REMARK       I    between atoms: C_8  and  N_9 
REMARK    2  A    between atoms: N_9  and  N_10 
REMARK    3  A    between atoms: N_10  and  C_11 
ROOT
HETATM    1  C   UNL     1     -42.599  57.331 -57.476  1.00  0.00     0.124 A 
HETATM    2  N   UNL     1     -42.121  58.169 -58.415  1.00  0.00    -0.223 NA
HETATM    3  C   UNL     1     -42.390  57.883 -59.703  1.00  0.00     0.129 A 
HETATM    4 CL   UNL     1     -41.748  59.005 -60.830  1.00  0.00    -0.062 Cl
HETATM    5  C   UNL     1     -43.108  56.788 -60.131  1.00  0.00     0.067 A 
HETATM    6  C   UNL     1     -43.581  55.923 -59.154  1.00  0.00     0.051 A 
HETATM    7  C   UNL     1     -44.327  54.758 -59.524  1.00  0.00     0.099 C 
HETATM    8  N   UNL     1     -44.931  53.817 -59.830  1.00  0.00    -0.191 NA
HETATM    9  C   UNL     1     -43.322  56.189 -57.809  1.00  0.00     0.068 A 
ENDROOT
BRANCH   1  10
HETATM   10  N   UNL     1     -42.266  57.625 -56.139  1.00  0.00    -0.186 NA
HETATM   11  H   UNL     1     -42.997  58.271 -55.807  1.00  0.00     0.154 HD
BRANCH  10  12
HETATM   12  N   UNL     1     -42.179  56.482 -55.318  1.00  0.00    -0.281 N 
HETATM   13  C   UNL     1     -41.352  56.551 -54.215  1.00  0.00     0.271 C 
HETATM   14  O   UNL     1     -40.879  57.608 -53.798  1.00  0.00    -0.266 OA
HETATM   15  H   UNL     1     -42.384  55.577 -55.751  1.00  0.00     0.184 HD
BRANCH  13  16
HETATM   16  C   UNL     1     -41.045  55.239 -53.580  1.00  0.00     0.099 A 
HETATM   17  C   UNL     1     -40.569  54.042 -54.325  1.00  0.00     0.201 A 
HETATM   18  C   UNL     1     -40.251  52.813 -53.550  1.00  0.00     0.045 A 
HETATM   19  O   UNL     1     -40.426  54.069 -55.546  1.00  0.00    -0.286 OA
HETATM   20  C   UNL     1     -40.420  52.820 -52.148  1.00  0.00     0.052 A 
HETATM   21  C   UNL     1     -39.779  51.681 -54.218  1.00  0.00     0.060 A 
HETATM   22  C   UNL     1     -40.138  51.649 -51.417  1.00  0.00    -0.031 A 
HETATM   23  N   UNL     1     -40.925  53.975 -51.532  1.00  0.00    -0.364 N 
HETATM   24  C   UNL     1     -40.307  51.582 -49.926  1.00  0.00     0.050 C 
HETATM   25  C   UNL     1     -39.653  50.521 -52.099  1.00  0.00     0.051 A 
HETATM   26  C   UNL     1     -39.480  50.547 -53.480  1.00  0.00     0.117 A 
HETATM   27  F   UNL     1     -39.019  49.457 -54.105  1.00  0.00    -0.206 F 
HETATM   28  C   UNL     1     -41.177  55.115 -52.250  1.00  0.00     0.109 A 
HETATM   29  H   UNL     1     -40.914  54.044 -50.520  1.00  0.00     0.165 HD
ENDBRANCH  13  16
ENDBRANCH  10  12
ENDBRANCH   1  10
TORSDOF 3
ENDMDL
MODEL 5
REMARK VINA RESULT:      -9.0      4.469      6.394
REMARK  3 active torsions:
REMARK  status: ('A' for Active; 'I' for Inactive)
REMARK    1  A    between atoms: C_7  and  C_8 
REMARK       I    between atoms: C_8  and  N_9 
REMARK    2  A    between atoms: N_9  and  N_10 
REMARK    3  A    between atoms: N_10  and  C_11 
ROOT
HETATM    1  C   UNL     1     -41.241  59.054 -52.677  1.00  0.00     0.124 A 
HETATM    2  N   UNL     1     -40.110  59.192 -51.961  1.00  0.00    -0.223 NA
HETATM    3  C   UNL     1     -40.202  59.780 -50.753  1.00  0.00     0.129 A 
HETATM    4 CL   UNL     1     -38.715  59.909 -49.909  1.00  0.00    -0.062 Cl
HETATM    5  C   UNL     1     -41.369  60.262 -50.201  1.00  0.00     0.067 A 
HETATM    6  C   UNL     1     -42.526  60.128 -50.957  1.00  0.00     0.051 A 
HETATM    7  C   UNL     1     -43.775  60.614 -50.453  1.00  0.00     0.099 C 
HETATM    8  N   UNL     1     -44.783  61.010 -50.039  1.00  0.00    -0.191 NA
HETATM    9  C   UNL     1     -42.467  59.523 -52.213  1.00  0.00     0.068 A 
ENDROOT
BRANCH   1  10
HETATM   10  N   UNL     1     -41.113  58.477 -53.956  1.00  0.00    -0.186 NA
HETATM   11  H   UNL     1     -40.498  59.112 -54.485  1.00  0.00     0.154 HD
BRANCH  10  12
HETATM   12  N   UNL     1     -40.598  57.165 -53.931  1.00  0.00    -0.281 N 
HETATM   13  C   UNL     1     -41.419  56.148 -54.374  1.00  0.00     0.271 C 
HETATM   14  O   UNL     1     -42.466  56.354 -54.988  1.00  0.00    -0.266 OA
HETATM   15  H   UNL     1     -39.852  56.967 -53.257  1.00  0.00     0.184 HD
BRANCH  13  16
HETATM   16  C   UNL     1     -40.960  54.775 -54.027  1.00  0.00     0.099 A 
HETATM   17  C   UNL     1     -40.836  54.264 -52.634  1.00  0.00     0.201 A 
HETATM   18  C   UNL     1     -40.415  52.851 -52.440  1.00  0.00     0.045 A 
HETATM   19  O   UNL     1     -41.090  54.982 -51.669  1.00  0.00    -0.286 OA
HETATM   20  C   UNL     1     -40.139  52.053 -53.572  1.00  0.00     0.052 A 
HETATM   21  C   UNL     1     -40.314  52.334 -51.146  1.00  0.00     0.060 A 
HETATM   22  C   UNL     1     -39.720  50.721 -53.386  1.00  0.00    -0.031 A 
HETATM   23  N   UNL     1     -40.228  52.631 -54.847  1.00  0.00    -0.364 N 
HETATM   24  C   UNL     1     -39.398  49.819 -54.544  1.00  0.00     0.050 C 
HETATM   25  C   UNL     1     -39.633  50.210 -52.080  1.00  0.00     0.051 A 
HETATM   26  C   UNL     1     -39.928  51.015 -50.983  1.00  0.00     0.117 A 
HETATM   27  F   UNL     1     -39.833  50.503 -49.750  1.00  0.00    -0.206 F 
HETATM   28  C   UNL     1     -40.656  53.922 -55.017  1.00  0.00     0.109 A 
HETATM   29  H   UNL     1     -40.176  52.036 -55.667  1.00  0.00     0.165 HD
ENDBRANCH  13  16
ENDBRANCH  10  12
ENDBRANCH   1  10
TORSDOF 3
ENDMDL
MODEL 6
REMARK VINA RESULT:      -8.9      2.582      3.602
REMARK  3 active torsions:
REMARK  status: ('A' for Active; 'I' for Inactive)
REMARK    1  A    between atoms: C_7  and  C_8 
REMARK       I    between atoms: C_8  and  N_9 
REMARK    2  A    between atoms: N_9  and  N_10 
REMARK    3  A    between atoms: N_10  and  C_11 
ROOT
HETATM    1  C   UNL     1     -42.664  57.837 -55.136  1.00  0.00     0.124 A 
HETATM    2  N   UNL     1     -42.998  56.845 -55.981  1.00  0.00    -0.223 NA
HETATM    3  C   UNL     1     -42.841  57.067 -57.300  1.00  0.00     0.129 A 
HETATM    4 CL   UNL     1     -43.286  55.748 -58.302  1.00  0.00    -0.062 Cl
HETATM    5  C   UNL     1     -42.374  58.241 -57.848  1.00  0.00     0.067 A 
HETATM    6  C   UNL     1     -42.048  59.263 -56.966  1.00  0.00     0.051 A 
HETATM    7  C   UNL     1     -41.566  60.516 -57.463  1.00  0.00     0.099 C 
HETATM    8  N   UNL     1     -41.175  61.528 -57.873  1.00  0.00    -0.191 NA
HETATM    9  C   UNL     1     -42.198  59.066 -55.593  1.00  0.00     0.068 A 
ENDROOT
BRANCH   1  10
HETATM   10  N   UNL     1     -42.880  57.598 -53.764  1.00  0.00    -0.186 NA
HETATM   11  H   UNL     1     -43.863  57.852 -53.590  1.00  0.00     0.154 HD
BRANCH  10  12
HETATM   12  N   UNL     1     -42.616  56.268 -53.378  1.00  0.00    -0.281 N 
HETATM   13  C   UNL     1     -41.496  56.038 -52.606  1.00  0.00     0.271 C 
HETATM   14  O   UNL     1     -40.861  56.942 -52.062  1.00  0.00    -0.266 OA
HETATM   15  H   UNL     1     -42.993  55.524 -53.973  1.00  0.00     0.184 HD
BRANCH  13  16
HETATM   16  C   UNL     1     -41.088  54.610 -52.503  1.00  0.00     0.099 A 
HETATM   17  C   UNL     1     -40.912  53.706 -53.673  1.00  0.00     0.201 A 
HETATM   18  C   UNL     1     -40.449  52.315 -53.422  1.00  0.00     0.045 A 
HETATM   19  O   UNL     1     -41.127  54.100 -54.818  1.00  0.00    -0.286 OA
HETATM   20  C   UNL     1     -40.204  51.900 -52.095  1.00  0.00     0.052 A 
HETATM   21  C   UNL     1     -40.249  51.451 -54.501  1.00  0.00     0.060 A 
HETATM   22  C   UNL     1     -39.785  50.576 -51.857  1.00  0.00    -0.031 A 
HETATM   23  N   UNL     1     -40.448  52.800 -51.046  1.00  0.00    -0.364 N 
HETATM   24  C   UNL     1     -39.519  50.063 -50.470  1.00  0.00     0.050 C 
HETATM   25  C   UNL     1     -39.578  49.720 -52.951  1.00  0.00     0.051 A 
HETATM   26  C   UNL     1     -39.811  50.161 -54.251  1.00  0.00     0.117 A 
HETATM   27  F   UNL     1     -39.608  49.323 -55.275  1.00  0.00    -0.206 F 
HETATM   28  C   UNL     1     -40.836  54.092 -51.292  1.00  0.00     0.109 A 
HETATM   29  H   UNL     1     -40.141  52.566 -50.109  1.00  0.00     0.165 HD
ENDBRANCH  13  16
ENDBRANCH  10  12
ENDBRANCH   1  10
TORSDOF 3
ENDMDL
MODEL 7
REMARK VINA RESULT:      -8.7      2.149      2.474
REMARK  3 active torsions:
REMARK  status: ('A' for Active; 'I' for Inactive)
REMARK    1  A    between atoms: C_7  and  C_8 
REMARK       I    between atoms: C_8  and  N_9 
REMARK    2  A    between atoms: N_9  and  N_10 
REMARK    3  A    between atoms: N_10  and  C_11 
ROOT
HETATM    1  C   UNL     1     -44.708  58.035 -56.467  1.00  0.00     0.124 A 
HETATM    2  N   UNL     1     -44.468  59.353 -56.340  1.00  0.00    -0.223 NA
HETATM    3  C   UNL     1     -43.653  59.930 -57.243  1.00  0.00     0.129 A 
HETATM    4 CL   UNL     1     -43.408  61.611 -57.010  1.00  0.00    -0.062 Cl
HETATM    5  C   UNL     1     -43.036  59.267 -58.281  1.00  0.00     0.067 A 
HETATM    6  C   UNL     1     -43.278  57.903 -58.391  1.00  0.00     0.051 A 
HETATM    7  C   UNL     1     -42.663  57.146 -59.438  1.00  0.00     0.099 C 
HETATM    8  N   UNL     1     -42.163  56.538 -60.290  1.00  0.00    -0.191 NA
HETATM    9  C   UNL     1     -44.118  57.274 -57.472  1.00  0.00     0.068 A 
ENDROOT
BRANCH   1  10
HETATM   10  N   UNL     1     -45.527  57.444 -55.484  1.00  0.00    -0.186 NA
HETATM   11  H   UNL     1     -46.346  57.077 -55.990  1.00  0.00     0.154 HD
BRANCH  10  12
HETATM   12  N   UNL     1     -44.879  56.429 -54.750  1.00  0.00    -0.281 N 
HETATM   13  C   UNL     1     -44.098  56.816 -53.680  1.00  0.00     0.271 C 
HETATM   14  O   UNL     1     -44.123  57.953 -53.209  1.00  0.00    -0.266 OA
HETATM   15  H   UNL     1     -44.685  55.549 -55.237  1.00  0.00     0.184 HD
BRANCH  13  16
HETATM   16  C   UNL     1     -43.192  55.758 -53.152  1.00  0.00     0.099 A 
HETATM   17  C   UNL     1     -42.499  54.752 -54.002  1.00  0.00     0.201 A 
HETATM   18  C   UNL     1     -41.580  53.788 -53.340  1.00  0.00     0.045 A 
HETATM   19  O   UNL     1     -42.665  54.727 -55.219  1.00  0.00    -0.286 OA
HETATM   20  C   UNL     1     -41.407  53.852 -51.940  1.00  0.00     0.052 A 
HETATM   21  C   UNL     1     -40.895  52.848 -54.114  1.00  0.00     0.060 A 
HETATM   22  C   UNL     1     -40.552  52.924 -51.312  1.00  0.00    -0.031 A 
HETATM   23  N   UNL     1     -42.141  54.796 -51.208  1.00  0.00    -0.364 N 
HETATM   24  C   UNL     1     -40.331  52.926 -49.825  1.00  0.00     0.050 C 
HETATM   25  C   UNL     1     -39.861  51.991 -52.102  1.00  0.00     0.051 A 
HETATM   26  C   UNL     1     -40.039  51.962 -53.482  1.00  0.00     0.117 A 
HETATM   27  F   UNL     1     -39.369  51.060 -54.211  1.00  0.00    -0.206 F 
HETATM   28  C   UNL     1     -42.954  55.707 -51.832  1.00  0.00     0.109 A 
HETATM   29  H   UNL     1     -41.919  54.950 -50.230  1.00  0.00     0.165 HD
ENDBRANCH  13  16
ENDBRANCH  10  12
ENDBRANCH   1  10
TORSDOF 3
ENDMDL
MODEL 8
REMARK VINA RESULT:      -8.7      4.418      6.406
REMARK  3 active torsions:
REMARK  status: ('A' for Active; 'I' for Inactive)
REMARK    1  A    between atoms: C_7  and  C_8 
REMARK       I    between atoms: C_8  and  N_9 
REMARK    2  A    between atoms: N_9  and  N_10 
REMARK    3  A    between atoms: N_10  and  C_11 
ROOT
HETATM    1  C   UNL     1     -42.724  58.580 -51.958  1.00  0.00     0.124 A 
HETATM    2  N   UNL     1     -43.658  59.434 -51.498  1.00  0.00    -0.223 NA
HETATM    3  C   UNL     1     -43.252  60.420 -50.676  1.00  0.00     0.129 A 
HETATM    4 CL   UNL     1     -44.504  61.463 -50.142  1.00  0.00    -0.062 Cl
HETATM    5  C   UNL     1     -41.952  60.612 -50.262  1.00  0.00     0.067 A 
HETATM    6  C   UNL     1     -41.001  59.714 -50.731  1.00  0.00     0.051 A 
HETATM    7  C   UNL     1     -39.632  59.844 -50.335  1.00  0.00     0.099 C 
HETATM    8  N   UNL     1     -38.524  59.956 -50.012  1.00  0.00    -0.191 NA
HETATM    9  C   UNL     1     -41.388  58.681 -51.585  1.00  0.00     0.068 A 
ENDROOT
BRANCH   1  10
HETATM   10  N   UNL     1     -43.180  57.529 -52.780  1.00  0.00    -0.186 NA
HETATM   11  H   UNL     1     -43.083  57.871 -53.746  1.00  0.00     0.154 HD
BRANCH  10  12
HETATM   12  N   UNL     1     -42.476  56.323 -52.589  1.00  0.00    -0.281 N 
HETATM   13  C   UNL     1     -41.498  56.002 -53.508  1.00  0.00     0.271 C 
HETATM   14  O   UNL     1     -41.067  56.807 -54.334  1.00  0.00    -0.266 OA
HETATM   15  H   UNL     1     -42.949  55.582 -52.061  1.00  0.00     0.184 HD
BRANCH  13  16
HETATM   16  C   UNL     1     -41.022  54.593 -53.450  1.00  0.00     0.099 A 
HETATM   17  C   UNL     1     -40.674  53.880 -52.190  1.00  0.00     0.201 A 
HETATM   18  C   UNL     1     -40.262  52.454 -52.281  1.00  0.00     0.045 A 
HETATM   19  O   UNL     1     -40.738  54.448 -51.102  1.00  0.00    -0.286 OA
HETATM   20  C   UNL     1     -40.207  51.832 -53.547  1.00  0.00     0.052 A 
HETATM   21  C   UNL     1     -39.954  51.751 -51.114  1.00  0.00     0.060 A 
HETATM   22  C   UNL     1     -39.798  50.487 -53.634  1.00  0.00    -0.031 A 
HETATM   23  N   UNL     1     -40.500  52.593 -54.690  1.00  0.00    -0.364 N 
HETATM   24  C   UNL     1     -39.704  49.767 -54.949  1.00  0.00     0.050 C 
HETATM   25  C   UNL     1     -39.500  49.788 -52.452  1.00  0.00     0.051 A 
HETATM   26  C   UNL     1     -39.580  50.422 -51.215  1.00  0.00     0.117 A 
HETATM   27  F   UNL     1     -39.288  49.733 -50.105  1.00  0.00    -0.206 F 
HETATM   28  C   UNL     1     -40.916  53.895 -54.592  1.00  0.00     0.109 A 
HETATM   29  H   UNL     1     -40.605  52.126 -55.584  1.00  0.00     0.165 HD
ENDBRANCH  13  16
ENDBRANCH  10  12
ENDBRANCH   1  10
TORSDOF 3
ENDMDL
MODEL 9
REMARK VINA RESULT:      -8.6      1.993      2.453
REMARK  3 active torsions:
REMARK  status: ('A' for Active; 'I' for Inactive)
REMARK    1  A    between atoms: C_7  and  C_8 
REMARK       I    between atoms: C_8  and  N_9 
REMARK    2  A    between atoms: N_9  and  N_10 
REMARK    3  A    between atoms: N_10  and  C_11 
ROOT
HETATM    1  C   UNL     1     -44.017  57.330 -57.730  1.00  0.00     0.124 A 
HETATM    2  N   UNL     1     -44.324  56.190 -58.376  1.00  0.00    -0.223 NA
HETATM    3  C   UNL     1     -43.948  56.079 -59.664  1.00  0.00     0.129 A 
HETATM    4 CL   UNL     1     -44.376  54.593 -60.406  1.00  0.00    -0.062 Cl
HETATM    5  C   UNL     1     -43.281  57.054 -60.374  1.00  0.00     0.067 A 
HETATM    6  C   UNL     1     -42.984  58.232 -59.701  1.00  0.00     0.051 A 
HETATM    7  C   UNL     1     -42.302  59.294 -60.376  1.00  0.00     0.099 C 
HETATM    8  N   UNL     1     -41.748  60.150 -60.929  1.00  0.00    -0.191 NA
HETATM    9  C   UNL     1     -43.359  58.379 -58.365  1.00  0.00     0.068 A 
ENDROOT
BRANCH   1  10
HETATM   10  N   UNL     1     -44.461  57.441 -56.397  1.00  0.00    -0.186 NA
HETATM   11  H   UNL     1     -45.490  57.437 -56.447  1.00  0.00     0.154 HD
BRANCH  10  12
HETATM   12  N   UNL     1     -43.983  56.413 -55.560  1.00  0.00    -0.281 N 
HETATM   13  C   UNL     1     -43.340  56.784 -54.396  1.00  0.00     0.271 C 
HETATM   14  O   UNL     1     -43.365  57.933 -53.956  1.00  0.00    -0.266 OA
HETATM   15  H   UNL     1     -43.774  55.510 -55.998  1.00  0.00     0.184 HD
BRANCH  13  16
HETATM   16  C   UNL     1     -42.580  55.693 -53.725  1.00  0.00     0.099 A 
HETATM   17  C   UNL     1     -41.870  54.603 -54.448  1.00  0.00     0.201 A 
HETATM   18  C   UNL     1     -41.107  53.610 -53.646  1.00  0.00     0.045 A 
HETATM   19  O   UNL     1     -41.898  54.531 -55.675  1.00  0.00    -0.286 OA
HETATM   20  C   UNL     1     -41.090  53.728 -52.239  1.00  0.00     0.052 A 
HETATM   21  C   UNL     1     -40.409  52.590 -54.297  1.00  0.00     0.060 A 
HETATM   22  C   UNL     1     -40.383  52.775 -51.479  1.00  0.00    -0.031 A 
HETATM   23  N   UNL     1     -41.832  54.755 -51.635  1.00  0.00    -0.364 N 
HETATM   24  C   UNL     1     -40.334  52.832 -49.978  1.00  0.00     0.050 C 
HETATM   25  C   UNL     1     -39.677  51.760 -52.146  1.00  0.00     0.051 A 
HETATM   26  C   UNL     1     -39.697  51.678 -53.536  1.00  0.00     0.117 A 
HETATM   27  F   UNL     1     -39.017  50.699 -54.145  1.00  0.00    -0.206 F 
HETATM   28  C   UNL     1     -42.499  55.688 -52.386  1.00  0.00     0.109 A 
HETATM   29  H   UNL     1     -41.712  54.938 -50.645  1.00  0.00     0.165 HD
ENDBRANCH  13  16
ENDBRANCH  10  12
ENDBRANCH   1  10
TORSDOF 3
ENDMDL
MODEL 10
REMARK VINA RESULT:      -8.5      2.370      2.742
REMARK  3 active torsions:
REMARK  status: ('A' for Active; 'I' for Inactive)
REMARK    1  A    between atoms: C_7  and  C_8 
REMARK       I    between atoms: C_8  and  N_9 
REMARK    2  A    between atoms: N_9  and  N_10 
REMARK    3  A    between atoms: N_10  and  C_11 
ROOT
HETATM    1  C   UNL     1     -42.186  59.016 -56.388  1.00  0.00     0.124 A 
HETATM    2  N   UNL     1     -41.690  60.229 -56.694  1.00  0.00    -0.223 NA
HETATM    3  C   UNL     1     -41.518  60.524 -57.997  1.00  0.00     0.129 A 
HETATM    4 CL   UNL     1     -40.888  62.091 -58.295  1.00  0.00    -0.062 Cl
HETATM    5  C   UNL     1     -41.802  59.669 -59.039  1.00  0.00     0.067 A 
HETATM    6  C   UNL     1     -42.297  58.415 -58.709  1.00  0.00     0.051 A 
HETATM    7  C   UNL     1     -42.605  57.469 -59.739  1.00  0.00     0.099 C 
HETATM    8  N   UNL     1     -42.854  56.708 -60.578  1.00  0.00    -0.191 NA
HETATM    9  C   UNL     1     -42.488  58.077 -57.369  1.00  0.00     0.068 A 
ENDROOT
BRANCH   1  10
HETATM   10  N   UNL     1     -42.313  58.713 -55.017  1.00  0.00    -0.186 NA
HETATM   11  H   UNL     1     -43.303  58.881 -54.787  1.00  0.00     0.154 HD
BRANCH  10  12
HETATM   12  N   UNL     1     -41.928  57.396 -54.696  1.00  0.00    -0.281 N 
HETATM   13  C   UNL     1     -42.688  56.718 -53.765  1.00  0.00     0.271 C 
HETATM   14  O   UNL     1     -43.790  57.114 -53.384  1.00  0.00    -0.266 OA
HETATM   15  H   UNL     1     -40.943  57.148 -54.834  1.00  0.00     0.184 HD
BRANCH  13  16
HETATM   16  C   UNL     1     -42.062  55.478 -53.228  1.00  0.00     0.099 A 
HETATM   17  C   UNL     1     -41.424  54.431 -54.072  1.00  0.00     0.201 A 
HETATM   18  C   UNL     1     -40.790  53.271 -53.393  1.00  0.00     0.045 A 
HETATM   19  O   UNL     1     -41.406  54.528 -55.298  1.00  0.00    -0.286 OA
HETATM   20  C   UNL     1     -40.823  53.196 -51.983  1.00  0.00     0.052 A 
HETATM   21  C   UNL     1     -40.161  52.284 -54.156  1.00  0.00     0.060 A 
HETATM   22  C   UNL     1     -40.240  52.086 -51.341  1.00  0.00    -0.031 A 
HETATM   23  N   UNL     1     -41.493  54.199 -51.266  1.00  0.00    -0.364 N 
HETATM   24  C   UNL     1     -40.249  51.936 -49.846  1.00  0.00     0.050 C 
HETATM   25  C   UNL     1     -39.601  51.107 -52.120  1.00  0.00     0.051 A 
HETATM   26  C   UNL     1     -39.569  51.214 -53.507  1.00  0.00     0.117 A 
HETATM   27  F   UNL     1     -38.957  50.265 -54.225  1.00  0.00    -0.206 F 
HETATM   28  C   UNL     1     -42.039  55.285 -51.900  1.00  0.00     0.109 A 
HETATM   29  H   UNL     1     -41.399  54.236 -50.257  1.00  0.00     0.165 HD
ENDBRANCH  13  16
ENDBRANCH  10  12
ENDBRANCH   1  10
TORSDOF 3
ENDMDL
