MODEL 1
REMARK VINA RESULT:      -8.0      0.000      0.000
REMARK  4 active torsions:
REMARK  status: ('A' for Active; 'I' for Inactive)
REMARK    1  A    between atoms: C_2  and  C_3 
REMARK    2  A    between atoms: C_5  and  C_6 
REMARK       I    between atoms: C_6  and  N_7 
REMARK    3  A    between atoms: N_7  and  C_8 
REMARK    4  A    between atoms: C_10  and  C_11 
ROOT
HETATM    1  C   UNL     1     -40.905  53.752 -54.005  1.00  0.00     0.035 A 
HETATM    2  C   UNL     1     -41.032  54.147 -52.669  1.00  0.00     0.042 A 
HETATM    3  C   UNL     1     -40.506  53.365 -51.624  1.00  0.00    -0.021 A 
HETATM    4  C   UNL     1     -39.863  52.162 -51.942  1.00  0.00     0.012 A 
HETATM    5  C   UNL     1     -39.740  51.753 -53.271  1.00  0.00     0.003 A 
HETATM    6  C   UNL     1     -40.255  52.548 -54.296  1.00  0.00     0.029 A 
ENDROOT
BRANCH   1   7
HETATM    7  N   UNL     1     -41.380  54.503 -55.096  1.00  0.00    -0.321 N 
HETATM    8  C   UNL     1     -42.682  54.860 -55.397  1.00  0.00     0.280 C 
HETATM    9  O   UNL     1     -43.679  54.517 -54.769  1.00  0.00    -0.265 OA
HETATM   10  H   UNL     1     -40.689  54.853 -55.753  1.00  0.00     0.169 HD
BRANCH   8  11
HETATM   11  C   UNL     1     -42.769  55.712 -56.570  1.00  0.00     0.144 A 
HETATM   12  O   UNL     1     -43.243  55.196 -57.748  1.00  0.00    -0.309 OA
HETATM   13  C   UNL     1     -43.182  56.190 -58.680  1.00  0.00     0.059 A 
HETATM   14  C   UNL     1     -42.689  57.353 -58.117  1.00  0.00    -0.029 A 
HETATM   15  C   UNL     1     -42.428  57.037 -56.756  1.00  0.00     0.052 A 
HETATM   16  C   UNL     1     -42.469  58.657 -58.790  1.00  0.00     0.050 C 
BRANCH  13  17
HETATM   17  C   UNL     1     -43.625  55.828 -60.052  1.00  0.00     0.061 C 
HETATM   18  C   UNL     1     -44.590  54.654 -60.040  1.00  0.00     0.012 C 
ENDBRANCH  13  17
ENDBRANCH   8  11
ENDBRANCH   1   7
BRANCH   3  19
HETATM   19  C   UNL     1     -40.616  53.790 -50.236  1.00  0.00     0.010 A 
HETATM   20  C   UNL     1     -41.037  55.019 -49.672  1.00  0.00     0.152 A 
HETATM   21  N   UNL     1     -41.018  55.014 -48.335  1.00  0.00    -0.187 NA
HETATM   22  N   UNL     1     -40.581  53.780 -48.036  1.00  0.00    -0.289 N 
HETATM   23  H   UNL     1     -40.480  53.528 -47.059  1.00  0.00     0.188 HD
HETATM   24  C   UNL     1     -40.333  53.009 -49.134  1.00  0.00     0.123 A 
ENDBRANCH   3  19
TORSDOF 4
ENDMDL
MODEL 2
REMARK VINA RESULT:      -7.9      2.181      3.030
REMARK  4 active torsions:
REMARK  status: ('A' for Active; 'I' for Inactive)
REMARK    1  A    between atoms: C_2  and  C_3 
REMARK    2  A    between atoms: C_5  and  C_6 
REMARK       I    between atoms: C_6  and  N_7 
REMARK    3  A    between atoms: N_7  and  C_8 
REMARK    4  A    between atoms: C_10  and  C_11 
ROOT
HETATM    1  C   UNL     1     -41.150  54.511 -53.971  1.00  0.00     0.035 A 
HETATM    2  C   UNL     1     -40.718  53.181 -53.933  1.00  0.00     0.042 A 
HETATM    3  C   UNL     1     -40.342  52.571 -52.723  1.00  0.00    -0.021 A 
HETATM    4  C   UNL     1     -40.387  53.327 -51.546  1.00  0.00     0.012 A 
HETATM    5  C   UNL     1     -40.807  54.657 -51.573  1.00  0.00     0.003 A 
HETATM    6  C   UNL     1     -41.191  55.243 -52.780  1.00  0.00     0.029 A 
ENDROOT
BRANCH   1   7
HETATM    7  N   UNL     1     -41.571  55.169 -55.142  1.00  0.00    -0.321 N 
HETATM    8  C   UNL     1     -42.660  54.886 -55.948  1.00  0.00     0.280 C 
HETATM    9  O   UNL     1     -43.433  53.945 -55.798  1.00  0.00    -0.265 OA
HETATM   10  H   UNL     1     -41.025  55.969 -55.445  1.00  0.00     0.169 HD
BRANCH   8  11
HETATM   11  C   UNL     1     -42.815  55.843 -57.030  1.00  0.00     0.144 A 
HETATM   12  O   UNL     1     -43.394  55.446 -58.207  1.00  0.00    -0.309 OA
HETATM   13  C   UNL     1     -43.380  56.518 -59.048  1.00  0.00     0.059 A 
HETATM   14  C   UNL     1     -42.813  57.615 -58.426  1.00  0.00    -0.029 A 
HETATM   15  C   UNL     1     -42.454  57.172 -57.123  1.00  0.00     0.052 A 
HETATM   16  C   UNL     1     -42.611  58.970 -58.996  1.00  0.00     0.050 C 
BRANCH  13  17
HETATM   17  C   UNL     1     -43.939  56.291 -60.407  1.00  0.00     0.061 C 
HETATM   18  C   UNL     1     -44.734  54.998 -60.478  1.00  0.00     0.012 C 
ENDBRANCH  13  17
ENDBRANCH   8  11
ENDBRANCH   1   7
BRANCH   3  19
HETATM   19  C   UNL     1     -39.917  51.179 -52.681  1.00  0.00     0.010 A 
HETATM   20  C   UNL     1     -39.753  50.226 -53.717  1.00  0.00     0.152 A 
HETATM   21  N   UNL     1     -39.320  49.042 -53.274  1.00  0.00    -0.187 NA
HETATM   22  N   UNL     1     -39.206  49.229 -51.949  1.00  0.00    -0.289 N 
HETATM   23  H   UNL     1     -38.886  48.454 -51.379  1.00  0.00     0.188 HD
HETATM   24  C   UNL     1     -39.544  50.488 -51.546  1.00  0.00     0.123 A 
ENDBRANCH   3  19
TORSDOF 4
ENDMDL
MODEL 3
REMARK VINA RESULT:      -7.8      2.556      8.357
REMARK  4 active torsions:
REMARK  status: ('A' for Active; 'I' for Inactive)
REMARK    1  A    between atoms: C_2  and  C_3 
REMARK    2  A    between atoms: C_5  and  C_6 
REMARK       I    between atoms: C_6  and  N_7 
REMARK    3  A    between atoms: N_7  and  C_8 
REMARK    4  A    between atoms: C_10  and  C_11 
ROOT
HETATM    1  C   UNL     1     -42.269  55.782 -55.666  1.00  0.00     0.035 A 
HETATM    2  C   UNL     1     -42.851  55.266 -56.829  1.00  0.00     0.042 A 
HETATM    3  C   UNL     1     -43.269  56.113 -57.872  1.00  0.00    -0.021 A 
HETATM    4  C   UNL     1     -43.110  57.496 -57.721  1.00  0.00     0.012 A 
HETATM    5  C   UNL     1     -42.539  58.021 -56.562  1.00  0.00     0.003 A 
HETATM    6  C   UNL     1     -42.117  57.167 -55.542  1.00  0.00     0.029 A 
ENDROOT
BRANCH   1   7
HETATM    7  N   UNL     1     -41.802  54.989 -54.602  1.00  0.00    -0.321 N 
HETATM    8  C   UNL     1     -40.703  54.148 -54.569  1.00  0.00     0.280 C 
HETATM    9  O   UNL     1     -39.963  53.904 -55.517  1.00  0.00    -0.265 OA
HETATM   10  H   UNL     1     -42.316  55.038 -53.728  1.00  0.00     0.169 HD
BRANCH   8  11
HETATM   11  C   UNL     1     -40.494  53.556 -53.259  1.00  0.00     0.144 A 
HETATM   12  O   UNL     1     -40.048  52.264 -53.163  1.00  0.00    -0.309 OA
HETATM   13  C   UNL     1     -39.976  51.957 -51.837  1.00  0.00     0.059 A 
HETATM   14  C   UNL     1     -40.354  53.042 -51.066  1.00  0.00    -0.029 A 
HETATM   15  C   UNL     1     -40.683  54.070 -51.991  1.00  0.00     0.052 A 
HETATM   16  C   UNL     1     -40.413  53.118 -49.586  1.00  0.00     0.050 C 
BRANCH  13  17
HETATM   17  C   UNL     1     -39.539  50.574 -51.508  1.00  0.00     0.061 C 
HETATM   18  C   UNL     1     -39.636  49.653 -52.713  1.00  0.00     0.012 C 
ENDBRANCH  13  17
ENDBRANCH   8  11
ENDBRANCH   1   7
BRANCH   3  19
HETATM   19  C   UNL     1     -43.851  55.573 -59.092  1.00  0.00     0.010 A 
HETATM   20  C   UNL     1     -44.090  56.175 -60.353  1.00  0.00     0.152 A 
HETATM   21  N   UNL     1     -44.630  55.333 -61.239  1.00  0.00    -0.187 NA
HETATM   22  N   UNL     1     -44.743  54.187 -60.550  1.00  0.00    -0.289 N 
HETATM   23  H   UNL     1     -45.136  53.379 -61.020  1.00  0.00     0.188 HD
HETATM   24  C   UNL     1     -44.287  54.276 -59.267  1.00  0.00     0.123 A 
ENDBRANCH   3  19
TORSDOF 4
ENDMDL
MODEL 4
REMARK VINA RESULT:      -7.3      2.597      8.543
REMARK  4 active torsions:
REMARK  status: ('A' for Active; 'I' for Inactive)
REMARK    1  A    between atoms: C_2  and  C_3 
REMARK    2  A    between atoms: C_5  and  C_6 
REMARK       I    between atoms: C_6  and  N_7 
REMARK    3  A    between atoms: N_7  and  C_8 
REMARK    4  A    between atoms: C_10  and  C_11 
ROOT
HETATM    1  C   UNL     1     -42.574  55.958 -55.215  1.00  0.00     0.035 A 
HETATM    2  C   UNL     1     -42.916  55.732 -56.553  1.00  0.00     0.042 A 
HETATM    3  C   UNL     1     -43.455  56.757 -57.351  1.00  0.00    -0.021 A 
HETATM    4  C   UNL     1     -43.664  58.017 -56.776  1.00  0.00     0.012 A 
HETATM    5  C   UNL     1     -43.335  58.251 -55.441  1.00  0.00     0.003 A 
HETATM    6  C   UNL     1     -42.789  57.227 -54.667  1.00  0.00     0.029 A 
ENDROOT
BRANCH   1   7
HETATM    7  N   UNL     1     -42.002  54.986 -54.374  1.00  0.00    -0.321 N 
HETATM    8  C   UNL     1     -40.704  54.505 -54.367  1.00  0.00     0.280 C 
HETATM    9  O   UNL     1     -39.823  54.820 -55.160  1.00  0.00    -0.265 OA
HETATM   10  H   UNL     1     -42.600  54.581 -53.660  1.00  0.00     0.169 HD
BRANCH   8  11
HETATM   11  C   UNL     1     -40.467  53.558 -53.291  1.00  0.00     0.144 A 
HETATM   12  O   UNL     1     -40.686  53.939 -51.993  1.00  0.00    -0.309 OA
HETATM   13  C   UNL     1     -40.354  52.883 -51.198  1.00  0.00     0.059 A 
HETATM   14  C   UNL     1     -39.936  51.811 -51.966  1.00  0.00    -0.029 A 
HETATM   15  C   UNL     1     -40.015  52.254 -53.314  1.00  0.00     0.052 A 
HETATM   16  C   UNL     1     -39.490  50.479 -51.486  1.00  0.00     0.050 C 
BRANCH  13  17
HETATM   17  C   UNL     1     -40.489  53.098 -49.733  1.00  0.00     0.061 C 
HETATM   18  C   UNL     1     -39.643  54.266 -49.257  1.00  0.00     0.012 C 
ENDBRANCH  13  17
ENDBRANCH   8  11
ENDBRANCH   1   7
BRANCH   3  19
HETATM   19  C   UNL     1     -43.786  56.528 -58.749  1.00  0.00     0.010 A 
HETATM   20  C   UNL     1     -43.843  55.332 -59.506  1.00  0.00     0.152 A 
HETATM   21  N   UNL     1     -44.214  55.533 -60.775  1.00  0.00    -0.187 NA
HETATM   22  N   UNL     1     -44.393  56.862 -60.838  1.00  0.00    -0.289 N 
HETATM   23  H   UNL     1     -44.683  57.268 -61.721  1.00  0.00     0.188 HD
HETATM   24  C   UNL     1     -44.157  57.500 -59.656  1.00  0.00     0.123 A 
ENDBRANCH   3  19
TORSDOF 4
ENDMDL
MODEL 5
REMARK VINA RESULT:      -7.2      2.653      4.039
REMARK  4 active torsions:
REMARK  status: ('A' for Active; 'I' for Inactive)
REMARK    1  A    between atoms: C_2  and  C_3 
REMARK    2  A    between atoms: C_5  and  C_6 
REMARK       I    between atoms: C_6  and  N_7 
REMARK    3  A    between atoms: N_7  and  C_8 
REMARK    4  A    between atoms: C_10  and  C_11 
ROOT
HETATM    1  C   UNL     1     -41.024  54.997 -54.281  1.00  0.00     0.035 A 
HETATM    2  C   UNL     1     -40.645  53.657 -54.411  1.00  0.00     0.042 A 
HETATM    3  C   UNL     1     -40.396  52.858 -53.280  1.00  0.00    -0.021 A 
HETATM    4  C   UNL     1     -40.516  53.434 -52.009  1.00  0.00     0.012 A 
HETATM    5  C   UNL     1     -40.884  54.772 -51.869  1.00  0.00     0.003 A 
HETATM    6  C   UNL     1     -41.141  55.547 -53.001  1.00  0.00     0.029 A 
ENDROOT
BRANCH   1   7
HETATM    7  N   UNL     1     -41.318  55.840 -55.370  1.00  0.00    -0.321 N 
HETATM    8  C   UNL     1     -42.547  56.336 -55.770  1.00  0.00     0.280 C 
HETATM    9  O   UNL     1     -43.627  56.066 -55.256  1.00  0.00    -0.265 OA
HETATM   10  H   UNL     1     -40.538  56.149 -55.940  1.00  0.00     0.169 HD
BRANCH   8  11
HETATM   11  C   UNL     1     -42.439  57.245 -56.898  1.00  0.00     0.144 A 
HETATM   12  O   UNL     1     -42.457  58.598 -56.682  1.00  0.00    -0.309 OA
HETATM   13  C   UNL     1     -42.378  59.206 -57.900  1.00  0.00     0.059 A 
HETATM   14  C   UNL     1     -42.292  58.262 -58.907  1.00  0.00    -0.029 A 
HETATM   15  C   UNL     1     -42.329  57.000 -58.253  1.00  0.00     0.052 A 
HETATM   16  C   UNL     1     -42.192  58.510 -60.367  1.00  0.00     0.050 C 
BRANCH  13  17
HETATM   17  C   UNL     1     -42.414  60.692 -57.893  1.00  0.00     0.061 C 
HETATM   18  C   UNL     1     -41.080  61.288 -58.308  1.00  0.00     0.012 C 
ENDBRANCH  13  17
ENDBRANCH   8  11
ENDBRANCH   1   7
BRANCH   3  19
HETATM   19  C   UNL     1     -40.027  51.456 -53.415  1.00  0.00     0.010 A 
HETATM   20  C   UNL     1     -39.670  50.492 -52.440  1.00  0.00     0.152 A 
HETATM   21  N   UNL     1     -39.415  49.289 -52.964  1.00  0.00    -0.187 NA
HETATM   22  N   UNL     1     -39.604  49.478 -54.280  1.00  0.00    -0.289 N 
HETATM   23  H   UNL     1     -39.467  48.690 -54.905  1.00  0.00     0.188 HD
HETATM   24  C   UNL     1     -39.976  50.751 -54.600  1.00  0.00     0.123 A 
ENDBRANCH   3  19
TORSDOF 4
ENDMDL
MODEL 6
REMARK VINA RESULT:      -7.2      4.500      6.342
REMARK  4 active torsions:
REMARK  status: ('A' for Active; 'I' for Inactive)
REMARK    1  A    between atoms: C_2  and  C_3 
REMARK    2  A    between atoms: C_5  and  C_6 
REMARK       I    between atoms: C_6  and  N_7 
REMARK    3  A    between atoms: N_7  and  C_8 
REMARK    4  A    between atoms: C_10  and  C_11 
ROOT
HETATM    1  C   UNL     1     -41.380  55.713 -50.365  1.00  0.00     0.035 A 
HETATM    2  C   UNL     1     -41.067  54.871 -51.438  1.00  0.00     0.042 A 
HETATM    3  C   UNL     1     -40.559  53.577 -51.224  1.00  0.00    -0.021 A 
HETATM    4  C   UNL     1     -40.350  53.145 -49.908  1.00  0.00     0.012 A 
HETATM    5  C   UNL     1     -40.650  53.980 -48.831  1.00  0.00     0.003 A 
HETATM    6  C   UNL     1     -41.167  55.256 -49.061  1.00  0.00     0.029 A 
ENDROOT
BRANCH   1   7
HETATM    7  N   UNL     1     -41.921  57.005 -50.510  1.00  0.00    -0.321 N 
HETATM    8  C   UNL     1     -41.259  58.195 -50.756  1.00  0.00     0.280 C 
HETATM    9  O   UNL     1     -40.042  58.332 -50.833  1.00  0.00    -0.265 OA
HETATM   10  H   UNL     1     -42.930  57.094 -50.445  1.00  0.00     0.169 HD
BRANCH   8  11
HETATM   11  C   UNL     1     -42.170  59.314 -50.924  1.00  0.00     0.144 A 
HETATM   12  O   UNL     1     -43.301  59.158 -51.682  1.00  0.00    -0.309 OA
HETATM   13  C   UNL     1     -43.946  60.359 -51.700  1.00  0.00     0.059 A 
HETATM   14  C   UNL     1     -43.255  61.292 -50.948  1.00  0.00    -0.029 A 
HETATM   15  C   UNL     1     -42.113  60.609 -50.448  1.00  0.00     0.052 A 
HETATM   16  C   UNL     1     -43.621  62.711 -50.715  1.00  0.00     0.050 C 
BRANCH  13  17
HETATM   17  C   UNL     1     -45.196  60.419 -52.503  1.00  0.00     0.061 C 
HETATM   18  C   UNL     1     -46.433  60.336 -51.624  1.00  0.00     0.012 C 
ENDBRANCH  13  17
ENDBRANCH   8  11
ENDBRANCH   1   7
BRANCH   3  19
HETATM   19  C   UNL     1     -40.257  52.692 -52.340  1.00  0.00     0.010 A 
HETATM   20  C   UNL     1     -39.477  51.511 -52.404  1.00  0.00     0.152 A 
HETATM   21  N   UNL     1     -39.458  50.964 -53.623  1.00  0.00    -0.187 NA
HETATM   22  N   UNL     1     -40.224  51.795 -54.349  1.00  0.00    -0.289 N 
HETATM   23  H   UNL     1     -40.364  51.587 -55.331  1.00  0.00     0.188 HD
HETATM   24  C   UNL     1     -40.729  52.838 -53.628  1.00  0.00     0.123 A 
ENDBRANCH   3  19
TORSDOF 4
ENDMDL
MODEL 7
REMARK VINA RESULT:      -7.1      2.575      3.773
REMARK  4 active torsions:
REMARK  status: ('A' for Active; 'I' for Inactive)
REMARK    1  A    between atoms: C_2  and  C_3 
REMARK    2  A    between atoms: C_5  and  C_6 
REMARK       I    between atoms: C_6  and  N_7 
REMARK    3  A    between atoms: N_7  and  C_8 
REMARK    4  A    between atoms: C_10  and  C_11 
ROOT
HETATM    1  C   UNL     1     -41.194  54.723 -52.775  1.00  0.00     0.035 A 
HETATM    2  C   UNL     1     -40.811  53.424 -53.124  1.00  0.00     0.042 A 
HETATM    3  C   UNL     1     -40.232  52.556 -52.180  1.00  0.00    -0.021 A 
HETATM    4  C   UNL     1     -40.025  53.022 -50.876  1.00  0.00     0.012 A 
HETATM    5  C   UNL     1     -40.395  54.319 -50.520  1.00  0.00     0.003 A 
HETATM    6  C   UNL     1     -40.980  55.163 -51.465  1.00  0.00     0.029 A 
ENDROOT
BRANCH   1   7
HETATM    7  N   UNL     1     -41.806  55.628 -53.663  1.00  0.00    -0.321 N 
HETATM    8  C   UNL     1     -43.063  55.559 -54.236  1.00  0.00     0.280 C 
HETATM    9  O   UNL     1     -43.857  54.633 -54.103  1.00  0.00    -0.265 OA
HETATM   10  H   UNL     1     -41.277  56.457 -53.917  1.00  0.00     0.169 HD
BRANCH   8  11
HETATM   11  C   UNL     1     -43.374  56.728 -55.040  1.00  0.00     0.144 A 
HETATM   12  O   UNL     1     -42.394  57.303 -55.805  1.00  0.00    -0.309 OA
HETATM   13  C   UNL     1     -42.943  58.390 -56.419  1.00  0.00     0.059 A 
HETATM   14  C   UNL     1     -44.276  58.520 -56.073  1.00  0.00    -0.029 A 
HETATM   15  C   UNL     1     -44.547  57.442 -55.186  1.00  0.00     0.052 A 
HETATM   16  C   UNL     1     -45.226  59.566 -56.525  1.00  0.00     0.050 C 
BRANCH  13  17
HETATM   17  C   UNL     1     -42.030  59.185 -57.282  1.00  0.00     0.061 C 
HETATM   18  C   UNL     1     -42.158  58.794 -58.744  1.00  0.00     0.012 C 
ENDBRANCH  13  17
ENDBRANCH   8  11
ENDBRANCH   1   7
BRANCH   3  19
HETATM   19  C   UNL     1     -39.857  51.195 -52.538  1.00  0.00     0.010 A 
HETATM   20  C   UNL     1     -39.685  50.581 -53.803  1.00  0.00     0.152 A 
HETATM   21  N   UNL     1     -39.311  49.302 -53.716  1.00  0.00    -0.187 NA
HETATM   22  N   UNL     1     -39.244  49.087 -52.392  1.00  0.00    -0.289 N 
HETATM   23  H   UNL     1     -38.974  48.165 -52.066  1.00  0.00     0.188 HD
HETATM   24  C   UNL     1     -39.555  50.187 -51.647  1.00  0.00     0.123 A 
ENDBRANCH   3  19
TORSDOF 4
ENDMDL
MODEL 8
REMARK VINA RESULT:      -7.1      3.781      5.318
REMARK  4 active torsions:
REMARK  status: ('A' for Active; 'I' for Inactive)
REMARK    1  A    between atoms: C_2  and  C_3 
REMARK    2  A    between atoms: C_5  and  C_6 
REMARK       I    between atoms: C_6  and  N_7 
REMARK    3  A    between atoms: N_7  and  C_8 
REMARK    4  A    between atoms: C_10  and  C_11 
ROOT
HETATM    1  C   UNL     1     -41.275  54.853 -51.653  1.00  0.00     0.035 A 
HETATM    2  C   UNL     1     -41.051  53.743 -52.476  1.00  0.00     0.042 A 
HETATM    3  C   UNL     1     -40.220  52.686 -52.063  1.00  0.00    -0.021 A 
HETATM    4  C   UNL     1     -39.597  52.769 -50.811  1.00  0.00     0.012 A 
HETATM    5  C   UNL     1     -39.805  53.875 -49.987  1.00  0.00     0.003 A 
HETATM    6  C   UNL     1     -40.644  54.909 -50.406  1.00  0.00     0.029 A 
ENDROOT
BRANCH   1   7
HETATM    7  N   UNL     1     -42.119  55.926 -51.993  1.00  0.00    -0.321 N 
HETATM    8  C   UNL     1     -43.376  56.226 -51.499  1.00  0.00     0.280 C 
HETATM    9  O   UNL     1     -44.007  55.547 -50.696  1.00  0.00    -0.265 OA
HETATM   10  H   UNL     1     -41.772  56.590 -52.678  1.00  0.00     0.169 HD
BRANCH   8  11
HETATM   11  C   UNL     1     -43.904  57.468 -52.036  1.00  0.00     0.144 A 
HETATM   12  O   UNL     1     -43.217  58.124 -53.023  1.00  0.00    -0.309 OA
HETATM   13  C   UNL     1     -43.909  59.264 -53.311  1.00  0.00     0.059 A 
HETATM   14  C   UNL     1     -45.048  59.349 -52.532  1.00  0.00    -0.029 A 
HETATM   15  C   UNL     1     -45.039  58.185 -51.714  1.00  0.00     0.052 A 
HETATM   16  C   UNL     1     -46.065  60.429 -52.538  1.00  0.00     0.050 C 
BRANCH  13  17
HETATM   17  C   UNL     1     -43.312  60.148 -54.346  1.00  0.00     0.061 C 
HETATM   18  C   UNL     1     -41.956  59.639 -54.806  1.00  0.00     0.012 C 
ENDBRANCH  13  17
ENDBRANCH   8  11
ENDBRANCH   1   7
BRANCH   3  19
HETATM   19  C   UNL     1     -40.008  51.520 -52.908  1.00  0.00     0.010 A 
HETATM   20  C   UNL     1     -39.573  50.209 -52.592  1.00  0.00     0.152 A 
HETATM   21  N   UNL     1     -39.525  49.404 -53.657  1.00  0.00    -0.187 NA
HETATM   22  N   UNL     1     -39.925  50.196 -54.664  1.00  0.00    -0.289 N 
HETATM   23  H   UNL     1     -39.971  49.802 -55.597  1.00  0.00     0.188 HD
HETATM   24  C   UNL     1     -40.230  51.466 -54.269  1.00  0.00     0.123 A 
ENDBRANCH   3  19
TORSDOF 4
ENDMDL
MODEL 9
REMARK VINA RESULT:      -6.9     14.309     17.176
REMARK  4 active torsions:
REMARK  status: ('A' for Active; 'I' for Inactive)
REMARK    1  A    between atoms: C_2  and  C_3 
REMARK    2  A    between atoms: C_5  and  C_6 
REMARK       I    between atoms: C_6  and  N_7 
REMARK    3  A    between atoms: N_7  and  C_8 
REMARK    4  A    between atoms: C_10  and  C_11 
ROOT
HETATM    1  C   UNL     1     -37.270  40.920 -57.145  1.00  0.00     0.035 A 
HETATM    2  C   UNL     1     -37.830  39.836 -57.829  1.00  0.00     0.042 A 
HETATM    3  C   UNL     1     -38.010  39.870 -59.224  1.00  0.00    -0.021 A 
HETATM    4  C   UNL     1     -37.634  41.023 -59.924  1.00  0.00     0.012 A 
HETATM    5  C   UNL     1     -37.084  42.113 -59.250  1.00  0.00     0.003 A 
HETATM    6  C   UNL     1     -36.899  42.059 -57.868  1.00  0.00     0.029 A 
ENDROOT
BRANCH   1   7
HETATM    7  N   UNL     1     -37.033  40.938 -55.758  1.00  0.00    -0.321 N 
HETATM    8  C   UNL     1     -37.945  41.095 -54.729  1.00  0.00     0.280 C 
HETATM    9  O   UNL     1     -39.145  41.309 -54.865  1.00  0.00    -0.265 OA
HETATM   10  H   UNL     1     -36.076  40.804 -55.449  1.00  0.00     0.169 HD
BRANCH   8  11
HETATM   11  C   UNL     1     -37.331  40.976 -53.417  1.00  0.00     0.144 A 
HETATM   12  O   UNL     1     -36.193  41.686 -53.137  1.00  0.00    -0.309 OA
HETATM   13  C   UNL     1     -35.816  41.363 -51.867  1.00  0.00     0.059 A 
HETATM   14  C   UNL     1     -36.706  40.462 -51.311  1.00  0.00    -0.029 A 
HETATM   15  C   UNL     1     -37.681  40.220 -52.317  1.00  0.00     0.052 A 
HETATM   16  C   UNL     1     -36.653  39.864 -49.954  1.00  0.00     0.050 C 
BRANCH  13  17
HETATM   17  C   UNL     1     -34.571  42.007 -51.370  1.00  0.00     0.061 C 
HETATM   18  C   UNL     1     -33.404  41.035 -51.355  1.00  0.00     0.012 C 
ENDBRANCH  13  17
ENDBRANCH   8  11
ENDBRANCH   1   7
BRANCH   3  19
HETATM   19  C   UNL     1     -38.569  38.731 -59.938  1.00  0.00     0.010 A 
HETATM   20  C   UNL     1     -38.647  38.451 -61.325  1.00  0.00     0.152 A 
HETATM   21  N   UNL     1     -39.223  37.275 -61.589  1.00  0.00    -0.187 NA
HETATM   22  N   UNL     1     -39.522  36.795 -60.372  1.00  0.00    -0.289 N 
HETATM   23  H   UNL     1     -39.978  35.892 -60.308  1.00  0.00     0.188 HD
HETATM   24  C   UNL     1     -39.147  37.623 -59.354  1.00  0.00     0.123 A 
ENDBRANCH   3  19
TORSDOF 4
ENDMDL
MODEL 10
REMARK VINA RESULT:      -6.8      2.744      4.085
REMARK  4 active torsions:
REMARK  status: ('A' for Active; 'I' for Inactive)
REMARK    1  A    between atoms: C_2  and  C_3 
REMARK    2  A    between atoms: C_5  and  C_6 
REMARK       I    between atoms: C_6  and  N_7 
REMARK    3  A    between atoms: N_7  and  C_8 
REMARK    4  A    between atoms: C_10  and  C_11 
ROOT
HETATM    1  C   UNL     1     -40.919  54.715 -52.581  1.00  0.00     0.035 A 
HETATM    2  C   UNL     1     -40.563  53.397 -52.885  1.00  0.00     0.042 A 
HETATM    3  C   UNL     1     -40.198  52.490 -51.874  1.00  0.00    -0.021 A 
HETATM    4  C   UNL     1     -40.176  52.935 -50.546  1.00  0.00     0.012 A 
HETATM    5  C   UNL     1     -40.520  54.250 -50.233  1.00  0.00     0.003 A 
HETATM    6  C   UNL     1     -40.894  55.133 -51.247  1.00  0.00     0.029 A 
ENDROOT
BRANCH   1   7
HETATM    7  N   UNL     1     -41.324  55.662 -53.541  1.00  0.00    -0.321 N 
HETATM    8  C   UNL     1     -42.585  56.193 -53.752  1.00  0.00     0.280 C 
HETATM    9  O   UNL     1     -43.604  55.870 -53.151  1.00  0.00    -0.265 OA
HETATM   10  H   UNL     1     -40.608  56.028 -54.161  1.00  0.00     0.169 HD
BRANCH   8  11
HETATM   11  C   UNL     1     -42.594  57.210 -54.789  1.00  0.00     0.144 A 
HETATM   12  O   UNL     1     -42.941  58.497 -54.472  1.00  0.00    -0.309 OA
HETATM   13  C   UNL     1     -42.902  59.224 -55.625  1.00  0.00     0.059 A 
HETATM   14  C   UNL     1     -42.517  58.427 -56.688  1.00  0.00    -0.029 A 
HETATM   15  C   UNL     1     -42.317  57.130 -56.139  1.00  0.00     0.052 A 
HETATM   16  C   UNL     1     -42.353  58.833 -58.105  1.00  0.00     0.050 C 
BRANCH  13  17
HETATM   17  C   UNL     1     -43.280  60.657 -55.508  1.00  0.00     0.061 C 
HETATM   18  C   UNL     1     -44.767  60.866 -55.741  1.00  0.00     0.012 C 
ENDBRANCH  13  17
ENDBRANCH   8  11
ENDBRANCH   1   7
BRANCH   3  19
HETATM   19  C   UNL     1     -39.852  51.111 -52.188  1.00  0.00     0.010 A 
HETATM   20  C   UNL     1     -39.684  50.456 -53.433  1.00  0.00     0.152 A 
HETATM   21  N   UNL     1     -39.341  49.171 -53.304  1.00  0.00    -0.187 NA
HETATM   22  N   UNL     1     -39.292  48.994 -51.974  1.00  0.00    -0.289 N 
HETATM   23  H   UNL     1     -39.046  48.076 -51.619  1.00  0.00     0.188 HD
HETATM   24  C   UNL     1     -39.582  50.122 -51.264  1.00  0.00     0.123 A 
ENDBRANCH   3  19
TORSDOF 4
ENDMDL
