MODEL 1
REMARK VINA RESULT:      -8.6      0.000      0.000
REMARK  4 active torsions:
REMARK  status: ('A' for Active; 'I' for Inactive)
REMARK    1  A    between atoms: O_2  and  C_3 
REMARK    2  A    between atoms: C_8  and  C_9 
REMARK    3  A    between atoms: N_11  and  C_12 
REMARK    4  A    between atoms: C_12  and  C_13 
ROOT
HETATM    1  C   UNL     1     -39.935  51.511 -51.440  1.00  0.00     0.069 A 
HETATM    2  C   UNL     1     -40.232  52.187 -50.259  1.00  0.00     0.056 A 
HETATM    3  C   UNL     1     -40.605  53.533 -50.303  1.00  0.00     0.063 A 
HETATM    4  C   UNL     1     -40.688  54.230 -51.510  1.00  0.00     0.074 A 
HETATM    5  N   UNL     1     -41.043  55.590 -51.578  1.00  0.00    -0.234 NA
HETATM    6  C   UNL     1     -41.317  56.203 -50.472  1.00  0.00     0.113 A 
HETATM    7  N   UNL     1     -41.282  55.581 -49.251  1.00  0.00    -0.310 N 
HETATM    8  C   UNL     1     -40.915  54.273 -49.072  1.00  0.00     0.259 A 
HETATM    9  O   UNL     1     -40.834  53.767 -47.961  1.00  0.00    -0.267 OA
HETATM   10  C   UNL     1     -40.390  53.545 -52.687  1.00  0.00     0.035 A 
HETATM   11  C   UNL     1     -40.016  52.193 -52.657  1.00  0.00     0.039 A 
HETATM   12  H   UNL     1     -41.471  56.088 -48.395  1.00  0.00     0.170 HD
ENDROOT
BRANCH   6  13
HETATM   13  C   UNL     1     -41.686  57.681 -50.495  1.00  0.00     0.082 C 
HETATM   14  C   UNL     1     -42.846  57.945 -51.438  1.00  0.00     0.139 C 
HETATM   15  N   UNL     1     -42.186  58.205 -52.695  1.00  0.00    -0.347 N 
HETATM   16  C   UNL     1     -40.900  58.690 -52.512  1.00  0.00     0.220 C 
HETATM   17  O   UNL     1     -40.156  59.128 -53.373  1.00  0.00    -0.273 OA
HETATM   18  C   UNL     1     -40.554  58.550 -51.046  1.00  0.00     0.117 C 
BRANCH  15  19
HETATM   19  C   UNL     1     -42.899  58.271 -53.957  1.00  0.00     0.164 C 
BRANCH  19  20
HETATM   20  C   UNL     1     -42.952  56.951 -54.680  1.00  0.00    -0.040 A 
HETATM   21  C   UNL     1     -43.449  55.812 -54.030  1.00  0.00     0.009 A 
HETATM   22  C   UNL     1     -43.527  54.591 -54.701  1.00  0.00     0.001 A 
HETATM   23  C   UNL     1     -43.098  54.494 -56.023  1.00  0.00     0.000 A 
HETATM   24  C   UNL     1     -42.586  55.614 -56.673  1.00  0.00     0.001 A 
HETATM   25  C   UNL     1     -42.511  56.839 -56.006  1.00  0.00     0.009 A 
ENDBRANCH  19  20
ENDBRANCH  15  19
ENDBRANCH   6  13
BRANCH   1  26
HETATM   26  O   UNL     1     -39.579  50.203 -51.273  1.00  0.00    -0.356 OA
HETATM   27  C   UNL     1     -39.609  49.369 -52.424  1.00  0.00     0.210 C 
ENDBRANCH   1  26
TORSDOF 4
ENDMDL
MODEL 2
REMARK VINA RESULT:      -8.3      2.207      6.358
REMARK  4 active torsions:
REMARK  status: ('A' for Active; 'I' for Inactive)
REMARK    1  A    between atoms: O_2  and  C_3 
REMARK    2  A    between atoms: C_8  and  C_9 
REMARK    3  A    between atoms: N_11  and  C_12 
REMARK    4  A    between atoms: C_12  and  C_13 
ROOT
HETATM    1  C   UNL     1     -42.835  56.582 -58.126  1.00  0.00     0.069 A 
HETATM    2  C   UNL     1     -42.455  57.683 -57.363  1.00  0.00     0.056 A 
HETATM    3  C   UNL     1     -42.477  57.603 -55.968  1.00  0.00     0.063 A 
HETATM    4  C   UNL     1     -42.875  56.439 -55.308  1.00  0.00     0.074 A 
HETATM    5  N   UNL     1     -42.923  56.340 -53.906  1.00  0.00    -0.234 NA
HETATM    6  C   UNL     1     -42.566  57.372 -53.210  1.00  0.00     0.113 A 
HETATM    7  N   UNL     1     -42.141  58.541 -53.785  1.00  0.00    -0.310 N 
HETATM    8  C   UNL     1     -42.091  58.752 -55.138  1.00  0.00     0.259 A 
HETATM    9  O   UNL     1     -41.765  59.830 -55.616  1.00  0.00    -0.267 OA
HETATM   10  C   UNL     1     -43.252  55.341 -56.081  1.00  0.00     0.035 A 
HETATM   11  C   UNL     1     -43.233  55.408 -57.482  1.00  0.00     0.039 A 
HETATM   12  H   UNL     1     -41.894  59.346 -53.222  1.00  0.00     0.170 HD
ENDROOT
BRANCH   6  13
HETATM   13  C   UNL     1     -42.622  57.318 -51.689  1.00  0.00     0.082 C 
HETATM   14  C   UNL     1     -41.354  56.715 -51.112  1.00  0.00     0.139 C 
HETATM   15  N   UNL     1     -41.662  55.306 -51.061  1.00  0.00    -0.347 N 
HETATM   16  C   UNL     1     -43.026  55.079 -50.963  1.00  0.00     0.220 C 
HETATM   17  O   UNL     1     -43.574  54.008 -50.763  1.00  0.00    -0.273 OA
HETATM   18  C   UNL     1     -43.734  56.396 -51.184  1.00  0.00     0.117 C 
BRANCH  15  19
HETATM   19  C   UNL     1     -40.656  54.292 -50.804  1.00  0.00     0.164 C 
BRANCH  19  20
HETATM   20  C   UNL     1     -40.411  53.386 -51.981  1.00  0.00    -0.040 A 
HETATM   21  C   UNL     1     -40.731  53.814 -53.278  1.00  0.00     0.009 A 
HETATM   22  C   UNL     1     -40.482  52.992 -54.377  1.00  0.00     0.001 A 
HETATM   23  C   UNL     1     -39.922  51.730 -54.190  1.00  0.00     0.000 A 
HETATM   24  C   UNL     1     -39.616  51.286 -52.905  1.00  0.00     0.001 A 
HETATM   25  C   UNL     1     -39.859  52.108 -51.804  1.00  0.00     0.009 A 
ENDBRANCH  19  20
ENDBRANCH  15  19
ENDBRANCH   6  13
BRANCH   1  26
HETATM   26  O   UNL     1     -42.777  56.779 -59.477  1.00  0.00    -0.356 OA
HETATM   27  C   UNL     1     -41.770  57.658 -59.962  1.00  0.00     0.210 C 
ENDBRANCH   1  26
TORSDOF 4
ENDMDL
MODEL 3
REMARK VINA RESULT:      -8.2      2.745      7.095
REMARK  4 active torsions:
REMARK  status: ('A' for Active; 'I' for Inactive)
REMARK    1  A    between atoms: O_2  and  C_3 
REMARK    2  A    between atoms: C_8  and  C_9 
REMARK    3  A    between atoms: N_11  and  C_12 
REMARK    4  A    between atoms: C_12  and  C_13 
ROOT
HETATM    1  C   UNL     1     -43.565  61.126 -52.208  1.00  0.00     0.069 A 
HETATM    2  C   UNL     1     -44.198  60.040 -51.609  1.00  0.00     0.056 A 
HETATM    3  C   UNL     1     -43.988  58.752 -52.106  1.00  0.00     0.063 A 
HETATM    4  C   UNL     1     -43.154  58.517 -53.200  1.00  0.00     0.074 A 
HETATM    5  N   UNL     1     -42.941  57.231 -53.730  1.00  0.00    -0.234 NA
HETATM    6  C   UNL     1     -43.536  56.232 -53.161  1.00  0.00     0.113 A 
HETATM    7  N   UNL     1     -44.351  56.379 -52.069  1.00  0.00    -0.310 N 
HETATM    8  C   UNL     1     -44.651  57.589 -51.500  1.00  0.00     0.259 A 
HETATM    9  O   UNL     1     -45.432  57.690 -50.563  1.00  0.00    -0.267 OA
HETATM   10  C   UNL     1     -42.522  59.610 -53.793  1.00  0.00     0.035 A 
HETATM   11  C   UNL     1     -42.723  60.908 -53.302  1.00  0.00     0.039 A 
HETATM   12  H   UNL     1     -44.830  55.588 -51.658  1.00  0.00     0.170 HD
ENDROOT
BRANCH   6  13
HETATM   13  C   UNL     1     -43.352  54.824 -53.714  1.00  0.00     0.082 C 
HETATM   14  C   UNL     1     -42.641  53.929 -52.714  1.00  0.00     0.139 C 
HETATM   15  N   UNL     1     -41.249  54.119 -53.044  1.00  0.00    -0.347 N 
HETATM   16  C   UNL     1     -41.078  54.493 -54.368  1.00  0.00     0.220 C 
HETATM   17  O   UNL     1     -40.022  54.588 -54.969  1.00  0.00    -0.273 OA
HETATM   18  C   UNL     1     -42.442  54.801 -54.944  1.00  0.00     0.117 C 
BRANCH  15  19
HETATM   19  C   UNL     1     -40.171  53.650 -52.194  1.00  0.00     0.164 C 
BRANCH  19  20
HETATM   20  C   UNL     1     -39.974  52.159 -52.252  1.00  0.00    -0.040 A 
HETATM   21  C   UNL     1     -39.884  51.508 -53.492  1.00  0.00     0.009 A 
HETATM   22  C   UNL     1     -39.674  50.130 -53.556  1.00  0.00     0.001 A 
HETATM   23  C   UNL     1     -39.563  49.388 -52.382  1.00  0.00     0.000 A 
HETATM   24  C   UNL     1     -39.668  50.020 -51.145  1.00  0.00     0.001 A 
HETATM   25  C   UNL     1     -39.874  51.399 -51.078  1.00  0.00     0.009 A 
ENDBRANCH  19  20
ENDBRANCH  15  19
ENDBRANCH   6  13
BRANCH   1  26
HETATM   26  O   UNL     1     -43.849  62.336 -51.639  1.00  0.00    -0.356 OA
HETATM   27  C   UNL     1     -43.245  62.621 -50.384  1.00  0.00     0.210 C 
ENDBRANCH   1  26
TORSDOF 4
ENDMDL
MODEL 4
REMARK VINA RESULT:      -8.0      2.222      3.201
REMARK  4 active torsions:
REMARK  status: ('A' for Active; 'I' for Inactive)
REMARK    1  A    between atoms: O_2  and  C_3 
REMARK    2  A    between atoms: C_8  and  C_9 
REMARK    3  A    between atoms: N_11  and  C_12 
REMARK    4  A    between atoms: C_12  and  C_13 
ROOT
HETATM    1  C   UNL     1     -39.854  52.023 -52.512  1.00  0.00     0.069 A 
HETATM    2  C   UNL     1     -40.186  53.144 -51.754  1.00  0.00     0.056 A 
HETATM    3  C   UNL     1     -41.054  54.105 -52.277  1.00  0.00     0.063 A 
HETATM    4  C   UNL     1     -41.605  53.976 -53.553  1.00  0.00     0.074 A 
HETATM    5  N   UNL     1     -42.467  54.939 -54.109  1.00  0.00    -0.234 NA
HETATM    6  C   UNL     1     -42.766  55.975 -53.391  1.00  0.00     0.113 A 
HETATM    7  N   UNL     1     -42.284  56.160 -52.121  1.00  0.00    -0.310 N 
HETATM    8  C   UNL     1     -41.413  55.301 -51.504  1.00  0.00     0.259 A 
HETATM    9  O   UNL     1     -40.954  55.530 -50.393  1.00  0.00    -0.267 OA
HETATM   10  C   UNL     1     -41.270  52.850 -54.304  1.00  0.00     0.035 A 
HETATM   11  C   UNL     1     -40.400  51.877 -53.790  1.00  0.00     0.039 A 
HETATM   12  H   UNL     1     -42.507  56.992 -51.589  1.00  0.00     0.170 HD
ENDROOT
BRANCH   6  13
HETATM   13  C   UNL     1     -43.678  57.054 -53.959  1.00  0.00     0.082 C 
HETATM   14  C   UNL     1     -43.837  56.907 -55.462  1.00  0.00     0.139 C 
HETATM   15  N   UNL     1     -42.754  57.708 -55.980  1.00  0.00    -0.347 N 
HETATM   16  C   UNL     1     -42.382  58.708 -55.094  1.00  0.00     0.220 C 
HETATM   17  O   UNL     1     -41.601  59.619 -55.309  1.00  0.00    -0.273 OA
HETATM   18  C   UNL     1     -43.092  58.457 -53.783  1.00  0.00     0.117 C 
BRANCH  15  19
HETATM   19  C   UNL     1     -42.352  57.676 -57.373  1.00  0.00     0.164 C 
BRANCH  19  20
HETATM   20  C   UNL     1     -43.362  57.008 -58.268  1.00  0.00    -0.040 A 
HETATM   21  C   UNL     1     -43.133  55.706 -58.739  1.00  0.00     0.009 A 
HETATM   22  C   UNL     1     -44.076  55.068 -59.546  1.00  0.00     0.001 A 
HETATM   23  C   UNL     1     -45.250  55.730 -59.901  1.00  0.00     0.000 A 
HETATM   24  C   UNL     1     -45.480  57.029 -59.455  1.00  0.00     0.001 A 
HETATM   25  C   UNL     1     -44.541  57.668 -58.643  1.00  0.00     0.009 A 
ENDBRANCH  19  20
ENDBRANCH  15  19
ENDBRANCH   6  13
BRANCH   1  26
HETATM   26  O   UNL     1     -38.995  51.155 -51.899  1.00  0.00    -0.356 OA
HETATM   27  C   UNL     1     -39.569  50.124 -51.107  1.00  0.00     0.210 C 
ENDBRANCH   1  26
TORSDOF 4
ENDMDL
MODEL 5
REMARK VINA RESULT:      -8.0      1.889      2.615
REMARK  4 active torsions:
REMARK  status: ('A' for Active; 'I' for Inactive)
REMARK    1  A    between atoms: O_2  and  C_3 
REMARK    2  A    between atoms: C_8  and  C_9 
REMARK    3  A    between atoms: N_11  and  C_12 
REMARK    4  A    between atoms: C_12  and  C_13 
ROOT
HETATM    1  C   UNL     1     -39.719  51.131 -52.715  1.00  0.00     0.069 A 
HETATM    2  C   UNL     1     -40.068  52.154 -53.593  1.00  0.00     0.056 A 
HETATM    3  C   UNL     1     -40.474  53.393 -53.090  1.00  0.00     0.063 A 
HETATM    4  C   UNL     1     -40.542  53.639 -51.718  1.00  0.00     0.074 A 
HETATM    5  N   UNL     1     -40.965  54.871 -51.188  1.00  0.00    -0.234 NA
HETATM    6  C   UNL     1     -41.286  55.813 -52.017  1.00  0.00     0.113 A 
HETATM    7  N   UNL     1     -41.222  55.655 -53.377  1.00  0.00    -0.310 N 
HETATM    8  C   UNL     1     -40.858  54.487 -53.993  1.00  0.00     0.259 A 
HETATM    9  O   UNL     1     -40.872  54.363 -55.210  1.00  0.00    -0.267 OA
HETATM   10  C   UNL     1     -40.188  52.609 -50.846  1.00  0.00     0.035 A 
HETATM   11  C   UNL     1     -39.778  51.361 -51.338  1.00  0.00     0.039 A 
HETATM   12  H   UNL     1     -41.506  56.395 -54.007  1.00  0.00     0.170 HD
ENDROOT
BRANCH   6  13
HETATM   13  C   UNL     1     -41.769  57.157 -51.488  1.00  0.00     0.082 C 
HETATM   14  C   UNL     1     -43.061  57.582 -52.163  1.00  0.00     0.139 C 
HETATM   15  N   UNL     1     -42.595  58.326 -53.309  1.00  0.00    -0.347 N 
HETATM   16  C   UNL     1     -41.338  58.871 -53.096  1.00  0.00     0.220 C 
HETATM   17  O   UNL     1     -40.752  59.658 -53.819  1.00  0.00    -0.273 OA
HETATM   18  C   UNL     1     -40.792  58.289 -51.811  1.00  0.00     0.117 C 
BRANCH  15  19
HETATM   19  C   UNL     1     -43.472  58.727 -54.393  1.00  0.00     0.164 C 
BRANCH  19  20
HETATM   20  C   UNL     1     -43.142  58.060 -55.703  1.00  0.00    -0.040 A 
HETATM   21  C   UNL     1     -43.452  56.707 -55.901  1.00  0.00     0.009 A 
HETATM   22  C   UNL     1     -43.176  56.088 -57.121  1.00  0.00     0.001 A 
HETATM   23  C   UNL     1     -42.575  56.812 -58.149  1.00  0.00     0.000 A 
HETATM   24  C   UNL     1     -42.246  58.152 -57.957  1.00  0.00     0.001 A 
HETATM   25  C   UNL     1     -42.526  58.775 -56.740  1.00  0.00     0.009 A 
ENDBRANCH  19  20
ENDBRANCH  15  19
ENDBRANCH   6  13
BRANCH   1  26
HETATM   26  O   UNL     1     -39.343  49.965 -53.321  1.00  0.00    -0.356 OA
HETATM   27  C   UNL     1     -39.720  49.789 -54.680  1.00  0.00     0.210 C 
ENDBRANCH   1  26
TORSDOF 4
ENDMDL
MODEL 6
REMARK VINA RESULT:      -8.0      2.819      4.150
REMARK  4 active torsions:
REMARK  status: ('A' for Active; 'I' for Inactive)
REMARK    1  A    between atoms: O_2  and  C_3 
REMARK    2  A    between atoms: C_8  and  C_9 
REMARK    3  A    between atoms: N_11  and  C_12 
REMARK    4  A    between atoms: C_12  and  C_13 
ROOT
HETATM    1  C   UNL     1     -40.465  52.567 -53.148  1.00  0.00     0.069 A 
HETATM    2  C   UNL     1     -41.413  52.822 -54.137  1.00  0.00     0.056 A 
HETATM    3  C   UNL     1     -42.183  53.986 -54.078  1.00  0.00     0.063 A 
HETATM    4  C   UNL     1     -42.032  54.912 -53.044  1.00  0.00     0.074 A 
HETATM    5  N   UNL     1     -42.808  56.082 -52.953  1.00  0.00    -0.234 NA
HETATM    6  C   UNL     1     -43.684  56.304 -53.880  1.00  0.00     0.113 A 
HETATM    7  N   UNL     1     -43.875  55.455 -54.939  1.00  0.00    -0.310 N 
HETATM    8  C   UNL     1     -43.197  54.275 -55.101  1.00  0.00     0.259 A 
HETATM    9  O   UNL     1     -43.437  53.510 -56.026  1.00  0.00    -0.267 OA
HETATM   10  C   UNL     1     -41.079  54.650 -52.060  1.00  0.00     0.035 A 
HETATM   11  C   UNL     1     -40.298  53.485 -52.109  1.00  0.00     0.039 A 
HETATM   12  H   UNL     1     -44.586  55.633 -55.637  1.00  0.00     0.170 HD
ENDROOT
BRANCH   6  13
HETATM   13  C   UNL     1     -44.562  57.547 -53.812  1.00  0.00     0.082 C 
HETATM   14  C   UNL     1     -45.308  57.768 -55.116  1.00  0.00     0.139 C 
HETATM   15  N   UNL     1     -44.395  58.591 -55.873  1.00  0.00    -0.347 N 
HETATM   16  C   UNL     1     -43.558  59.328 -55.048  1.00  0.00     0.220 C 
HETATM   17  O   UNL     1     -42.786  60.207 -55.390  1.00  0.00    -0.273 OA
HETATM   18  C   UNL     1     -43.740  58.825 -53.633  1.00  0.00     0.117 C 
BRANCH  15  19
HETATM   19  C   UNL     1     -44.570  58.859 -57.288  1.00  0.00     0.164 C 
BRANCH  19  20
HETATM   20  C   UNL     1     -44.390  57.638 -58.151  1.00  0.00    -0.040 A 
HETATM   21  C   UNL     1     -45.399  57.254 -59.047  1.00  0.00     0.009 A 
HETATM   22  C   UNL     1     -45.230  56.141 -59.870  1.00  0.00     0.001 A 
HETATM   23  C   UNL     1     -44.057  55.392 -59.798  1.00  0.00     0.000 A 
HETATM   24  C   UNL     1     -43.056  55.753 -58.899  1.00  0.00     0.001 A 
HETATM   25  C   UNL     1     -43.219  56.869 -58.077  1.00  0.00     0.009 A 
ENDBRANCH  19  20
ENDBRANCH  15  19
ENDBRANCH   6  13
BRANCH   1  26
HETATM   26  O   UNL     1     -39.776  51.398 -53.309  1.00  0.00    -0.356 OA
HETATM   27  C   UNL     1     -40.186  50.543 -54.368  1.00  0.00     0.210 C 
ENDBRANCH   1  26
TORSDOF 4
ENDMDL
MODEL 7
REMARK VINA RESULT:      -7.9      3.072      6.689
REMARK  4 active torsions:
REMARK  status: ('A' for Active; 'I' for Inactive)
REMARK    1  A    between atoms: O_2  and  C_3 
REMARK    2  A    between atoms: C_8  and  C_9 
REMARK    3  A    between atoms: N_11  and  C_12 
REMARK    4  A    between atoms: C_12  and  C_13 
ROOT
HETATM    1  C   UNL     1     -44.248  56.584 -58.861  1.00  0.00     0.069 A 
HETATM    2  C   UNL     1     -44.713  57.627 -58.063  1.00  0.00     0.056 A 
HETATM    3  C   UNL     1     -44.195  57.803 -56.778  1.00  0.00     0.063 A 
HETATM    4  C   UNL     1     -43.216  56.953 -56.260  1.00  0.00     0.074 A 
HETATM    5  N   UNL     1     -42.693  57.099 -54.963  1.00  0.00    -0.234 NA
HETATM    6  C   UNL     1     -43.134  58.074 -54.234  1.00  0.00     0.113 A 
HETATM    7  N   UNL     1     -44.077  58.963 -54.680  1.00  0.00    -0.310 N 
HETATM    8  C   UNL     1     -44.674  58.889 -55.911  1.00  0.00     0.259 A 
HETATM    9  O   UNL     1     -45.557  59.663 -56.252  1.00  0.00    -0.267 OA
HETATM   10  C   UNL     1     -42.755  55.913 -57.067  1.00  0.00     0.035 A 
HETATM   11  C   UNL     1     -43.265  55.726 -58.360  1.00  0.00     0.039 A 
HETATM   12  H   UNL     1     -44.430  59.701 -54.083  1.00  0.00     0.170 HD
ENDROOT
BRANCH   6  13
HETATM   13  C   UNL     1     -42.612  58.258 -52.815  1.00  0.00     0.082 C 
HETATM   14  C   UNL     1     -41.926  57.000 -52.313  1.00  0.00     0.139 C 
HETATM   15  N   UNL     1     -43.007  56.267 -51.700  1.00  0.00    -0.347 N 
HETATM   16  C   UNL     1     -44.022  57.107 -51.268  1.00  0.00     0.220 C 
HETATM   17  O   UNL     1     -44.990  56.795 -50.596  1.00  0.00    -0.273 OA
HETATM   18  C   UNL     1     -43.742  58.491 -51.810  1.00  0.00     0.117 C 
BRANCH  15  19
HETATM   19  C   UNL     1     -42.881  54.880 -51.292  1.00  0.00     0.164 C 
BRANCH  19  20
HETATM   20  C   UNL     1     -42.049  54.055 -52.237  1.00  0.00    -0.040 A 
HETATM   21  C   UNL     1     -40.888  53.416 -51.779  1.00  0.00     0.009 A 
HETATM   22  C   UNL     1     -40.126  52.626 -52.641  1.00  0.00     0.001 A 
HETATM   23  C   UNL     1     -40.510  52.478 -53.972  1.00  0.00     0.000 A 
HETATM   24  C   UNL     1     -41.652  53.122 -54.444  1.00  0.00     0.001 A 
HETATM   25  C   UNL     1     -42.419  53.909 -53.582  1.00  0.00     0.009 A 
ENDBRANCH  19  20
ENDBRANCH  15  19
ENDBRANCH   6  13
BRANCH   1  26
HETATM   26  O   UNL     1     -44.830  56.509 -60.095  1.00  0.00    -0.356 OA
HETATM   27  C   UNL     1     -44.916  55.223 -60.695  1.00  0.00     0.210 C 
ENDBRANCH   1  26
TORSDOF 4
ENDMDL
MODEL 8
REMARK VINA RESULT:      -7.8     14.654     17.617
REMARK  4 active torsions:
REMARK  status: ('A' for Active; 'I' for Inactive)
REMARK    1  A    between atoms: O_2  and  C_3 
REMARK    2  A    between atoms: C_8  and  C_9 
REMARK    3  A    between atoms: N_11  and  C_12 
REMARK    4  A    between atoms: C_12  and  C_13 
ROOT
HETATM    1  C   UNL     1     -38.820  38.526 -59.818  1.00  0.00     0.069 A 
HETATM    2  C   UNL     1     -38.359  39.837 -59.917  1.00  0.00     0.056 A 
HETATM    3  C   UNL     1     -37.437  40.321 -58.987  1.00  0.00     0.063 A 
HETATM    4  C   UNL     1     -36.959  39.523 -57.946  1.00  0.00     0.074 A 
HETATM    5  N   UNL     1     -36.044  39.993 -56.987  1.00  0.00    -0.234 NA
HETATM    6  C   UNL     1     -35.624  41.213 -57.093  1.00  0.00     0.113 A 
HETATM    7  N   UNL     1     -36.029  42.051 -58.100  1.00  0.00    -0.310 N 
HETATM    8  C   UNL     1     -36.941  41.702 -59.061  1.00  0.00     0.259 A 
HETATM    9  O   UNL     1     -37.326  42.496 -59.909  1.00  0.00    -0.267 OA
HETATM   10  C   UNL     1     -37.424  38.211 -57.856  1.00  0.00     0.035 A 
HETATM   11  C   UNL     1     -38.349  37.712 -58.785  1.00  0.00     0.039 A 
HETATM   12  H   UNL     1     -35.711  43.011 -58.147  1.00  0.00     0.170 HD
ENDROOT
BRANCH   6  13
HETATM   13  C   UNL     1     -34.649  41.773 -56.065  1.00  0.00     0.082 C 
HETATM   14  C   UNL     1     -34.185  40.695 -55.102  1.00  0.00     0.139 C 
HETATM   15  N   UNL     1     -35.166  40.766 -54.045  1.00  0.00    -0.347 N 
HETATM   16  C   UNL     1     -35.740  42.024 -53.955  1.00  0.00     0.220 C 
HETATM   17  O   UNL     1     -36.489  42.423 -53.080  1.00  0.00    -0.273 OA
HETATM   18  C   UNL     1     -35.302  42.822 -55.162  1.00  0.00     0.117 C 
BRANCH  15  19
HETATM   19  C   UNL     1     -35.277  39.754 -53.010  1.00  0.00     0.164 C 
BRANCH  19  20
HETATM   20  C   UNL     1     -34.096  39.728 -52.075  1.00  0.00    -0.040 A 
HETATM   21  C   UNL     1     -33.053  38.814 -52.285  1.00  0.00     0.009 A 
HETATM   22  C   UNL     1     -31.942  38.801 -51.440  1.00  0.00     0.001 A 
HETATM   23  C   UNL     1     -31.869  39.692 -50.372  1.00  0.00     0.000 A 
HETATM   24  C   UNL     1     -32.908  40.592 -50.143  1.00  0.00     0.001 A 
HETATM   25  C   UNL     1     -34.018  40.611 -50.988  1.00  0.00     0.009 A 
ENDBRANCH  19  20
ENDBRANCH  15  19
ENDBRANCH   6  13
BRANCH   1  26
HETATM   26  O   UNL     1     -39.722  38.166 -60.780  1.00  0.00    -0.356 OA
HETATM   27  C   UNL     1     -40.887  37.473 -60.351  1.00  0.00     0.210 C 
ENDBRANCH   1  26
TORSDOF 4
ENDMDL
MODEL 9
REMARK VINA RESULT:      -7.7      2.733      7.325
REMARK  4 active torsions:
REMARK  status: ('A' for Active; 'I' for Inactive)
REMARK    1  A    between atoms: O_2  and  C_3 
REMARK    2  A    between atoms: C_8  and  C_9 
REMARK    3  A    between atoms: N_11  and  C_12 
REMARK    4  A    between atoms: C_12  and  C_13 
ROOT
HETATM    1  C   UNL     1     -44.464  60.533 -51.288  1.00  0.00     0.069 A 
HETATM    2  C   UNL     1     -43.729  60.273 -52.443  1.00  0.00     0.056 A 
HETATM    3  C   UNL     1     -43.597  58.960 -52.901  1.00  0.00     0.063 A 
HETATM    4  C   UNL     1     -44.182  57.887 -52.228  1.00  0.00     0.074 A 
HETATM    5  N   UNL     1     -44.047  56.555 -52.659  1.00  0.00    -0.234 NA
HETATM    6  C   UNL     1     -43.363  56.330 -53.735  1.00  0.00     0.113 A 
HETATM    7  N   UNL     1     -42.777  57.332 -54.464  1.00  0.00    -0.310 N 
HETATM    8  C   UNL     1     -42.819  58.656 -54.111  1.00  0.00     0.259 A 
HETATM    9  O   UNL     1     -42.233  59.517 -54.751  1.00  0.00    -0.267 OA
HETATM   10  C   UNL     1     -44.918  58.156 -51.074  1.00  0.00     0.035 A 
HETATM   11  C   UNL     1     -45.060  59.471 -50.604  1.00  0.00     0.039 A 
HETATM   12  H   UNL     1     -42.221  57.131 -55.285  1.00  0.00     0.170 HD
ENDROOT
BRANCH   6  13
HETATM   13  C   UNL     1     -43.172  54.902 -54.228  1.00  0.00     0.082 C 
HETATM   14  C   UNL     1     -42.592  54.015 -53.141  1.00  0.00     0.139 C 
HETATM   15  N   UNL     1     -41.168  54.154 -53.338  1.00  0.00    -0.347 N 
HETATM   16  C   UNL     1     -40.858  54.483 -54.649  1.00  0.00     0.220 C 
HETATM   17  O   UNL     1     -39.746  54.528 -55.145  1.00  0.00    -0.273 OA
HETATM   18  C   UNL     1     -42.149  54.814 -55.363  1.00  0.00     0.117 C 
BRANCH  15  19
HETATM   19  C   UNL     1     -40.193  53.679 -52.374  1.00  0.00     0.164 C 
BRANCH  19  20
HETATM   20  C   UNL     1     -40.002  52.185 -52.409  1.00  0.00    -0.040 A 
HETATM   21  C   UNL     1     -39.978  51.508 -53.637  1.00  0.00     0.009 A 
HETATM   22  C   UNL     1     -39.773  50.128 -53.681  1.00  0.00     0.001 A 
HETATM   23  C   UNL     1     -39.603  49.411 -52.499  1.00  0.00     0.000 A 
HETATM   24  C   UNL     1     -39.643  50.070 -51.272  1.00  0.00     0.001 A 
HETATM   25  C   UNL     1     -39.843  51.451 -51.225  1.00  0.00     0.009 A 
ENDBRANCH  19  20
ENDBRANCH  15  19
ENDBRANCH   6  13
BRANCH   1  26
HETATM   26  O   UNL     1     -44.521  61.852 -50.935  1.00  0.00    -0.356 OA
HETATM   27  C   UNL     1     -45.801  62.385 -50.621  1.00  0.00     0.210 C 
ENDBRANCH   1  26
TORSDOF 4
ENDMDL
MODEL 10
REMARK VINA RESULT:      -7.6      2.409      4.405
REMARK  4 active torsions:
REMARK  status: ('A' for Active; 'I' for Inactive)
REMARK    1  A    between atoms: O_2  and  C_3 
REMARK    2  A    between atoms: C_8  and  C_9 
REMARK    3  A    between atoms: N_11  and  C_12 
REMARK    4  A    between atoms: C_12  and  C_13 
ROOT
HETATM    1  C   UNL     1     -40.183  52.299 -52.694  1.00  0.00     0.069 A 
HETATM    2  C   UNL     1     -41.273  52.996 -52.178  1.00  0.00     0.056 A 
HETATM    3  C   UNL     1     -41.926  53.947 -52.965  1.00  0.00     0.063 A 
HETATM    4  C   UNL     1     -41.513  54.226 -54.269  1.00  0.00     0.074 A 
HETATM    5  N   UNL     1     -42.143  55.192 -55.075  1.00  0.00    -0.234 NA
HETATM    6  C   UNL     1     -43.155  55.831 -54.580  1.00  0.00     0.113 A 
HETATM    7  N   UNL     1     -43.634  55.597 -53.318  1.00  0.00    -0.310 N 
HETATM    8  C   UNL     1     -43.072  54.705 -52.443  1.00  0.00     0.259 A 
HETATM    9  O   UNL     1     -43.488  54.566 -51.300  1.00  0.00    -0.267 OA
HETATM   10  C   UNL     1     -40.423  53.522 -54.779  1.00  0.00     0.035 A 
HETATM   11  C   UNL     1     -39.759  52.563 -53.999  1.00  0.00     0.039 A 
HETATM   12  H   UNL     1     -44.408  56.129 -52.940  1.00  0.00     0.170 HD
ENDROOT
BRANCH   6  13
HETATM   13  C   UNL     1     -43.855  56.901 -55.408  1.00  0.00     0.082 C 
HETATM   14  C   UNL     1     -42.989  58.139 -55.555  1.00  0.00     0.139 C 
HETATM   15  N   UNL     1     -43.368  58.934 -54.412  1.00  0.00    -0.347 N 
HETATM   16  C   UNL     1     -44.655  58.644 -53.985  1.00  0.00     0.220 C 
HETATM   17  O   UNL     1     -45.296  59.245 -53.139  1.00  0.00    -0.273 OA
HETATM   18  C   UNL     1     -45.126  57.416 -54.730  1.00  0.00     0.117 C 
BRANCH  15  19
HETATM   19  C   UNL     1     -42.626  60.109 -53.992  1.00  0.00     0.164 C 
BRANCH  19  20
HETATM   20  C   UNL     1     -41.886  59.913 -52.695  1.00  0.00    -0.040 A 
HETATM   21  C   UNL     1     -40.700  59.164 -52.668  1.00  0.00     0.009 A 
HETATM   22  C   UNL     1     -39.993  59.001 -51.476  1.00  0.00     0.001 A 
HETATM   23  C   UNL     1     -40.470  59.573 -50.299  1.00  0.00     0.000 A 
HETATM   24  C   UNL     1     -41.657  60.303 -50.310  1.00  0.00     0.001 A 
HETATM   25  C   UNL     1     -42.364  60.473 -51.502  1.00  0.00     0.009 A 
ENDBRANCH  19  20
ENDBRANCH  15  19
ENDBRANCH   6  13
BRANCH   1  26
HETATM   26  O   UNL     1     -39.623  51.398 -51.832  1.00  0.00    -0.356 OA
HETATM   27  C   UNL     1     -40.153  51.346 -50.514  1.00  0.00     0.210 C 
ENDBRANCH   1  26
TORSDOF 4
ENDMDL
