MODEL 1
REMARK VINA RESULT:     -10.5      0.000      0.000
REMARK  6 active torsions:
REMARK  status: ('A' for Active; 'I' for Inactive)
REMARK    1  A    between atoms: C_6  and  N_7 
REMARK       I    between atoms: N_7  and  C_8 
REMARK    2  A    between atoms: C_8  and  C_9 
REMARK    3  A    between atoms: C_9  and  S_10 
REMARK    4  A    between atoms: S_10  and  C_11 
REMARK    5  A    between atoms: N_16  and  C_18 
REMARK    6  A    between atoms: C_18  and  C_19 
ROOT
HETATM    1  C   UNL     1     -43.239  55.319 -52.106  1.00  0.00     0.169 A 
HETATM    2  N   UNL     1     -43.169  54.580 -53.164  1.00  0.00    -0.228 NA
HETATM    3  C   UNL     1     -43.137  55.230 -54.373  1.00  0.00     0.052 A 
HETATM    4  C   UNL     1     -43.197  56.564 -54.502  1.00  0.00     0.060 A 
HETATM    5  C   UNL     1     -43.078  57.296 -55.790  1.00  0.00     0.281 C 
HETATM    6  N   UNL     1     -42.534  56.416 -56.900  1.00  0.00    -0.063 N 
HETATM    7  H   UNL     1     -41.549  56.236 -56.669  1.00  0.00     0.280 HD
HETATM    8  C   UNL     1     -43.238  55.074 -56.912  1.00  0.00     0.241 C 
HETATM    9  C   UNL     1     -42.988  54.345 -55.586  1.00  0.00     0.088 C 
HETATM   10  C   UNL     1     -43.336  57.377 -53.281  1.00  0.00     0.257 A 
HETATM   11  O   UNL     1     -43.427  58.594 -53.356  1.00  0.00    -0.267 OA
HETATM   12  N   UNL     1     -43.343  56.674 -52.120  1.00  0.00    -0.302 N 
HETATM   13  H   UNL     1     -43.392  57.171 -51.243  1.00  0.00     0.171 HD
ENDROOT
BRANCH   1  14
HETATM   14  S   UNL     1     -43.213  54.671 -50.501  1.00  0.00    -0.083 SA
BRANCH  14  15
HETATM   15  C   UNL     1     -41.460  54.944 -50.088  1.00  0.00     0.185 C 
BRANCH  15  16
HETATM   16  C   UNL     1     -40.904  53.933 -49.100  1.00  0.00     0.231 C 
HETATM   17  N   UNL     1     -40.311  52.779 -49.531  1.00  0.00    -0.327 N 
HETATM   18  H   UNL     1     -39.933  52.265 -48.742  1.00  0.00     0.169 HD
HETATM   19  O   UNL     1     -40.921  54.116 -47.875  1.00  0.00    -0.272 OA
BRANCH  17  20
HETATM   20  C   UNL     1     -40.123  52.174 -50.788  1.00  0.00     0.035 A 
HETATM   21  C   UNL     1     -40.185  52.817 -52.023  1.00  0.00     0.037 A 
HETATM   22  C   UNL     1     -39.985  52.115 -53.232  1.00  0.00    -0.054 A 
HETATM   23  C   UNL     1     -39.747  50.729 -53.200  1.00  0.00    -0.056 A 
HETATM   24  C   UNL     1     -40.119  52.866 -54.532  1.00  0.00     0.049 C 
HETATM   25  C   UNL     1     -39.556  49.928 -54.460  1.00  0.00     0.049 C 
HETATM   26  C   UNL     1     -39.695  50.082 -51.962  1.00  0.00     0.009 A 
HETATM   27  C   UNL     1     -39.886  50.795 -50.775  1.00  0.00     0.030 A 
ENDBRANCH  17  20
ENDBRANCH  15  16
ENDBRANCH  14  15
ENDBRANCH   1  14
BRANCH   6  28
HETATM   28  C   UNL     1     -42.538  57.129 -58.231  1.00  0.00     0.273 C 
BRANCH  28  29
HETATM   29  C   UNL     1     -43.690  56.725 -59.115  1.00  0.00    -0.030 A 
HETATM   30  C   UNL     1     -44.876  57.483 -59.133  1.00  0.00     0.048 A 
HETATM   31  C   UNL     1     -45.883  57.095 -59.991  1.00  0.00     0.105 A 
HETATM   32  C   UNL     1     -45.766  55.991 -60.799  1.00  0.00     0.105 A 
HETATM   33  O   UNL     1     -47.073  57.731 -60.149  1.00  0.00    -0.323 OA
HETATM   34  O   UNL     1     -46.869  55.790 -61.564  1.00  0.00    -0.323 OA
HETATM   35  C   UNL     1     -44.633  55.209 -60.792  1.00  0.00     0.040 A 
HETATM   36  C   UNL     1     -47.703  56.890 -61.145  1.00  0.00     0.352 A 
HETATM   37  C   UNL     1     -43.585  55.582 -59.942  1.00  0.00     0.012 A 
ENDBRANCH  28  29
ENDBRANCH   6  28
TORSDOF 6
ENDMDL
MODEL 2
REMARK VINA RESULT:     -10.4      1.143      1.211
REMARK  6 active torsions:
REMARK  status: ('A' for Active; 'I' for Inactive)
REMARK    1  A    between atoms: C_6  and  N_7 
REMARK       I    between atoms: N_7  and  C_8 
REMARK    2  A    between atoms: C_8  and  C_9 
REMARK    3  A    between atoms: C_9  and  S_10 
REMARK    4  A    between atoms: S_10  and  C_11 
REMARK    5  A    between atoms: N_16  and  C_18 
REMARK    6  A    between atoms: C_18  and  C_19 
ROOT
HETATM    1  C   UNL     1     -41.788  57.029 -51.944  1.00  0.00     0.169 A 
HETATM    2  N   UNL     1     -42.294  56.202 -52.798  1.00  0.00    -0.228 NA
HETATM    3  C   UNL     1     -42.366  56.623 -54.102  1.00  0.00     0.052 A 
HETATM    4  C   UNL     1     -41.964  57.835 -54.515  1.00  0.00     0.060 A 
HETATM    5  C   UNL     1     -41.950  58.285 -55.931  1.00  0.00     0.281 C 
HETATM    6  N   UNL     1     -42.102  57.128 -56.901  1.00  0.00    -0.063 N 
HETATM    7  H   UNL     1     -41.230  56.588 -56.844  1.00  0.00     0.280 HD
HETATM    8  C   UNL     1     -43.223  56.207 -56.462  1.00  0.00     0.241 C 
HETATM    9  C   UNL     1     -42.899  55.612 -55.087  1.00  0.00     0.088 C 
HETATM   10  C   UNL     1     -41.447  58.778 -53.508  1.00  0.00     0.257 A 
HETATM   11  O   UNL     1     -41.101  59.905 -53.837  1.00  0.00    -0.267 OA
HETATM   12  N   UNL     1     -41.386  58.292 -52.242  1.00  0.00    -0.302 N 
HETATM   13  H   UNL     1     -41.001  58.871 -51.511  1.00  0.00     0.171 HD
ENDROOT
BRANCH   1  14
HETATM   14  S   UNL     1     -41.554  56.635 -50.275  1.00  0.00    -0.083 SA
BRANCH  14  15
HETATM   15  C   UNL     1     -41.914  54.850 -50.328  1.00  0.00     0.185 C 
BRANCH  15  16
HETATM   16  C   UNL     1     -41.088  54.034 -49.348  1.00  0.00     0.231 C 
HETATM   17  N   UNL     1     -40.329  52.980 -49.775  1.00  0.00    -0.327 N 
HETATM   18  H   UNL     1     -39.789  52.603 -49.002  1.00  0.00     0.169 HD
HETATM   19  O   UNL     1     -41.028  54.300 -48.140  1.00  0.00    -0.272 OA
BRANCH  17  20
HETATM   20  C   UNL     1     -40.145  52.329 -51.009  1.00  0.00     0.035 A 
HETATM   21  C   UNL     1     -40.284  52.909 -52.269  1.00  0.00     0.037 A 
HETATM   22  C   UNL     1     -40.082  52.165 -53.451  1.00  0.00    -0.054 A 
HETATM   23  C   UNL     1     -39.761  50.798 -53.366  1.00  0.00    -0.056 A 
HETATM   24  C   UNL     1     -40.301  52.845 -54.778  1.00  0.00     0.049 C 
HETATM   25  C   UNL     1     -39.562  49.952 -54.594  1.00  0.00     0.049 C 
HETATM   26  C   UNL     1     -39.630  50.213 -52.102  1.00  0.00     0.009 A 
HETATM   27  C   UNL     1     -39.826  50.968 -50.943  1.00  0.00     0.030 A 
ENDBRANCH  17  20
ENDBRANCH  15  16
ENDBRANCH  14  15
ENDBRANCH   1  14
BRANCH   6  28
HETATM   28  C   UNL     1     -42.216  57.606 -58.329  1.00  0.00     0.273 C 
BRANCH  28  29
HETATM   29  C   UNL     1     -43.378  56.993 -59.068  1.00  0.00    -0.030 A 
HETATM   30  C   UNL     1     -44.581  57.707 -59.224  1.00  0.00     0.048 A 
HETATM   31  C   UNL     1     -45.598  57.117 -59.945  1.00  0.00     0.105 A 
HETATM   32  C   UNL     1     -45.474  55.862 -60.485  1.00  0.00     0.105 A 
HETATM   33  O   UNL     1     -46.806  57.680 -60.210  1.00  0.00    -0.323 OA
HETATM   34  O   UNL     1     -46.589  55.473 -61.155  1.00  0.00    -0.323 OA
HETATM   35  C   UNL     1     -44.323  55.121 -60.333  1.00  0.00     0.040 A 
HETATM   36  C   UNL     1     -47.438  56.625 -60.973  1.00  0.00     0.352 A 
HETATM   37  C   UNL     1     -43.265  55.695 -59.617  1.00  0.00     0.012 A 
ENDBRANCH  28  29
ENDBRANCH   6  28
TORSDOF 6
ENDMDL
MODEL 3
REMARK VINA RESULT:     -10.3      1.375      2.229
REMARK  6 active torsions:
REMARK  status: ('A' for Active; 'I' for Inactive)
REMARK    1  A    between atoms: C_6  and  N_7 
REMARK       I    between atoms: N_7  and  C_8 
REMARK    2  A    between atoms: C_8  and  C_9 
REMARK    3  A    between atoms: C_9  and  S_10 
REMARK    4  A    between atoms: S_10  and  C_11 
REMARK    5  A    between atoms: N_16  and  C_18 
REMARK    6  A    between atoms: C_18  and  C_19 
ROOT
HETATM    1  C   UNL     1     -43.336  55.461 -52.063  1.00  0.00     0.169 A 
HETATM    2  N   UNL     1     -43.354  56.750 -52.152  1.00  0.00    -0.228 NA
HETATM    3  C   UNL     1     -43.475  57.283 -53.412  1.00  0.00     0.052 A 
HETATM    4  C   UNL     1     -43.552  56.542 -54.528  1.00  0.00     0.060 A 
HETATM    5  C   UNL     1     -43.769  57.088 -55.893  1.00  0.00     0.281 C 
HETATM    6  N   UNL     1     -44.246  58.529 -55.863  1.00  0.00    -0.063 N 
HETATM    7  H   UNL     1     -45.203  58.508 -55.491  1.00  0.00     0.280 HD
HETATM    8  C   UNL     1     -43.412  59.348 -54.899  1.00  0.00     0.241 C 
HETATM    9  C   UNL     1     -43.561  58.788 -53.479  1.00  0.00     0.088 C 
HETATM   10  C   UNL     1     -43.468  55.077 -54.399  1.00  0.00     0.257 A 
HETATM   11  O   UNL     1     -43.500  54.366 -55.395  1.00  0.00    -0.267 OA
HETATM   12  N   UNL     1     -43.368  54.616 -53.127  1.00  0.00    -0.302 N 
HETATM   13  H   UNL     1     -43.350  53.620 -52.963  1.00  0.00     0.171 HD
ENDROOT
BRANCH   1  14
HETATM   14  S   UNL     1     -43.264  54.623 -50.551  1.00  0.00    -0.083 SA
BRANCH  14  15
HETATM   15  C   UNL     1     -41.547  54.997 -50.073  1.00  0.00     0.185 C 
BRANCH  15  16
HETATM   16  C   UNL     1     -40.952  53.990 -49.103  1.00  0.00     0.231 C 
HETATM   17  N   UNL     1     -40.343  52.853 -49.555  1.00  0.00    -0.327 N 
HETATM   18  H   UNL     1     -39.940  52.341 -48.778  1.00  0.00     0.169 HD
HETATM   19  O   UNL     1     -40.950  54.164 -47.877  1.00  0.00    -0.272 OA
BRANCH  17  20
HETATM   20  C   UNL     1     -40.167  52.261 -50.820  1.00  0.00     0.035 A 
HETATM   21  C   UNL     1     -40.298  52.905 -52.050  1.00  0.00     0.037 A 
HETATM   22  C   UNL     1     -40.103  52.217 -53.268  1.00  0.00    -0.054 A 
HETATM   23  C   UNL     1     -39.799  50.844 -53.250  1.00  0.00    -0.056 A 
HETATM   24  C   UNL     1     -40.313  52.965 -54.559  1.00  0.00     0.049 C 
HETATM   25  C   UNL     1     -39.610  50.058 -54.518  1.00  0.00     0.049 C 
HETATM   26  C   UNL     1     -39.677  50.196 -52.017  1.00  0.00     0.009 A 
HETATM   27  C   UNL     1     -39.864  50.895 -50.822  1.00  0.00     0.030 A 
ENDBRANCH  17  20
ENDBRANCH  15  16
ENDBRANCH  14  15
ENDBRANCH   1  14
BRANCH   6  28
HETATM   28  C   UNL     1     -44.340  59.115 -57.252  1.00  0.00     0.273 C 
BRANCH  28  29
HETATM   29  C   UNL     1     -44.908  58.152 -58.263  1.00  0.00    -0.030 A 
HETATM   30  C   UNL     1     -44.054  57.412 -59.102  1.00  0.00     0.048 A 
HETATM   31  C   UNL     1     -44.623  56.514 -59.980  1.00  0.00     0.105 A 
HETATM   32  C   UNL     1     -45.981  56.344 -60.069  1.00  0.00     0.105 A 
HETATM   33  O   UNL     1     -43.941  55.706 -60.834  1.00  0.00    -0.323 OA
HETATM   34  O   UNL     1     -46.328  55.412 -60.993  1.00  0.00    -0.323 OA
HETATM   35  C   UNL     1     -46.852  57.067 -59.284  1.00  0.00     0.040 A 
HETATM   36  C   UNL     1     -45.032  55.013 -61.485  1.00  0.00     0.352 A 
HETATM   37  C   UNL     1     -46.308  57.979 -58.372  1.00  0.00     0.012 A 
ENDBRANCH  28  29
ENDBRANCH   6  28
TORSDOF 6
ENDMDL
MODEL 4
REMARK VINA RESULT:     -10.3      1.297      2.122
REMARK  6 active torsions:
REMARK  status: ('A' for Active; 'I' for Inactive)
REMARK    1  A    between atoms: C_6  and  N_7 
REMARK       I    between atoms: N_7  and  C_8 
REMARK    2  A    between atoms: C_8  and  C_9 
REMARK    3  A    between atoms: C_9  and  S_10 
REMARK    4  A    between atoms: S_10  and  C_11 
REMARK    5  A    between atoms: N_16  and  C_18 
REMARK    6  A    between atoms: C_18  and  C_19 
ROOT
HETATM    1  C   UNL     1     -43.576  56.172 -52.362  1.00  0.00     0.169 A 
HETATM    2  N   UNL     1     -43.278  57.324 -52.864  1.00  0.00    -0.228 NA
HETATM    3  C   UNL     1     -43.047  57.370 -54.217  1.00  0.00     0.052 A 
HETATM    4  C   UNL     1     -43.094  56.292 -55.016  1.00  0.00     0.060 A 
HETATM    5  C   UNL     1     -42.934  56.326 -56.493  1.00  0.00     0.281 C 
HETATM    6  N   UNL     1     -43.060  57.732 -57.050  1.00  0.00    -0.063 N 
HETATM    7  H   UNL     1     -44.046  57.998 -56.940  1.00  0.00     0.280 HD
HETATM    8  C   UNL     1     -42.243  58.708 -56.227  1.00  0.00     0.241 C 
HETATM    9  C   UNL     1     -42.766  58.739 -54.787  1.00  0.00     0.088 C 
HETATM   10  C   UNL     1     -43.378  54.983 -54.403  1.00  0.00     0.257 A 
HETATM   11  O   UNL     1     -43.399  53.971 -55.090  1.00  0.00    -0.267 OA
HETATM   12  N   UNL     1     -43.615  55.012 -53.067  1.00  0.00    -0.302 N 
HETATM   13  H   UNL     1     -43.859  54.156 -52.591  1.00  0.00     0.171 HD
ENDROOT
BRANCH   1  14
HETATM   14  S   UNL     1     -43.970  55.947 -50.691  1.00  0.00    -0.083 SA
BRANCH  14  15
HETATM   15  C   UNL     1     -42.852  54.565 -50.296  1.00  0.00     0.185 C 
BRANCH  15  16
HETATM   16  C   UNL     1     -41.425  54.999 -50.008  1.00  0.00     0.231 C 
HETATM   17  N   UNL     1     -40.366  54.388 -50.620  1.00  0.00    -0.327 N 
HETATM   18  H   UNL     1     -39.501  54.856 -50.369  1.00  0.00     0.169 HD
HETATM   19  O   UNL     1     -41.153  55.939 -49.249  1.00  0.00    -0.272 OA
BRANCH  17  20
HETATM   20  C   UNL     1     -40.225  53.289 -51.488  1.00  0.00     0.035 A 
HETATM   21  C   UNL     1     -39.933  51.980 -51.109  1.00  0.00     0.037 A 
HETATM   22  C   UNL     1     -39.807  50.946 -52.063  1.00  0.00    -0.054 A 
HETATM   23  C   UNL     1     -39.950  51.241 -53.431  1.00  0.00    -0.056 A 
HETATM   24  C   UNL     1     -39.438  49.566 -51.585  1.00  0.00     0.049 C 
HETATM   25  C   UNL     1     -39.798  50.183 -54.490  1.00  0.00     0.049 C 
HETATM   26  C   UNL     1     -40.234  52.556 -53.811  1.00  0.00     0.009 A 
HETATM   27  C   UNL     1     -40.363  53.565 -52.853  1.00  0.00     0.030 A 
ENDBRANCH  17  20
ENDBRANCH  15  16
ENDBRANCH  14  15
ENDBRANCH   1  14
BRANCH   6  28
HETATM   28  C   UNL     1     -42.768  57.774 -58.531  1.00  0.00     0.273 C 
BRANCH  28  29
HETATM   29  C   UNL     1     -43.874  57.187 -59.369  1.00  0.00    -0.030 A 
HETATM   30  C   UNL     1     -45.101  57.863 -59.507  1.00  0.00     0.048 A 
HETATM   31  C   UNL     1     -46.064  57.302 -60.319  1.00  0.00     0.105 A 
HETATM   32  C   UNL     1     -45.866  56.108 -60.966  1.00  0.00     0.105 A 
HETATM   33  O   UNL     1     -47.285  57.839 -60.580  1.00  0.00    -0.323 OA
HETATM   34  O   UNL     1     -46.938  55.739 -61.713  1.00  0.00    -0.323 OA
HETATM   35  C   UNL     1     -44.690  55.403 -60.836  1.00  0.00     0.040 A 
HETATM   36  C   UNL     1     -47.843  56.835 -61.461  1.00  0.00     0.352 A 
HETATM   37  C   UNL     1     -43.685  55.950 -60.030  1.00  0.00     0.012 A 
ENDBRANCH  28  29
ENDBRANCH   6  28
TORSDOF 6
ENDMDL
MODEL 5
REMARK VINA RESULT:     -10.0      2.538      3.614
REMARK  6 active torsions:
REMARK  status: ('A' for Active; 'I' for Inactive)
REMARK    1  A    between atoms: C_6  and  N_7 
REMARK       I    between atoms: N_7  and  C_8 
REMARK    2  A    between atoms: C_8  and  C_9 
REMARK    3  A    between atoms: C_9  and  S_10 
REMARK    4  A    between atoms: S_10  and  C_11 
REMARK    5  A    between atoms: N_16  and  C_18 
REMARK    6  A    between atoms: C_18  and  C_19 
ROOT
HETATM    1  C   UNL     1     -43.996  56.312 -52.505  1.00  0.00     0.169 A 
HETATM    2  N   UNL     1     -43.370  55.522 -53.314  1.00  0.00    -0.228 NA
HETATM    3  C   UNL     1     -43.402  55.847 -54.647  1.00  0.00     0.052 A 
HETATM    4  C   UNL     1     -44.057  56.911 -55.138  1.00  0.00     0.060 A 
HETATM    5  C   UNL     1     -44.037  57.334 -56.562  1.00  0.00     0.281 C 
HETATM    6  N   UNL     1     -42.927  56.657 -57.345  1.00  0.00    -0.063 N 
HETATM    7  H   UNL     1     -42.046  57.053 -56.996  1.00  0.00     0.280 HD
HETATM    8  C   UNL     1     -42.894  55.171 -57.048  1.00  0.00     0.241 C 
HETATM    9  C   UNL     1     -42.607  54.945 -55.559  1.00  0.00     0.088 C 
HETATM   10  C   UNL     1     -44.811  57.759 -54.198  1.00  0.00     0.257 A 
HETATM   11  O   UNL     1     -45.449  58.719 -54.607  1.00  0.00    -0.267 OA
HETATM   12  N   UNL     1     -44.722  57.392 -52.894  1.00  0.00    -0.302 N 
HETATM   13  H   UNL     1     -45.179  57.955 -52.192  1.00  0.00     0.171 HD
ENDROOT
BRANCH   1  14
HETATM   14  S   UNL     1     -43.996  56.094 -50.788  1.00  0.00    -0.083 SA
BRANCH  14  15
HETATM   15  C   UNL     1     -42.878  54.662 -50.660  1.00  0.00     0.185 C 
BRANCH  15  16
HETATM   16  C   UNL     1     -41.458  55.033 -50.263  1.00  0.00     0.231 C 
HETATM   17  N   UNL     1     -40.385  54.358 -50.775  1.00  0.00    -0.327 N 
HETATM   18  H   UNL     1     -39.522  54.788 -50.461  1.00  0.00     0.169 HD
HETATM   19  O   UNL     1     -41.202  55.974 -49.501  1.00  0.00    -0.272 OA
BRANCH  17  20
HETATM   20  C   UNL     1     -40.230  53.235 -51.609  1.00  0.00     0.035 A 
HETATM   21  C   UNL     1     -39.957  51.934 -51.188  1.00  0.00     0.037 A 
HETATM   22  C   UNL     1     -39.815  50.874 -52.110  1.00  0.00    -0.054 A 
HETATM   23  C   UNL     1     -39.919  51.133 -53.489  1.00  0.00    -0.056 A 
HETATM   24  C   UNL     1     -39.469  49.505 -51.586  1.00  0.00     0.049 C 
HETATM   25  C   UNL     1     -39.747  50.046 -54.515  1.00  0.00     0.049 C 
HETATM   26  C   UNL     1     -40.183  52.440 -53.912  1.00  0.00     0.009 A 
HETATM   27  C   UNL     1     -40.330  53.474 -52.984  1.00  0.00     0.030 A 
ENDBRANCH  17  20
ENDBRANCH  15  16
ENDBRANCH  14  15
ENDBRANCH   1  14
BRANCH   6  28
HETATM   28  C   UNL     1     -42.995  56.994 -58.815  1.00  0.00     0.273 C 
BRANCH  28  29
HETATM   29  C   UNL     1     -42.588  58.414 -59.116  1.00  0.00    -0.030 A 
HETATM   30  C   UNL     1     -41.783  59.132 -58.213  1.00  0.00     0.048 A 
HETATM   31  C   UNL     1     -41.404  60.413 -58.556  1.00  0.00     0.105 A 
HETATM   32  C   UNL     1     -41.807  61.002 -59.728  1.00  0.00     0.105 A 
HETATM   33  O   UNL     1     -40.609  61.226 -57.812  1.00  0.00    -0.323 OA
HETATM   34  O   UNL     1     -41.321  62.262 -59.869  1.00  0.00    -0.323 OA
HETATM   35  C   UNL     1     -42.616  60.342 -60.626  1.00  0.00     0.040 A 
HETATM   36  C   UNL     1     -40.567  62.407 -58.648  1.00  0.00     0.352 A 
HETATM   37  C   UNL     1     -43.009  59.035 -60.316  1.00  0.00     0.012 A 
ENDBRANCH  28  29
ENDBRANCH   6  28
TORSDOF 6
ENDMDL
MODEL 6
REMARK VINA RESULT:     -10.0      3.797      7.891
REMARK  6 active torsions:
REMARK  status: ('A' for Active; 'I' for Inactive)
REMARK    1  A    between atoms: C_6  and  N_7 
REMARK       I    between atoms: N_7  and  C_8 
REMARK    2  A    between atoms: C_8  and  C_9 
REMARK    3  A    between atoms: C_9  and  S_10 
REMARK    4  A    between atoms: S_10  and  C_11 
REMARK    5  A    between atoms: N_16  and  C_18 
REMARK    6  A    between atoms: C_18  and  C_19 
ROOT
HETATM    1  C   UNL     1     -43.934  58.263 -51.336  1.00  0.00     0.169 A 
HETATM    2  N   UNL     1     -44.223  57.004 -51.325  1.00  0.00    -0.228 NA
HETATM    3  C   UNL     1     -43.204  56.137 -51.016  1.00  0.00     0.052 A 
HETATM    4  C   UNL     1     -41.948  56.529 -50.752  1.00  0.00     0.060 A 
HETATM    5  C   UNL     1     -40.849  55.623 -50.331  1.00  0.00     0.281 C 
HETATM    6  N   UNL     1     -41.365  54.265 -49.889  1.00  0.00    -0.063 N 
HETATM    7  H   UNL     1     -41.860  54.420 -49.002  1.00  0.00     0.280 HD
HETATM    8  C   UNL     1     -42.381  53.732 -50.878  1.00  0.00     0.241 C 
HETATM    9  C   UNL     1     -43.586  54.679 -50.946  1.00  0.00     0.088 C 
HETATM   10  C   UNL     1     -41.637  57.967 -50.830  1.00  0.00     0.257 A 
HETATM   11  O   UNL     1     -40.497  58.364 -50.629  1.00  0.00    -0.267 OA
HETATM   12  N   UNL     1     -42.692  58.770 -51.122  1.00  0.00    -0.302 N 
HETATM   13  H   UNL     1     -42.558  59.769 -51.149  1.00  0.00     0.171 HD
ENDROOT
BRANCH   1  14
HETATM   14  S   UNL     1     -45.112  59.497 -51.631  1.00  0.00    -0.083 SA
BRANCH  14  15
HETATM   15  C   UNL     1     -45.329  59.290 -53.428  1.00  0.00     0.185 C 
BRANCH  15  16
HETATM   16  C   UNL     1     -44.175  59.844 -54.248  1.00  0.00     0.231 C 
HETATM   17  N   UNL     1     -43.237  59.012 -54.794  1.00  0.00    -0.327 N 
HETATM   18  H   UNL     1     -42.591  59.544 -55.367  1.00  0.00     0.169 HD
HETATM   19  O   UNL     1     -44.049  61.050 -54.494  1.00  0.00    -0.272 OA
BRANCH  17  20
HETATM   20  C   UNL     1     -42.984  57.629 -54.730  1.00  0.00     0.035 A 
HETATM   21  C   UNL     1     -41.727  57.029 -54.676  1.00  0.00     0.037 A 
HETATM   22  C   UNL     1     -41.581  55.625 -54.618  1.00  0.00    -0.054 A 
HETATM   23  C   UNL     1     -42.724  54.805 -54.646  1.00  0.00    -0.056 A 
HETATM   24  C   UNL     1     -40.191  55.045 -54.615  1.00  0.00     0.049 C 
HETATM   25  C   UNL     1     -42.624  53.305 -54.616  1.00  0.00     0.049 C 
HETATM   26  C   UNL     1     -43.984  55.408 -54.709  1.00  0.00     0.009 A 
HETATM   27  C   UNL     1     -44.110  56.798 -54.757  1.00  0.00     0.030 A 
ENDBRANCH  17  20
ENDBRANCH  15  16
ENDBRANCH  14  15
ENDBRANCH   1  14
BRANCH   6  28
HETATM   28  C   UNL     1     -40.235  53.310 -49.586  1.00  0.00     0.273 C 
BRANCH  28  29
HETATM   29  C   UNL     1     -40.122  52.190 -50.587  1.00  0.00    -0.030 A 
HETATM   30  C   UNL     1     -39.901  52.469 -51.949  1.00  0.00     0.048 A 
HETATM   31  C   UNL     1     -39.764  51.406 -52.817  1.00  0.00     0.105 A 
HETATM   32  C   UNL     1     -39.860  50.104 -52.394  1.00  0.00     0.105 A 
HETATM   33  O   UNL     1     -39.519  51.503 -54.150  1.00  0.00    -0.323 OA
HETATM   34  O   UNL     1     -39.692  49.216 -53.407  1.00  0.00    -0.323 OA
HETATM   35  C   UNL     1     -40.102  49.789 -51.075  1.00  0.00     0.040 A 
HETATM   36  C   UNL     1     -39.484  50.105 -54.524  1.00  0.00     0.352 A 
HETATM   37  C   UNL     1     -40.233  50.844 -50.164  1.00  0.00     0.012 A 
ENDBRANCH  28  29
ENDBRANCH   6  28
TORSDOF 6
ENDMDL
MODEL 7
REMARK VINA RESULT:      -9.9      3.189      8.408
REMARK  6 active torsions:
REMARK  status: ('A' for Active; 'I' for Inactive)
REMARK    1  A    between atoms: C_6  and  N_7 
REMARK       I    between atoms: N_7  and  C_8 
REMARK    2  A    between atoms: C_8  and  C_9 
REMARK    3  A    between atoms: C_9  and  S_10 
REMARK    4  A    between atoms: S_10  and  C_11 
REMARK    5  A    between atoms: N_16  and  C_18 
REMARK    6  A    between atoms: C_18  and  C_19 
ROOT
HETATM    1  C   UNL     1     -43.161  60.358 -55.004  1.00  0.00     0.169 A 
HETATM    2  N   UNL     1     -42.121  60.247 -54.245  1.00  0.00    -0.228 NA
HETATM    3  C   UNL     1     -41.993  59.080 -53.534  1.00  0.00     0.052 A 
HETATM    4  C   UNL     1     -42.891  58.083 -53.573  1.00  0.00     0.060 A 
HETATM    5  C   UNL     1     -42.737  56.777 -52.882  1.00  0.00     0.281 C 
HETATM    6  N   UNL     1     -41.312  56.543 -52.414  1.00  0.00    -0.063 N 
HETATM    7  H   UNL     1     -40.750  56.399 -53.263  1.00  0.00     0.280 HD
HETATM    8  C   UNL     1     -40.766  57.777 -51.725  1.00  0.00     0.241 C 
HETATM    9  C   UNL     1     -40.736  58.952 -52.709  1.00  0.00     0.088 C 
HETATM   10  C   UNL     1     -44.097  58.264 -54.401  1.00  0.00     0.257 A 
HETATM   11  O   UNL     1     -44.956  57.394 -54.439  1.00  0.00    -0.267 OA
HETATM   12  N   UNL     1     -44.151  59.431 -55.092  1.00  0.00    -0.302 N 
HETATM   13  H   UNL     1     -44.928  59.601 -55.712  1.00  0.00     0.171 HD
ENDROOT
BRANCH   1  14
HETATM   14  S   UNL     1     -43.441  61.727 -56.025  1.00  0.00    -0.083 SA
BRANCH  14  15
HETATM   15  C   UNL     1     -43.201  60.949 -57.655  1.00  0.00     0.185 C 
BRANCH  15  16
HETATM   16  C   UNL     1     -41.755  60.587 -57.949  1.00  0.00     0.231 C 
HETATM   17  N   UNL     1     -41.411  59.324 -58.342  1.00  0.00    -0.327 N 
HETATM   18  H   UNL     1     -40.423  59.285 -58.567  1.00  0.00     0.169 HD
HETATM   19  O   UNL     1     -40.834  61.413 -57.890  1.00  0.00    -0.272 OA
BRANCH  17  20
HETATM   20  C   UNL     1     -42.109  58.111 -58.492  1.00  0.00     0.035 A 
HETATM   21  C   UNL     1     -42.330  57.165 -57.491  1.00  0.00     0.037 A 
HETATM   22  C   UNL     1     -43.042  55.972 -57.747  1.00  0.00    -0.054 A 
HETATM   23  C   UNL     1     -43.517  55.711 -59.044  1.00  0.00    -0.056 A 
HETATM   24  C   UNL     1     -43.196  54.972 -56.631  1.00  0.00     0.049 C 
HETATM   25  C   UNL     1     -44.257  54.444 -59.377  1.00  0.00     0.049 C 
HETATM   26  C   UNL     1     -43.288  56.656 -60.050  1.00  0.00     0.009 A 
HETATM   27  C   UNL     1     -42.589  57.834 -59.777  1.00  0.00     0.030 A 
ENDBRANCH  17  20
ENDBRANCH  15  16
ENDBRANCH  14  15
ENDBRANCH   1  14
BRANCH   6  28
HETATM   28  C   UNL     1     -41.192  55.275 -51.603  1.00  0.00     0.273 C 
BRANCH  28  29
HETATM   29  C   UNL     1     -40.783  54.081 -52.426  1.00  0.00    -0.030 A 
HETATM   30  C   UNL     1     -40.378  52.888 -51.801  1.00  0.00     0.048 A 
HETATM   31  C   UNL     1     -40.054  51.812 -52.600  1.00  0.00     0.105 A 
HETATM   32  C   UNL     1     -40.095  51.884 -53.970  1.00  0.00     0.105 A 
HETATM   33  O   UNL     1     -39.673  50.585 -52.156  1.00  0.00    -0.323 OA
HETATM   34  O   UNL     1     -39.741  50.715 -54.562  1.00  0.00    -0.323 OA
HETATM   35  C   UNL     1     -40.461  53.042 -54.621  1.00  0.00     0.040 A 
HETATM   36  C   UNL     1     -39.465  49.892 -53.409  1.00  0.00     0.352 A 
HETATM   37  C   UNL     1     -40.809  54.150 -53.839  1.00  0.00     0.012 A 
ENDBRANCH  28  29
ENDBRANCH   6  28
TORSDOF 6
ENDMDL
MODEL 8
REMARK VINA RESULT:      -9.6      3.713      8.434
REMARK  6 active torsions:
REMARK  status: ('A' for Active; 'I' for Inactive)
REMARK    1  A    between atoms: C_6  and  N_7 
REMARK       I    between atoms: N_7  and  C_8 
REMARK    2  A    between atoms: C_8  and  C_9 
REMARK    3  A    between atoms: C_9  and  S_10 
REMARK    4  A    between atoms: S_10  and  C_11 
REMARK    5  A    between atoms: N_16  and  C_18 
REMARK    6  A    between atoms: C_18  and  C_19 
ROOT
HETATM    1  C   UNL     1     -43.645  59.056 -51.960  1.00  0.00     0.169 A 
HETATM    2  N   UNL     1     -44.007  57.825 -52.111  1.00  0.00    -0.228 NA
HETATM    3  C   UNL     1     -43.155  57.010 -52.815  1.00  0.00     0.052 A 
HETATM    4  C   UNL     1     -42.002  57.432 -53.358  1.00  0.00     0.060 A 
HETATM    5  C   UNL     1     -41.022  56.555 -54.050  1.00  0.00     0.281 C 
HETATM    6  N   UNL     1     -41.279  55.084 -53.778  1.00  0.00    -0.063 N 
HETATM    7  H   UNL     1     -41.041  54.928 -52.791  1.00  0.00     0.280 HD
HETATM    8  C   UNL     1     -42.751  54.761 -53.936  1.00  0.00     0.241 C 
HETATM    9  C   UNL     1     -43.571  55.564 -52.919  1.00  0.00     0.088 C 
HETATM   10  C   UNL     1     -41.646  58.855 -53.220  1.00  0.00     0.257 A 
HETATM   11  O   UNL     1     -40.621  59.287 -53.728  1.00  0.00    -0.267 OA
HETATM   12  N   UNL     1     -42.521  59.599 -52.498  1.00  0.00    -0.302 N 
HETATM   13  H   UNL     1     -42.316  60.573 -52.327  1.00  0.00     0.171 HD
ENDROOT
BRANCH   1  14
HETATM   14  S   UNL     1     -44.560  60.201 -51.039  1.00  0.00    -0.083 SA
BRANCH  14  15
HETATM   15  C   UNL     1     -44.875  61.450 -52.326  1.00  0.00     0.185 C 
BRANCH  15  16
HETATM   16  C   UNL     1     -46.159  61.213 -53.103  1.00  0.00     0.231 C 
HETATM   17  N   UNL     1     -46.154  60.503 -54.272  1.00  0.00    -0.327 N 
HETATM   18  H   UNL     1     -47.103  60.380 -54.609  1.00  0.00     0.169 HD
HETATM   19  O   UNL     1     -47.263  61.607 -52.705  1.00  0.00    -0.272 OA
BRANCH  17  20
HETATM   20  C   UNL     1     -45.152  59.932 -55.078  1.00  0.00     0.035 A 
HETATM   21  C   UNL     1     -44.079  60.612 -55.654  1.00  0.00     0.037 A 
HETATM   22  C   UNL     1     -43.126  59.944 -56.453  1.00  0.00    -0.054 A 
HETATM   23  C   UNL     1     -43.270  58.567 -56.704  1.00  0.00    -0.056 A 
HETATM   24  C   UNL     1     -42.023  60.753 -57.087  1.00  0.00     0.049 C 
HETATM   25  C   UNL     1     -42.299  57.814 -57.571  1.00  0.00     0.049 C 
HETATM   26  C   UNL     1     -44.351  57.888 -56.133  1.00  0.00     0.009 A 
HETATM   27  C   UNL     1     -45.279  58.563 -55.338  1.00  0.00     0.030 A 
ENDBRANCH  17  20
ENDBRANCH  15  16
ENDBRANCH  14  15
ENDBRANCH   1  14
BRANCH   6  28
HETATM   28  C   UNL     1     -40.360  54.198 -54.585  1.00  0.00     0.273 C 
BRANCH  28  29
HETATM   29  C   UNL     1     -40.130  52.851 -53.951  1.00  0.00    -0.030 A 
HETATM   30  C   UNL     1     -40.034  52.727 -52.552  1.00  0.00     0.048 A 
HETATM   31  C   UNL     1     -39.865  51.466 -52.021  1.00  0.00     0.105 A 
HETATM   32  C   UNL     1     -39.766  50.350 -52.813  1.00  0.00     0.105 A 
HETATM   33  O   UNL     1     -39.783  51.173 -50.696  1.00  0.00    -0.323 OA
HETATM   34  O   UNL     1     -39.605  49.213 -52.088  1.00  0.00    -0.323 OA
HETATM   35  C   UNL     1     -39.828  50.431 -54.186  1.00  0.00     0.040 A 
HETATM   36  C   UNL     1     -39.608  49.737 -50.744  1.00  0.00     0.352 A 
HETATM   37  C   UNL     1     -40.013  51.695 -54.759  1.00  0.00     0.012 A 
ENDBRANCH  28  29
ENDBRANCH   6  28
TORSDOF 6
ENDMDL
MODEL 9
REMARK VINA RESULT:      -9.4      4.262      8.670
REMARK  6 active torsions:
REMARK  status: ('A' for Active; 'I' for Inactive)
REMARK    1  A    between atoms: C_6  and  N_7 
REMARK       I    between atoms: N_7  and  C_8 
REMARK    2  A    between atoms: C_8  and  C_9 
REMARK    3  A    between atoms: C_9  and  S_10 
REMARK    4  A    between atoms: S_10  and  C_11 
REMARK    5  A    between atoms: N_16  and  C_18 
REMARK    6  A    between atoms: C_18  and  C_19 
ROOT
HETATM    1  C   UNL     1     -43.311  59.926 -50.960  1.00  0.00     0.169 A 
HETATM    2  N   UNL     1     -43.942  58.957 -51.536  1.00  0.00    -0.228 NA
HETATM    3  C   UNL     1     -43.187  58.078 -52.273  1.00  0.00     0.052 A 
HETATM    4  C   UNL     1     -41.860  58.193 -52.436  1.00  0.00     0.060 A 
HETATM    5  C   UNL     1     -41.007  57.211 -53.155  1.00  0.00     0.281 C 
HETATM    6  N   UNL     1     -41.724  55.893 -53.387  1.00  0.00    -0.063 N 
HETATM    7  H   UNL     1     -41.820  55.451 -52.464  1.00  0.00     0.280 HD
HETATM    8  C   UNL     1     -43.125  56.132 -53.912  1.00  0.00     0.241 C 
HETATM    9  C   UNL     1     -43.940  56.919 -52.880  1.00  0.00     0.088 C 
HETATM   10  C   UNL     1     -41.179  59.342 -51.816  1.00  0.00     0.257 A 
HETATM   11  O   UNL     1     -39.975  59.502 -51.966  1.00  0.00    -0.267 OA
HETATM   12  N   UNL     1     -41.979  60.161 -51.086  1.00  0.00    -0.302 N 
HETATM   13  H   UNL     1     -41.570  60.944 -50.599  1.00  0.00     0.171 HD
ENDROOT
BRANCH   1  14
HETATM   14  S   UNL     1     -44.094  61.080 -49.933  1.00  0.00    -0.083 SA
BRANCH  14  15
HETATM   15  C   UNL     1     -45.697  61.213 -50.788  1.00  0.00     0.185 C 
BRANCH  15  16
HETATM   16  C   UNL     1     -45.839  62.476 -51.621  1.00  0.00     0.231 C 
HETATM   17  N   UNL     1     -45.466  62.497 -52.936  1.00  0.00    -0.327 N 
HETATM   18  H   UNL     1     -45.702  63.393 -53.351  1.00  0.00     0.169 HD
HETATM   19  O   UNL     1     -46.329  63.521 -51.172  1.00  0.00    -0.272 OA
BRANCH  17  20
HETATM   20  C   UNL     1     -44.845  61.579 -53.803  1.00  0.00     0.035 A 
HETATM   21  C   UNL     1     -45.467  60.504 -54.437  1.00  0.00     0.037 A 
HETATM   22  C   UNL     1     -44.750  59.634 -55.288  1.00  0.00    -0.054 A 
HETATM   23  C   UNL     1     -43.371  59.831 -55.483  1.00  0.00    -0.056 A 
HETATM   24  C   UNL     1     -45.476  58.463 -55.898  1.00  0.00     0.049 C 
HETATM   25  C   UNL     1     -42.555  58.917 -56.356  1.00  0.00     0.049 C 
HETATM   26  C   UNL     1     -42.746  60.904 -54.839  1.00  0.00     0.009 A 
HETATM   27  C   UNL     1     -43.473  61.759 -54.008  1.00  0.00     0.030 A 
ENDBRANCH  17  20
ENDBRANCH  15  16
ENDBRANCH  14  15
ENDBRANCH   1  14
BRANCH   6  28
HETATM   28  C   UNL     1     -40.899  54.950 -54.229  1.00  0.00     0.273 C 
BRANCH  28  29
HETATM   29  C   UNL     1     -40.539  53.675 -53.510  1.00  0.00    -0.030 A 
HETATM   30  C   UNL     1     -40.330  52.484 -54.231  1.00  0.00     0.048 A 
HETATM   31  C   UNL     1     -39.962  51.356 -53.528  1.00  0.00     0.105 A 
HETATM   32  C   UNL     1     -39.820  51.362 -52.164  1.00  0.00     0.105 A 
HETATM   33  O   UNL     1     -39.695  50.140 -54.074  1.00  0.00    -0.323 OA
HETATM   34  O   UNL     1     -39.451  50.150 -51.675  1.00  0.00    -0.323 OA
HETATM   35  C   UNL     1     -40.041  52.499 -51.420  1.00  0.00     0.040 A 
HETATM   36  C   UNL     1     -39.380  49.371 -52.888  1.00  0.00     0.352 A 
HETATM   37  C   UNL     1     -40.404  53.667 -52.102  1.00  0.00     0.012 A 
ENDBRANCH  28  29
ENDBRANCH   6  28
TORSDOF 6
ENDMDL
MODEL 10
REMARK VINA RESULT:      -9.4      4.118      8.229
REMARK  6 active torsions:
REMARK  status: ('A' for Active; 'I' for Inactive)
REMARK    1  A    between atoms: C_6  and  N_7 
REMARK       I    between atoms: N_7  and  C_8 
REMARK    2  A    between atoms: C_8  and  C_9 
REMARK    3  A    between atoms: C_9  and  S_10 
REMARK    4  A    between atoms: S_10  and  C_11 
REMARK    5  A    between atoms: N_16  and  C_18 
REMARK    6  A    between atoms: C_18  and  C_19 
ROOT
HETATM    1  C   UNL     1     -44.730  59.953 -54.302  1.00  0.00     0.169 A 
HETATM    2  N   UNL     1     -45.010  58.708 -54.504  1.00  0.00    -0.228 NA
HETATM    3  C   UNL     1     -43.949  57.846 -54.629  1.00  0.00     0.052 A 
HETATM    4  C   UNL     1     -42.665  58.234 -54.574  1.00  0.00     0.060 A 
HETATM    5  C   UNL     1     -41.500  57.313 -54.621  1.00  0.00     0.281 C 
HETATM    6  N   UNL     1     -41.903  55.869 -54.384  1.00  0.00    -0.063 N 
HETATM    7  H   UNL     1     -42.181  55.806 -53.397  1.00  0.00     0.280 HD
HETATM    8  C   UNL     1     -43.120  55.511 -55.211  1.00  0.00     0.241 C 
HETATM    9  C   UNL     1     -44.307  56.390 -54.798  1.00  0.00     0.088 C 
HETATM   10  C   UNL     1     -42.378  59.669 -54.403  1.00  0.00     0.257 A 
HETATM   11  O   UNL     1     -41.222  60.069 -54.381  1.00  0.00    -0.267 OA
HETATM   12  N   UNL     1     -43.471  60.462 -54.267  1.00  0.00    -0.302 N 
HETATM   13  H   UNL     1     -43.345  61.450 -54.103  1.00  0.00     0.171 HD
ENDROOT
BRANCH   1  14
HETATM   14  S   UNL     1     -45.942  61.162 -54.047  1.00  0.00    -0.083 SA
BRANCH  14  15
HETATM   15  C   UNL     1     -44.985  62.352 -53.054  1.00  0.00     0.185 C 
BRANCH  15  16
HETATM   16  C   UNL     1     -45.382  62.377 -51.587  1.00  0.00     0.231 C 
HETATM   17  N   UNL     1     -44.791  61.538 -50.683  1.00  0.00    -0.327 N 
HETATM   18  H   UNL     1     -45.122  61.746 -49.747  1.00  0.00     0.169 HD
HETATM   19  O   UNL     1     -46.217  63.172 -51.134  1.00  0.00    -0.272 OA
BRANCH  17  20
HETATM   20  C   UNL     1     -43.861  60.486 -50.772  1.00  0.00     0.035 A 
HETATM   21  C   UNL     1     -44.166  59.136 -50.942  1.00  0.00     0.037 A 
HETATM   22  C   UNL     1     -43.154  58.154 -51.015  1.00  0.00    -0.054 A 
HETATM   23  C   UNL     1     -41.806  58.534 -50.885  1.00  0.00    -0.056 A 
HETATM   24  C   UNL     1     -43.560  56.709 -51.145  1.00  0.00     0.049 C 
HETATM   25  C   UNL     1     -40.690  57.525 -50.928  1.00  0.00     0.049 C 
HETATM   26  C   UNL     1     -41.500  59.887 -50.707  1.00  0.00     0.009 A 
HETATM   27  C   UNL     1     -42.514  60.846 -50.645  1.00  0.00     0.030 A 
ENDBRANCH  17  20
ENDBRANCH  15  16
ENDBRANCH  14  15
ENDBRANCH   1  14
BRANCH   6  28
HETATM   28  C   UNL     1     -40.735  54.928 -54.559  1.00  0.00     0.273 C 
BRANCH  28  29
HETATM   29  C   UNL     1     -40.595  53.941 -53.429  1.00  0.00    -0.030 A 
HETATM   30  C   UNL     1     -40.085  52.651 -53.667  1.00  0.00     0.048 A 
HETATM   31  C   UNL     1     -39.938  51.801 -52.591  1.00  0.00     0.105 A 
HETATM   32  C   UNL     1     -40.292  52.171 -51.318  1.00  0.00     0.105 A 
HETATM   33  O   UNL     1     -39.437  50.539 -52.646  1.00  0.00    -0.323 OA
HETATM   34  O   UNL     1     -40.064  51.187 -50.410  1.00  0.00    -0.323 OA
HETATM   35  C   UNL     1     -40.818  53.414 -51.047  1.00  0.00     0.040 A 
HETATM   36  C   UNL     1     -39.528  50.148 -51.255  1.00  0.00     0.352 A 
HETATM   37  C   UNL     1     -40.969  54.307 -52.115  1.00  0.00     0.012 A 
ENDBRANCH  28  29
ENDBRANCH   6  28
TORSDOF 6
ENDMDL
