MODEL 1
REMARK VINA RESULT:      -8.4      0.000      0.000
REMARK  8 active torsions:
REMARK  status: ('A' for Active; 'I' for Inactive)
REMARK    1  A    between atoms: C_7  and  S_8 
REMARK    2  A    between atoms: S_8  and  C_9 
REMARK    3  A    between atoms: C_9  and  C_10 
REMARK    4  A    between atoms: C_10  and  N_11 
REMARK       I    between atoms: N_11  and  C_12 
REMARK       I    between atoms: C_12  and  N_13 
REMARK    5  A    between atoms: N_13  and  C_14 
REMARK    6  A    between atoms: C_14  and  C_15 
REMARK    7  A    between atoms: C_17  and  O_18 
REMARK    8  A    between atoms: C_20  and  O_21 
ROOT
HETATM    1  N   UNL     1     -42.072  56.181 -55.989  1.00  0.00    -0.342 N 
HETATM    2  C   UNL     1     -42.628  57.400 -55.773  1.00  0.00     0.316 C 
HETATM    3  N   UNL     1     -43.962  57.429 -55.542  1.00  0.00    -0.339 N 
HETATM    4  O   UNL     1     -41.910  58.395 -55.779  1.00  0.00    -0.248 OA
HETATM    5  H   UNL     1     -41.061  56.250 -56.012  1.00  0.00     0.164 HD
HETATM    6  H   UNL     1     -44.513  56.602 -55.693  1.00  0.00     0.164 HD
ENDROOT
BRANCH   1   7
HETATM    7  C   UNL     1     -42.682  54.867 -55.842  1.00  0.00     0.139 C 
BRANCH   7   8
HETATM    8  C   UNL     1     -42.472  54.306 -54.450  1.00  0.00     0.165 C 
BRANCH   8   9
HETATM    9  S   UNL     1     -40.882  54.802 -53.838  1.00  0.00     0.179 S 
HETATM   10  O   UNL     1     -41.025  56.006 -53.046  1.00  0.00    -0.222 OA
HETATM   11  O   UNL     1     -39.912  54.703 -54.909  1.00  0.00    -0.222 OA
BRANCH   9  12
HETATM   12  C   UNL     1     -40.479  53.543 -52.715  1.00  0.00     0.093 A 
HETATM   13  C   UNL     1     -40.303  53.679 -51.345  1.00  0.00     0.028 A 
HETATM   14  C   UNL     1     -40.434  54.850 -50.438  1.00  0.00     0.070 C 
HETATM   15  N   UNL     1     -39.962  52.440 -50.861  1.00  0.00    -0.358 N 
HETATM   16  H   UNL     1     -39.789  52.221 -49.889  1.00  0.00     0.166 HD
HETATM   17  C   UNL     1     -39.871  51.525 -51.884  1.00  0.00     0.044 A 
HETATM   18  C   UNL     1     -40.198  52.188 -53.069  1.00  0.00     0.014 A 
HETATM   19  C   UNL     1     -39.529  50.168 -51.841  1.00  0.00     0.030 A 
HETATM   20  C   UNL     1     -40.181  51.444 -54.270  1.00  0.00     0.015 A 
HETATM   21  C   UNL     1     -39.840  50.087 -54.244  1.00  0.00     0.001 A 
HETATM   22  C   UNL     1     -39.518  49.460 -53.045  1.00  0.00     0.002 A 
ENDBRANCH   9  12
ENDBRANCH   8   9
ENDBRANCH   7   8
ENDBRANCH   1   7
BRANCH   3  23
HETATM   23  C   UNL     1     -44.680  58.667 -55.345  1.00  0.00     0.163 C 
BRANCH  23  24
HETATM   24  C   UNL     1     -44.988  58.861 -53.883  1.00  0.00    -0.038 A 
HETATM   25  C   UNL     1     -44.790  57.799 -52.986  1.00  0.00     0.048 A 
HETATM   26  C   UNL     1     -45.091  57.939 -51.627  1.00  0.00     0.102 A 
HETATM   27  C   UNL     1     -45.606  59.162 -51.154  1.00  0.00     0.101 A 
HETATM   28  C   UNL     1     -45.808  60.218 -52.049  1.00  0.00     0.040 A 
HETATM   29  C   UNL     1     -45.505  60.067 -53.405  1.00  0.00     0.012 A 
BRANCH  26  30
HETATM   30  O   UNL     1     -44.924  56.949 -50.690  1.00  0.00    -0.353 OA
HETATM   31  C   UNL     1     -43.840  56.049 -50.872  1.00  0.00     0.210 C 
ENDBRANCH  26  30
BRANCH  27  32
HETATM   32  O   UNL     1     -45.877  59.222 -49.808  1.00  0.00    -0.353 OA
HETATM   33  C   UNL     1     -45.559  60.425 -49.124  1.00  0.00     0.210 C 
ENDBRANCH  27  32
ENDBRANCH  23  24
ENDBRANCH   3  23
TORSDOF 8
ENDMDL
MODEL 2
REMARK VINA RESULT:      -8.1      2.599      7.664
REMARK  8 active torsions:
REMARK  status: ('A' for Active; 'I' for Inactive)
REMARK    1  A    between atoms: C_7  and  S_8 
REMARK    2  A    between atoms: S_8  and  C_9 
REMARK    3  A    between atoms: C_9  and  C_10 
REMARK    4  A    between atoms: C_10  and  N_11 
REMARK       I    between atoms: N_11  and  C_12 
REMARK       I    between atoms: C_12  and  N_13 
REMARK    5  A    between atoms: N_13  and  C_14 
REMARK    6  A    between atoms: C_14  and  C_15 
REMARK    7  A    between atoms: C_17  and  O_18 
REMARK    8  A    between atoms: C_20  and  O_21 
ROOT
HETATM    1  N   UNL     1     -42.870  57.695 -51.785  1.00  0.00    -0.342 N 
HETATM    2  C   UNL     1     -42.920  56.533 -51.086  1.00  0.00     0.316 C 
HETATM    3  N   UNL     1     -41.760  55.841 -50.973  1.00  0.00    -0.339 N 
HETATM    4  O   UNL     1     -43.982  56.181 -50.585  1.00  0.00    -0.248 OA
HETATM    5  H   UNL     1     -43.744  58.203 -51.695  1.00  0.00     0.164 HD
HETATM    6  H   UNL     1     -40.964  56.107 -51.524  1.00  0.00     0.164 HD
ENDROOT
BRANCH   1   7
HETATM    7  C   UNL     1     -41.701  58.398 -52.296  1.00  0.00     0.139 C 
BRANCH   7   8
HETATM    8  C   UNL     1     -41.356  57.957 -53.704  1.00  0.00     0.165 C 
BRANCH   8   9
HETATM    9  S   UNL     1     -42.430  58.761 -54.865  1.00  0.00     0.179 S 
HETATM   10  O   UNL     1     -41.680  59.755 -55.605  1.00  0.00    -0.222 OA
HETATM   11  O   UNL     1     -43.680  59.080 -54.208  1.00  0.00    -0.222 OA
BRANCH   9  12
HETATM   12  C   UNL     1     -42.797  57.505 -56.002  1.00  0.00     0.093 A 
HETATM   13  C   UNL     1     -43.329  56.256 -55.714  1.00  0.00     0.028 A 
HETATM   14  C   UNL     1     -43.772  55.635 -54.438  1.00  0.00     0.070 C 
HETATM   15  N   UNL     1     -43.422  55.577 -56.905  1.00  0.00    -0.358 N 
HETATM   16  H   UNL     1     -43.794  54.643 -57.015  1.00  0.00     0.166 HD
HETATM   17  C   UNL     1     -42.926  56.336 -57.939  1.00  0.00     0.044 A 
HETATM   18  C   UNL     1     -42.528  57.563 -57.404  1.00  0.00     0.014 A 
HETATM   19  C   UNL     1     -42.806  56.023 -59.299  1.00  0.00     0.030 A 
HETATM   20  C   UNL     1     -41.985  58.525 -58.285  1.00  0.00     0.015 A 
HETATM   21  C   UNL     1     -41.858  58.227 -59.647  1.00  0.00     0.001 A 
HETATM   22  C   UNL     1     -42.263  56.993 -60.144  1.00  0.00     0.002 A 
ENDBRANCH   9  12
ENDBRANCH   8   9
ENDBRANCH   7   8
ENDBRANCH   1   7
BRANCH   3  23
HETATM   23  C   UNL     1     -41.691  54.567 -50.294  1.00  0.00     0.163 C 
BRANCH  23  24
HETATM   24  C   UNL     1     -40.980  53.558 -51.157  1.00  0.00    -0.038 A 
HETATM   25  C   UNL     1     -40.950  53.735 -52.549  1.00  0.00     0.048 A 
HETATM   26  C   UNL     1     -40.321  52.801 -53.380  1.00  0.00     0.102 A 
HETATM   27  C   UNL     1     -39.714  51.664 -52.810  1.00  0.00     0.101 A 
HETATM   28  C   UNL     1     -39.749  51.486 -51.423  1.00  0.00     0.040 A 
HETATM   29  C   UNL     1     -40.381  52.424 -50.602  1.00  0.00     0.012 A 
BRANCH  26  30
HETATM   30  O   UNL     1     -40.248  52.905 -54.747  1.00  0.00    -0.353 OA
HETATM   31  C   UNL     1     -40.238  54.210 -55.307  1.00  0.00     0.210 C 
ENDBRANCH  26  30
BRANCH  27  32
HETATM   32  O   UNL     1     -39.117  50.794 -53.690  1.00  0.00    -0.353 OA
HETATM   33  C   UNL     1     -39.939  49.815 -54.309  1.00  0.00     0.210 C 
ENDBRANCH  27  32
ENDBRANCH  23  24
ENDBRANCH   3  23
TORSDOF 8
ENDMDL
MODEL 3
REMARK VINA RESULT:      -8.0      2.354      4.830
REMARK  8 active torsions:
REMARK  status: ('A' for Active; 'I' for Inactive)
REMARK    1  A    between atoms: C_7  and  S_8 
REMARK    2  A    between atoms: S_8  and  C_9 
REMARK    3  A    between atoms: C_9  and  C_10 
REMARK    4  A    between atoms: C_10  and  N_11 
REMARK       I    between atoms: N_11  and  C_12 
REMARK       I    between atoms: C_12  and  N_13 
REMARK    5  A    between atoms: N_13  and  C_14 
REMARK    6  A    between atoms: C_14  and  C_15 
REMARK    7  A    between atoms: C_17  and  O_18 
REMARK    8  A    between atoms: C_20  and  O_21 
ROOT
HETATM    1  N   UNL     1     -43.256  58.354 -51.068  1.00  0.00    -0.342 N 
HETATM    2  C   UNL     1     -42.752  59.314 -51.885  1.00  0.00     0.316 C 
HETATM    3  N   UNL     1     -42.697  59.020 -53.207  1.00  0.00    -0.339 N 
HETATM    4  O   UNL     1     -42.395  60.384 -51.404  1.00  0.00    -0.248 OA
HETATM    5  H   UNL     1     -43.384  58.718 -50.130  1.00  0.00     0.164 HD
HETATM    6  H   UNL     1     -42.869  58.080 -53.517  1.00  0.00     0.164 HD
ENDROOT
BRANCH   1   7
HETATM    7  C   UNL     1     -43.908  57.104 -51.431  1.00  0.00     0.139 C 
BRANCH   7   8
HETATM    8  C   UNL     1     -43.154  55.904 -50.892  1.00  0.00     0.165 C 
BRANCH   8   9
HETATM    9  S   UNL     1     -41.439  56.027 -51.331  1.00  0.00     0.179 S 
HETATM   10  O   UNL     1     -40.744  56.819 -50.337  1.00  0.00    -0.222 OA
HETATM   11  O   UNL     1     -41.334  56.313 -52.747  1.00  0.00    -0.222 OA
BRANCH   9  12
HETATM   12  C   UNL     1     -40.861  54.405 -51.129  1.00  0.00     0.093 A 
HETATM   13  C   UNL     1     -40.563  53.773 -49.930  1.00  0.00     0.028 A 
HETATM   14  C   UNL     1     -40.674  54.223 -48.517  1.00  0.00     0.070 C 
HETATM   15  N   UNL     1     -40.109  52.515 -50.242  1.00  0.00    -0.358 N 
HETATM   16  H   UNL     1     -39.832  51.813 -49.570  1.00  0.00     0.166 HD
HETATM   17  C   UNL     1     -40.064  52.338 -51.606  1.00  0.00     0.044 A 
HETATM   18  C   UNL     1     -40.539  53.511 -52.196  1.00  0.00     0.014 A 
HETATM   19  C   UNL     1     -39.643  51.228 -52.348  1.00  0.00     0.030 A 
HETATM   20  C   UNL     1     -40.594  53.566 -53.607  1.00  0.00     0.015 A 
HETATM   21  C   UNL     1     -40.176  52.465 -54.364  1.00  0.00     0.001 A 
HETATM   22  C   UNL     1     -39.706  51.314 -53.741  1.00  0.00     0.002 A 
ENDBRANCH   9  12
ENDBRANCH   8   9
ENDBRANCH   7   8
ENDBRANCH   1   7
BRANCH   3  23
HETATM   23  C   UNL     1     -42.140  59.938 -54.174  1.00  0.00     0.163 C 
BRANCH  23  24
HETATM   24  C   UNL     1     -42.192  59.334 -55.552  1.00  0.00    -0.038 A 
HETATM   25  C   UNL     1     -42.504  57.973 -55.702  1.00  0.00     0.048 A 
HETATM   26  C   UNL     1     -42.535  57.376 -56.967  1.00  0.00     0.102 A 
HETATM   27  C   UNL     1     -42.243  58.152 -58.106  1.00  0.00     0.101 A 
HETATM   28  C   UNL     1     -41.928  59.506 -57.957  1.00  0.00     0.040 A 
HETATM   29  C   UNL     1     -41.899  60.092 -56.688  1.00  0.00     0.012 A 
BRANCH  26  30
HETATM   30  O   UNL     1     -42.832  56.055 -57.193  1.00  0.00    -0.353 OA
HETATM   31  C   UNL     1     -42.733  55.161 -56.093  1.00  0.00     0.210 C 
ENDBRANCH  26  30
BRANCH  27  32
HETATM   32  O   UNL     1     -42.294  57.495 -59.312  1.00  0.00    -0.353 OA
HETATM   33  C   UNL     1     -43.295  57.892 -60.238  1.00  0.00     0.210 C 
ENDBRANCH  27  32
ENDBRANCH  23  24
ENDBRANCH   3  23
TORSDOF 8
ENDMDL
MODEL 4
REMARK VINA RESULT:      -8.0      2.973      5.377
REMARK  8 active torsions:
REMARK  status: ('A' for Active; 'I' for Inactive)
REMARK    1  A    between atoms: C_7  and  S_8 
REMARK    2  A    between atoms: S_8  and  C_9 
REMARK    3  A    between atoms: C_9  and  C_10 
REMARK    4  A    between atoms: C_10  and  N_11 
REMARK       I    between atoms: N_11  and  C_12 
REMARK       I    between atoms: C_12  and  N_13 
REMARK    5  A    between atoms: N_13  and  C_14 
REMARK    6  A    between atoms: C_14  and  C_15 
REMARK    7  A    between atoms: C_17  and  O_18 
REMARK    8  A    between atoms: C_20  and  O_21 
ROOT
HETATM    1  N   UNL     1     -43.927  55.148 -53.801  1.00  0.00    -0.342 N 
HETATM    2  C   UNL     1     -43.420  54.972 -55.049  1.00  0.00     0.316 C 
HETATM    3  N   UNL     1     -42.911  56.070 -55.658  1.00  0.00    -0.339 N 
HETATM    4  O   UNL     1     -43.429  53.852 -55.546  1.00  0.00    -0.248 OA
HETATM    5  H   UNL     1     -44.152  54.253 -53.380  1.00  0.00     0.164 HD
HETATM    6  H   UNL     1     -43.064  56.979 -55.259  1.00  0.00     0.164 HD
ENDROOT
BRANCH   1   7
HETATM    7  C   UNL     1     -43.851  56.326 -52.948  1.00  0.00     0.139 C 
BRANCH   7   8
HETATM    8  C   UNL     1     -43.241  56.000 -51.600  1.00  0.00     0.165 C 
BRANCH   8   9
HETATM    9  S   UNL     1     -41.476  56.165 -51.684  1.00  0.00     0.179 S 
HETATM   10  O   UNL     1     -41.022  57.023 -50.609  1.00  0.00    -0.222 OA
HETATM   11  O   UNL     1     -41.089  56.394 -53.061  1.00  0.00    -0.222 OA
BRANCH   9  12
HETATM   12  C   UNL     1     -40.910  54.574 -51.290  1.00  0.00     0.093 A 
HETATM   13  C   UNL     1     -40.678  54.068 -50.019  1.00  0.00     0.028 A 
HETATM   14  C   UNL     1     -40.866  54.656 -48.666  1.00  0.00     0.070 C 
HETATM   15  N   UNL     1     -40.208  52.787 -50.178  1.00  0.00    -0.358 N 
HETATM   16  H   UNL     1     -39.968  52.157 -49.425  1.00  0.00     0.166 HD
HETATM   17  C   UNL     1     -40.088  52.474 -51.512  1.00  0.00     0.044 A 
HETATM   18  C   UNL     1     -40.531  53.580 -52.243  1.00  0.00     0.014 A 
HETATM   19  C   UNL     1     -39.627  51.298 -52.116  1.00  0.00     0.030 A 
HETATM   20  C   UNL     1     -40.508  53.494 -53.653  1.00  0.00     0.015 A 
HETATM   21  C   UNL     1     -40.049  52.324 -54.271  1.00  0.00     0.001 A 
HETATM   22  C   UNL     1     -39.615  51.244 -53.512  1.00  0.00     0.002 A 
ENDBRANCH   9  12
ENDBRANCH   8   9
ENDBRANCH   7   8
ENDBRANCH   1   7
BRANCH   3  23
HETATM   23  C   UNL     1     -42.385  56.025 -57.003  1.00  0.00     0.163 C 
BRANCH  23  24
HETATM   24  C   UNL     1     -43.466  56.366 -57.995  1.00  0.00    -0.038 A 
HETATM   25  C   UNL     1     -44.163  57.578 -57.872  1.00  0.00     0.048 A 
HETATM   26  C   UNL     1     -45.191  57.912 -58.761  1.00  0.00     0.102 A 
HETATM   27  C   UNL     1     -45.534  57.014 -59.791  1.00  0.00     0.101 A 
HETATM   28  C   UNL     1     -44.844  55.803 -59.910  1.00  0.00     0.040 A 
HETATM   29  C   UNL     1     -43.820  55.479 -59.016  1.00  0.00     0.012 A 
BRANCH  26  30
HETATM   30  O   UNL     1     -45.915  59.077 -58.707  1.00  0.00    -0.353 OA
HETATM   31  C   UNL     1     -46.792  59.255 -57.605  1.00  0.00     0.210 C 
ENDBRANCH  26  30
BRANCH  27  32
HETATM   32  O   UNL     1     -46.553  57.411 -60.623  1.00  0.00    -0.353 OA
HETATM   33  C   UNL     1     -47.364  56.400 -61.202  1.00  0.00     0.210 C 
ENDBRANCH  27  32
ENDBRANCH  23  24
ENDBRANCH   3  23
TORSDOF 8
ENDMDL
MODEL 5
REMARK VINA RESULT:      -7.9      3.620      5.795
REMARK  8 active torsions:
REMARK  status: ('A' for Active; 'I' for Inactive)
REMARK    1  A    between atoms: C_7  and  S_8 
REMARK    2  A    between atoms: S_8  and  C_9 
REMARK    3  A    between atoms: C_9  and  C_10 
REMARK    4  A    between atoms: C_10  and  N_11 
REMARK       I    between atoms: N_11  and  C_12 
REMARK       I    between atoms: C_12  and  N_13 
REMARK    5  A    between atoms: N_13  and  C_14 
REMARK    6  A    between atoms: C_14  and  C_15 
REMARK    7  A    between atoms: C_17  and  O_18 
REMARK    8  A    between atoms: C_20  and  O_21 
ROOT
HETATM    1  N   UNL     1     -43.094  56.804 -55.159  1.00  0.00    -0.342 N 
HETATM    2  C   UNL     1     -42.875  56.920 -56.494  1.00  0.00     0.316 C 
HETATM    3  N   UNL     1     -43.326  55.909 -57.275  1.00  0.00    -0.339 N 
HETATM    4  O   UNL     1     -42.309  57.920 -56.923  1.00  0.00    -0.248 OA
HETATM    5  H   UNL     1     -42.848  57.665 -54.682  1.00  0.00     0.164 HD
HETATM    6  H   UNL     1     -43.650  55.057 -56.851  1.00  0.00     0.164 HD
ENDROOT
BRANCH   1   7
HETATM    7  C   UNL     1     -43.900  55.817 -54.454  1.00  0.00     0.139 C 
BRANCH   7   8
HETATM    8  C   UNL     1     -43.100  55.107 -53.381  1.00  0.00     0.165 C 
BRANCH   8   9
HETATM    9  S   UNL     1     -41.453  54.799 -53.964  1.00  0.00     0.179 S 
HETATM   10  O   UNL     1     -40.655  55.998 -53.807  1.00  0.00    -0.222 OA
HETATM   11  O   UNL     1     -41.524  54.089 -55.225  1.00  0.00    -0.222 OA
BRANCH   9  12
HETATM   12  C   UNL     1     -40.830  53.663 -52.813  1.00  0.00     0.093 A 
HETATM   13  C   UNL     1     -40.553  53.905 -51.475  1.00  0.00     0.028 A 
HETATM   14  C   UNL     1     -40.726  55.115 -50.628  1.00  0.00     0.070 C 
HETATM   15  N   UNL     1     -40.047  52.739 -50.954  1.00  0.00    -0.358 N 
HETATM   16  H   UNL     1     -39.771  52.603 -49.991  1.00  0.00     0.166 HD
HETATM   17  C   UNL     1     -39.950  51.772 -51.927  1.00  0.00     0.044 A 
HETATM   18  C   UNL     1     -40.443  52.321 -53.113  1.00  0.00     0.014 A 
HETATM   19  C   UNL     1     -39.468  50.460 -51.837  1.00  0.00     0.030 A 
HETATM   20  C   UNL     1     -40.451  51.505 -54.267  1.00  0.00     0.015 A 
HETATM   21  C   UNL     1     -39.972  50.191 -54.194  1.00  0.00     0.001 A 
HETATM   22  C   UNL     1     -39.487  49.679 -52.995  1.00  0.00     0.002 A 
ENDBRANCH   9  12
ENDBRANCH   8   9
ENDBRANCH   7   8
ENDBRANCH   1   7
BRANCH   3  23
HETATM   23  C   UNL     1     -43.114  55.890 -58.704  1.00  0.00     0.163 C 
BRANCH  23  24
HETATM   24  C   UNL     1     -44.375  56.296 -59.420  1.00  0.00    -0.038 A 
HETATM   25  C   UNL     1     -44.713  57.656 -59.513  1.00  0.00     0.048 A 
HETATM   26  C   UNL     1     -45.890  58.064 -60.148  1.00  0.00     0.102 A 
HETATM   27  C   UNL     1     -46.752  57.094 -60.699  1.00  0.00     0.101 A 
HETATM   28  C   UNL     1     -46.418  55.739 -60.602  1.00  0.00     0.040 A 
HETATM   29  C   UNL     1     -45.239  55.343 -59.964  1.00  0.00     0.012 A 
BRANCH  26  30
HETATM   30  O   UNL     1     -46.287  59.371 -60.280  1.00  0.00    -0.353 OA
HETATM   31  C   UNL     1     -45.362  60.285 -60.852  1.00  0.00     0.210 C 
ENDBRANCH  26  30
BRANCH  27  32
HETATM   32  O   UNL     1     -47.888  57.572 -61.306  1.00  0.00    -0.353 OA
HETATM   33  C   UNL     1     -48.453  56.796 -62.353  1.00  0.00     0.210 C 
ENDBRANCH  27  32
ENDBRANCH  23  24
ENDBRANCH   3  23
TORSDOF 8
ENDMDL
MODEL 6
REMARK VINA RESULT:      -7.9      2.731      5.428
REMARK  8 active torsions:
REMARK  status: ('A' for Active; 'I' for Inactive)
REMARK    1  A    between atoms: C_7  and  S_8 
REMARK    2  A    between atoms: S_8  and  C_9 
REMARK    3  A    between atoms: C_9  and  C_10 
REMARK    4  A    between atoms: C_10  and  N_11 
REMARK       I    between atoms: N_11  and  C_12 
REMARK       I    between atoms: C_12  and  N_13 
REMARK    5  A    between atoms: N_13  and  C_14 
REMARK    6  A    between atoms: C_14  and  C_15 
REMARK    7  A    between atoms: C_17  and  O_18 
REMARK    8  A    between atoms: C_20  and  O_21 
ROOT
HETATM    1  N   UNL     1     -44.556  56.857 -53.349  1.00  0.00    -0.342 N 
HETATM    2  C   UNL     1     -44.404  57.633 -54.453  1.00  0.00     0.316 C 
HETATM    3  N   UNL     1     -43.135  57.838 -54.882  1.00  0.00    -0.339 N 
HETATM    4  O   UNL     1     -45.398  58.087 -55.008  1.00  0.00    -0.248 OA
HETATM    5  H   UNL     1     -45.537  56.651 -53.192  1.00  0.00     0.164 HD
HETATM    6  H   UNL     1     -42.361  57.560 -54.305  1.00  0.00     0.164 HD
ENDROOT
BRANCH   1   7
HETATM    7  C   UNL     1     -43.552  56.067 -52.650  1.00  0.00     0.139 C 
BRANCH   7   8
HETATM    8  C   UNL     1     -43.268  54.764 -53.369  1.00  0.00     0.165 C 
BRANCH   8   9
HETATM    9  S   UNL     1     -41.565  54.713 -53.868  1.00  0.00     0.179 S 
HETATM   10  O   UNL     1     -40.935  55.980 -53.556  1.00  0.00    -0.222 OA
HETATM   11  O   UNL     1     -41.478  54.120 -55.186  1.00  0.00    -0.222 OA
BRANCH   9  12
HETATM   12  C   UNL     1     -40.867  53.559 -52.779  1.00  0.00     0.093 A 
HETATM   13  C   UNL     1     -40.552  53.763 -51.443  1.00  0.00     0.028 A 
HETATM   14  C   UNL     1     -40.735  54.936 -50.548  1.00  0.00     0.070 C 
HETATM   15  N   UNL     1     -39.992  52.597 -50.982  1.00  0.00    -0.358 N 
HETATM   16  H   UNL     1     -39.679  52.437 -50.034  1.00  0.00     0.166 HD
HETATM   17  C   UNL     1     -39.897  51.668 -51.992  1.00  0.00     0.044 A 
HETATM   18  C   UNL     1     -40.447  52.242 -53.140  1.00  0.00     0.014 A 
HETATM   19  C   UNL     1     -39.370  50.371 -51.966  1.00  0.00     0.030 A 
HETATM   20  C   UNL     1     -40.468  51.467 -54.322  1.00  0.00     0.015 A 
HETATM   21  C   UNL     1     -39.944  50.168 -54.312  1.00  0.00     0.001 A 
HETATM   22  C   UNL     1     -39.403  49.631 -53.150  1.00  0.00     0.002 A 
ENDBRANCH   9  12
ENDBRANCH   8   9
ENDBRANCH   7   8
ENDBRANCH   1   7
BRANCH   3  23
HETATM   23  C   UNL     1     -42.836  58.682 -56.016  1.00  0.00     0.163 C 
BRANCH  23  24
HETATM   24  C   UNL     1     -43.087  57.934 -57.299  1.00  0.00    -0.038 A 
HETATM   25  C   UNL     1     -43.632  58.612 -58.402  1.00  0.00     0.048 A 
HETATM   26  C   UNL     1     -43.901  57.940 -59.599  1.00  0.00     0.102 A 
HETATM   27  C   UNL     1     -43.626  56.562 -59.697  1.00  0.00     0.101 A 
HETATM   28  C   UNL     1     -43.087  55.886 -58.597  1.00  0.00     0.040 A 
HETATM   29  C   UNL     1     -42.823  56.566 -57.405  1.00  0.00     0.012 A 
BRANCH  26  30
HETATM   30  O   UNL     1     -44.431  58.533 -60.718  1.00  0.00    -0.353 OA
HETATM   31  C   UNL     1     -43.957  59.827 -61.064  1.00  0.00     0.210 C 
ENDBRANCH  26  30
BRANCH  27  32
HETATM   32  O   UNL     1     -43.917  55.973 -60.904  1.00  0.00    -0.353 OA
HETATM   33  C   UNL     1     -44.982  55.034 -60.939  1.00  0.00     0.210 C 
ENDBRANCH  27  32
ENDBRANCH  23  24
ENDBRANCH   3  23
TORSDOF 8
ENDMDL
MODEL 7
REMARK VINA RESULT:      -7.7      2.143      2.333
REMARK  8 active torsions:
REMARK  status: ('A' for Active; 'I' for Inactive)
REMARK    1  A    between atoms: C_7  and  S_8 
REMARK    2  A    between atoms: S_8  and  C_9 
REMARK    3  A    between atoms: C_9  and  C_10 
REMARK    4  A    between atoms: C_10  and  N_11 
REMARK       I    between atoms: N_11  and  C_12 
REMARK       I    between atoms: C_12  and  N_13 
REMARK    5  A    between atoms: N_13  and  C_14 
REMARK    6  A    between atoms: C_14  and  C_15 
REMARK    7  A    between atoms: C_17  and  O_18 
REMARK    8  A    between atoms: C_20  and  O_21 
ROOT
HETATM    1  N   UNL     1     -43.690  56.150 -55.977  1.00  0.00    -0.342 N 
HETATM    2  C   UNL     1     -43.592  57.504 -55.958  1.00  0.00     0.316 C 
HETATM    3  N   UNL     1     -42.341  58.022 -55.898  1.00  0.00    -0.339 N 
HETATM    4  O   UNL     1     -44.614  58.179 -56.013  1.00  0.00    -0.248 OA
HETATM    5  H   UNL     1     -44.646  55.865 -56.162  1.00  0.00     0.164 HD
HETATM    6  H   UNL     1     -41.559  57.419 -55.711  1.00  0.00     0.164 HD
ENDROOT
BRANCH   1   7
HETATM    7  C   UNL     1     -42.627  55.164 -56.113  1.00  0.00     0.139 C 
BRANCH   7   8
HETATM    8  C   UNL     1     -42.460  54.345 -54.848  1.00  0.00     0.165 C 
BRANCH   8   9
HETATM    9  S   UNL     1     -41.638  55.315 -53.610  1.00  0.00     0.179 S 
HETATM   10  O   UNL     1     -42.624  56.020 -52.818  1.00  0.00    -0.222 OA
HETATM   11  O   UNL     1     -40.513  55.998 -54.215  1.00  0.00    -0.222 OA
BRANCH   9  12
HETATM   12  C   UNL     1     -40.956  54.117 -52.557  1.00  0.00     0.093 A 
HETATM   13  C   UNL     1     -40.655  54.271 -51.212  1.00  0.00     0.028 A 
HETATM   14  C   UNL     1     -40.842  55.412 -50.276  1.00  0.00     0.070 C 
HETATM   15  N   UNL     1     -40.105  53.086 -50.787  1.00  0.00    -0.358 N 
HETATM   16  H   UNL     1     -39.802  52.890 -49.842  1.00  0.00     0.166 HD
HETATM   17  C   UNL     1     -40.003  52.195 -51.829  1.00  0.00     0.044 A 
HETATM   18  C   UNL     1     -40.539  52.812 -52.962  1.00  0.00     0.014 A 
HETATM   19  C   UNL     1     -39.483  50.895 -51.845  1.00  0.00     0.030 A 
HETATM   20  C   UNL     1     -40.552  52.081 -54.171  1.00  0.00     0.015 A 
HETATM   21  C   UNL     1     -40.034  50.781 -54.204  1.00  0.00     0.001 A 
HETATM   22  C   UNL     1     -39.507  50.198 -53.056  1.00  0.00     0.002 A 
ENDBRANCH   9  12
ENDBRANCH   8   9
ENDBRANCH   7   8
ENDBRANCH   1   7
BRANCH   3  23
HETATM   23  C   UNL     1     -42.104  59.445 -55.825  1.00  0.00     0.163 C 
BRANCH  23  24
HETATM   24  C   UNL     1     -42.254  59.923 -54.405  1.00  0.00    -0.038 A 
HETATM   25  C   UNL     1     -41.528  59.295 -53.381  1.00  0.00     0.048 A 
HETATM   26  C   UNL     1     -41.665  59.698 -52.048  1.00  0.00     0.102 A 
HETATM   27  C   UNL     1     -42.549  60.748 -51.730  1.00  0.00     0.101 A 
HETATM   28  C   UNL     1     -43.277  61.371 -52.750  1.00  0.00     0.040 A 
HETATM   29  C   UNL     1     -43.133  60.959 -54.077  1.00  0.00     0.012 A 
BRANCH  26  30
HETATM   30  O   UNL     1     -40.990  59.134 -50.994  1.00  0.00    -0.353 OA
HETATM   31  C   UNL     1     -39.571  59.110 -51.060  1.00  0.00     0.210 C 
ENDBRANCH  26  30
BRANCH  27  32
HETATM   32  O   UNL     1     -42.630  61.086 -50.401  1.00  0.00    -0.353 OA
HETATM   33  C   UNL     1     -43.915  61.089 -49.797  1.00  0.00     0.210 C 
ENDBRANCH  27  32
ENDBRANCH  23  24
ENDBRANCH   3  23
TORSDOF 8
ENDMDL
MODEL 8
REMARK VINA RESULT:      -7.6      2.380      5.093
REMARK  8 active torsions:
REMARK  status: ('A' for Active; 'I' for Inactive)
REMARK    1  A    between atoms: C_7  and  S_8 
REMARK    2  A    between atoms: S_8  and  C_9 
REMARK    3  A    between atoms: C_9  and  C_10 
REMARK    4  A    between atoms: C_10  and  N_11 
REMARK       I    between atoms: N_11  and  C_12 
REMARK       I    between atoms: C_12  and  N_13 
REMARK    5  A    between atoms: N_13  and  C_14 
REMARK    6  A    between atoms: C_14  and  C_15 
REMARK    7  A    between atoms: C_17  and  O_18 
REMARK    8  A    between atoms: C_20  and  O_21 
ROOT
HETATM    1  N   UNL     1     -43.305  58.204 -50.967  1.00  0.00    -0.342 N 
HETATM    2  C   UNL     1     -44.338  58.271 -51.845  1.00  0.00     0.316 C 
HETATM    3  N   UNL     1     -44.016  58.393 -53.155  1.00  0.00    -0.339 N 
HETATM    4  O   UNL     1     -45.487  58.201 -51.423  1.00  0.00    -0.248 OA
HETATM    5  H   UNL     1     -43.641  57.976 -50.038  1.00  0.00     0.164 HD
HETATM    6  H   UNL     1     -43.067  58.588 -53.420  1.00  0.00     0.164 HD
ENDROOT
BRANCH   1   7
HETATM    7  C   UNL     1     -41.881  58.076 -51.248  1.00  0.00     0.139 C 
BRANCH   7   8
HETATM    8  C   UNL     1     -41.329  56.758 -50.743  1.00  0.00     0.165 C 
BRANCH   8   9
HETATM    9  S   UNL     1     -42.343  55.421 -51.323  1.00  0.00     0.179 S 
HETATM   10  O   UNL     1     -42.580  55.579 -52.743  1.00  0.00    -0.222 OA
HETATM   11  O   UNL     1     -43.427  55.211 -50.386  1.00  0.00    -0.222 OA
BRANCH   9  12
HETATM   12  C   UNL     1     -41.305  54.041 -51.168  1.00  0.00     0.093 A 
HETATM   13  C   UNL     1     -40.682  53.597 -50.010  1.00  0.00     0.028 A 
HETATM   14  C   UNL     1     -40.727  54.089 -48.608  1.00  0.00     0.070 C 
HETATM   15  N   UNL     1     -39.935  52.498 -50.354  1.00  0.00    -0.358 N 
HETATM   16  H   UNL     1     -39.382  51.945 -49.713  1.00  0.00     0.166 HD
HETATM   17  C   UNL     1     -40.023  52.251 -51.705  1.00  0.00     0.044 A 
HETATM   18  C   UNL     1     -40.887  53.205 -52.248  1.00  0.00     0.014 A 
HETATM   19  C   UNL     1     -39.406  51.256 -52.473  1.00  0.00     0.030 A 
HETATM   20  C   UNL     1     -41.143  53.150 -53.637  1.00  0.00     0.015 A 
HETATM   21  C   UNL     1     -40.533  52.162 -54.419  1.00  0.00     0.001 A 
HETATM   22  C   UNL     1     -39.677  51.230 -53.843  1.00  0.00     0.002 A 
ENDBRANCH   9  12
ENDBRANCH   8   9
ENDBRANCH   7   8
ENDBRANCH   1   7
BRANCH   3  23
HETATM   23  C   UNL     1     -45.022  58.520 -54.183  1.00  0.00     0.163 C 
BRANCH  23  24
HETATM   24  C   UNL     1     -44.494  57.999 -55.494  1.00  0.00    -0.038 A 
HETATM   25  C   UNL     1     -45.226  58.216 -56.672  1.00  0.00     0.048 A 
HETATM   26  C   UNL     1     -44.776  57.721 -57.901  1.00  0.00     0.102 A 
HETATM   27  C   UNL     1     -43.573  56.991 -57.955  1.00  0.00     0.101 A 
HETATM   28  C   UNL     1     -42.846  56.770 -56.780  1.00  0.00     0.040 A 
HETATM   29  C   UNL     1     -43.306  57.268 -55.557  1.00  0.00     0.012 A 
BRANCH  26  30
HETATM   30  O   UNL     1     -45.434  57.894 -59.093  1.00  0.00    -0.353 OA
HETATM   31  C   UNL     1     -46.688  57.246 -59.252  1.00  0.00     0.210 C 
ENDBRANCH  26  30
BRANCH  27  32
HETATM   32  O   UNL     1     -43.197  56.538 -59.196  1.00  0.00    -0.353 OA
HETATM   33  C   UNL     1     -42.182  57.257 -59.881  1.00  0.00     0.210 C 
ENDBRANCH  27  32
ENDBRANCH  23  24
ENDBRANCH   3  23
TORSDOF 8
ENDMDL
MODEL 9
REMARK VINA RESULT:      -7.5      2.874      5.746
REMARK  8 active torsions:
REMARK  status: ('A' for Active; 'I' for Inactive)
REMARK    1  A    between atoms: C_7  and  S_8 
REMARK    2  A    between atoms: S_8  and  C_9 
REMARK    3  A    between atoms: C_9  and  C_10 
REMARK    4  A    between atoms: C_10  and  N_11 
REMARK       I    between atoms: N_11  and  C_12 
REMARK       I    between atoms: C_12  and  N_13 
REMARK    5  A    between atoms: N_13  and  C_14 
REMARK    6  A    between atoms: C_14  and  C_15 
REMARK    7  A    between atoms: C_17  and  O_18 
REMARK    8  A    between atoms: C_20  and  O_21 
ROOT
HETATM    1  N   UNL     1     -42.075  58.375 -51.975  1.00  0.00    -0.342 N 
HETATM    2  C   UNL     1     -42.486  59.017 -53.099  1.00  0.00     0.316 C 
HETATM    3  N   UNL     1     -41.773  58.787 -54.227  1.00  0.00    -0.339 N 
HETATM    4  O   UNL     1     -43.473  59.744 -53.045  1.00  0.00    -0.248 OA
HETATM    5  H   UNL     1     -42.748  58.500 -51.227  1.00  0.00     0.164 HD
HETATM    6  H   UNL     1     -40.896  58.299 -54.173  1.00  0.00     0.164 HD
ENDROOT
BRANCH   1   7
HETATM    7  C   UNL     1     -41.066  57.333 -51.844  1.00  0.00     0.139 C 
BRANCH   7   8
HETATM    8  C   UNL     1     -41.193  56.595 -50.526  1.00  0.00     0.165 C 
BRANCH   8   9
HETATM    9  S   UNL     1     -42.526  55.427 -50.619  1.00  0.00     0.179 S 
HETATM   10  O   UNL     1     -43.775  56.136 -50.812  1.00  0.00    -0.222 OA
HETATM   11  O   UNL     1     -42.362  54.439 -49.572  1.00  0.00    -0.222 OA
BRANCH   9  12
HETATM   12  C   UNL     1     -42.221  54.595 -52.109  1.00  0.00     0.093 A 
HETATM   13  C   UNL     1     -42.914  54.747 -53.302  1.00  0.00     0.028 A 
HETATM   14  C   UNL     1     -44.039  55.640 -53.690  1.00  0.00     0.070 C 
HETATM   15  N   UNL     1     -42.358  53.872 -54.202  1.00  0.00    -0.358 N 
HETATM   16  H   UNL     1     -42.643  53.770 -55.167  1.00  0.00     0.166 HD
HETATM   17  C   UNL     1     -41.360  53.132 -53.611  1.00  0.00     0.044 A 
HETATM   18  C   UNL     1     -41.243  53.569 -52.290  1.00  0.00     0.014 A 
HETATM   19  C   UNL     1     -40.559  52.120 -54.153  1.00  0.00     0.030 A 
HETATM   20  C   UNL     1     -40.267  52.954 -51.474  1.00  0.00     0.015 A 
HETATM   21  C   UNL     1     -39.458  51.939 -52.000  1.00  0.00     0.001 A 
HETATM   22  C   UNL     1     -39.605  51.529 -53.321  1.00  0.00     0.002 A 
ENDBRANCH   9  12
ENDBRANCH   8   9
ENDBRANCH   7   8
ENDBRANCH   1   7
BRANCH   3  23
HETATM   23  C   UNL     1     -42.079  59.445 -55.476  1.00  0.00     0.163 C 
BRANCH  23  24
HETATM   24  C   UNL     1     -42.304  58.424 -56.559  1.00  0.00    -0.038 A 
HETATM   25  C   UNL     1     -42.329  58.832 -57.902  1.00  0.00     0.048 A 
HETATM   26  C   UNL     1     -42.562  57.911 -58.930  1.00  0.00     0.102 A 
HETATM   27  C   UNL     1     -42.780  56.557 -58.611  1.00  0.00     0.101 A 
HETATM   28  C   UNL     1     -42.760  56.151 -57.272  1.00  0.00     0.040 A 
HETATM   29  C   UNL     1     -42.528  57.079 -56.253  1.00  0.00     0.012 A 
BRANCH  26  30
HETATM   30  O   UNL     1     -42.599  58.233 -60.264  1.00  0.00    -0.353 OA
HETATM   31  C   UNL     1     -43.654  59.074 -60.709  1.00  0.00     0.210 C 
ENDBRANCH  26  30
BRANCH  27  32
HETATM   32  O   UNL     1     -43.001  55.715 -59.674  1.00  0.00    -0.353 OA
HETATM   33  C   UNL     1     -44.249  55.039 -59.731  1.00  0.00     0.210 C 
ENDBRANCH  27  32
ENDBRANCH  23  24
ENDBRANCH   3  23
TORSDOF 8
ENDMDL
MODEL 10
REMARK VINA RESULT:      -7.4      1.131      1.992
REMARK  8 active torsions:
REMARK  status: ('A' for Active; 'I' for Inactive)
REMARK    1  A    between atoms: C_7  and  S_8 
REMARK    2  A    between atoms: S_8  and  C_9 
REMARK    3  A    between atoms: C_9  and  C_10 
REMARK    4  A    between atoms: C_10  and  N_11 
REMARK       I    between atoms: N_11  and  C_12 
REMARK       I    between atoms: C_12  and  N_13 
REMARK    5  A    between atoms: N_13  and  C_14 
REMARK    6  A    between atoms: C_14  and  C_15 
REMARK    7  A    between atoms: C_17  and  O_18 
REMARK    8  A    between atoms: C_20  and  O_21 
ROOT
HETATM    1  N   UNL     1     -42.221  55.863 -56.297  1.00  0.00    -0.342 N 
HETATM    2  C   UNL     1     -42.960  56.993 -56.157  1.00  0.00     0.316 C 
HETATM    3  N   UNL     1     -44.209  56.845 -55.653  1.00  0.00    -0.339 N 
HETATM    4  O   UNL     1     -42.468  58.072 -56.469  1.00  0.00    -0.248 OA
HETATM    5  H   UNL     1     -41.265  56.091 -56.546  1.00  0.00     0.164 HD
HETATM    6  H   UNL     1     -44.602  55.926 -55.553  1.00  0.00     0.164 HD
ENDROOT
BRANCH   1   7
HETATM    7  C   UNL     1     -42.520  54.519 -55.821  1.00  0.00     0.139 C 
BRANCH   7   8
HETATM    8  C   UNL     1     -42.561  54.458 -54.308  1.00  0.00     0.165 C 
BRANCH   8   9
HETATM    9  S   UNL     1     -41.002  54.986 -53.644  1.00  0.00     0.179 S 
HETATM   10  O   UNL     1     -41.209  56.131 -52.781  1.00  0.00    -0.222 OA
HETATM   11  O   UNL     1     -40.017  54.998 -54.706  1.00  0.00    -0.222 OA
BRANCH   9  12
HETATM   12  C   UNL     1     -40.554  53.680 -52.595  1.00  0.00     0.093 A 
HETATM   13  C   UNL     1     -40.353  53.749 -51.224  1.00  0.00     0.028 A 
HETATM   14  C   UNL     1     -40.487  54.870 -50.256  1.00  0.00     0.070 C 
HETATM   15  N   UNL     1     -39.981  52.493 -50.811  1.00  0.00    -0.358 N 
HETATM   16  H   UNL     1     -39.785  52.229 -49.855  1.00  0.00     0.166 HD
HETATM   17  C   UNL     1     -39.894  51.634 -51.881  1.00  0.00     0.044 A 
HETATM   18  C   UNL     1     -40.256  52.350 -53.024  1.00  0.00     0.014 A 
HETATM   19  C   UNL     1     -39.526  50.283 -51.914  1.00  0.00     0.030 A 
HETATM   20  C   UNL     1     -40.249  51.669 -54.262  1.00  0.00     0.015 A 
HETATM   21  C   UNL     1     -39.883  50.319 -54.312  1.00  0.00     0.001 A 
HETATM   22  C   UNL     1     -39.526  49.638 -53.153  1.00  0.00     0.002 A 
ENDBRANCH   9  12
ENDBRANCH   8   9
ENDBRANCH   7   8
ENDBRANCH   1   7
BRANCH   3  23
HETATM   23  C   UNL     1     -45.111  57.963 -55.500  1.00  0.00     0.163 C 
BRANCH  23  24
HETATM   24  C   UNL     1     -44.924  58.599 -54.148  1.00  0.00    -0.038 A 
HETATM   25  C   UNL     1     -44.792  59.993 -54.048  1.00  0.00     0.048 A 
HETATM   26  C   UNL     1     -44.591  60.611 -52.810  1.00  0.00     0.102 A 
HETATM   27  C   UNL     1     -44.515  59.821 -51.645  1.00  0.00     0.101 A 
HETATM   28  C   UNL     1     -44.641  58.432 -51.745  1.00  0.00     0.040 A 
HETATM   29  C   UNL     1     -44.841  57.824 -52.987  1.00  0.00     0.012 A 
BRANCH  26  30
HETATM   30  O   UNL     1     -44.454  61.966 -52.633  1.00  0.00    -0.353 OA
HETATM   31  C   UNL     1     -45.160  62.819 -53.522  1.00  0.00     0.210 C 
ENDBRANCH  26  30
BRANCH  27  32
HETATM   32  O   UNL     1     -44.316  60.501 -50.468  1.00  0.00    -0.353 OA
HETATM   33  C   UNL     1     -45.376  60.508 -49.523  1.00  0.00     0.210 C 
ENDBRANCH  27  32
ENDBRANCH  23  24
ENDBRANCH   3  23
TORSDOF 8
ENDMDL
