MODEL 1
REMARK VINA RESULT:      -7.4      0.000      0.000
REMARK  7 active torsions:
REMARK  status: ('A' for Active; 'I' for Inactive)
REMARK    1  A    between atoms: C_3  and  N_4 
REMARK       I    between atoms: N_4  and  C_5 
REMARK       I    between atoms: C_5  and  N_6 
REMARK    2  A    between atoms: N_6  and  C_7 
REMARK    3  A    between atoms: C_7  and  C_8 
REMARK    4  A    between atoms: C_8  and  N_9 
REMARK    5  A    between atoms: C_23  and  N_24 
REMARK       I    between atoms: N_24  and  C_25 
REMARK    6  A    between atoms: C_25  and  C_26 
REMARK    7  A    between atoms: C_26  and  O_27 
ROOT
HETATM    1  N   UNL     1     -41.687  57.830 -54.277  1.00  0.00    -0.308 N 
HETATM    2  C   UNL     1     -42.333  58.502 -55.266  1.00  0.00     0.320 C 
HETATM    3  N   UNL     1     -43.452  57.948 -55.789  1.00  0.00    -0.340 N 
HETATM    4  O   UNL     1     -41.834  59.532 -55.720  1.00  0.00    -0.247 OA
HETATM    5  H   UNL     1     -40.761  58.206 -54.112  1.00  0.00     0.170 HD
HETATM    6  H   UNL     1     -43.577  56.974 -55.543  1.00  0.00     0.164 HD
ENDROOT
BRANCH   1   7
HETATM    7  C   UNL     1     -42.067  56.745 -53.456  1.00  0.00     0.044 A 
HETATM    8  C   UNL     1     -41.412  55.494 -53.612  1.00  0.00    -0.008 A 
HETATM    9  C   UNL     1     -40.380  55.295 -54.701  1.00  0.00     0.053 C 
HETATM   10  C   UNL     1     -41.750  54.418 -52.748  1.00  0.00     0.043 A 
HETATM   11  C   UNL     1     -42.748  54.601 -51.787  1.00  0.00     0.030 A 
HETATM   12  C   UNL     1     -43.378  55.833 -51.634  1.00  0.00     0.005 A 
HETATM   13  C   UNL     1     -43.027  56.902 -52.451  1.00  0.00     0.030 A 
BRANCH  10  14
HETATM   14  N   UNL     1     -41.051  53.194 -52.857  1.00  0.00    -0.325 N 
HETATM   15  C   UNL     1     -40.060  52.687 -52.029  1.00  0.00     0.245 C 
HETATM   16  O   UNL     1     -39.644  53.181 -50.989  1.00  0.00    -0.271 OA
HETATM   17  H   UNL     1     -41.259  52.590 -53.647  1.00  0.00     0.169 HD
BRANCH  15  18
HETATM   18  C   UNL     1     -39.557  51.326 -52.527  1.00  0.00     0.270 C 
BRANCH  18  19
HETATM   19  O   UNL     1     -39.588  51.219 -53.952  1.00  0.00    -0.387 OA
HETATM   20  C   UNL     1     -39.778  49.870 -54.372  1.00  0.00     0.202 C 
ENDBRANCH  18  19
ENDBRANCH  15  18
ENDBRANCH  10  14
ENDBRANCH   1   7
BRANCH   3  21
HETATM   21  C   UNL     1     -44.268  58.395 -56.923  1.00  0.00     0.163 C 
BRANCH  21  22
HETATM   22  C   UNL     1     -44.017  57.849 -58.374  1.00  0.00     0.143 C 
HETATM   23  C   UNL     1     -43.933  59.036 -59.371  1.00  0.00     0.041 C 
HETATM   24  C   UNL     1     -42.577  58.917 -60.062  1.00  0.00     0.003 C 
HETATM   25  C   UNL     1     -41.707  58.198 -59.050  1.00  0.00     0.003 C 
HETATM   26  C   UNL     1     -42.642  57.146 -58.468  1.00  0.00     0.041 C 
BRANCH  22  27
HETATM   27  N   UNL     1     -45.133  56.894 -58.791  1.00  0.00    -0.061 N 
HETATM   28  H   UNL     1     -45.397  56.445 -57.887  1.00  0.00     0.281 HD
HETATM   29  C   UNL     1     -44.809  55.726 -59.701  1.00  0.00     0.236 C 
HETATM   30  C   UNL     1     -45.914  55.721 -60.745  1.00  0.00     0.029 C 
HETATM   31  C   UNL     1     -47.084  56.377 -60.045  1.00  0.00     0.029 C 
HETATM   32  C   UNL     1     -46.424  57.508 -59.288  1.00  0.00     0.236 C 
ENDBRANCH  22  27
ENDBRANCH  21  22
ENDBRANCH   3  21
TORSDOF 7
ENDMDL
MODEL 2
REMARK VINA RESULT:      -7.4      0.921      2.475
REMARK  7 active torsions:
REMARK  status: ('A' for Active; 'I' for Inactive)
REMARK    1  A    between atoms: C_3  and  N_4 
REMARK       I    between atoms: N_4  and  C_5 
REMARK       I    between atoms: C_5  and  N_6 
REMARK    2  A    between atoms: N_6  and  C_7 
REMARK    3  A    between atoms: C_7  and  C_8 
REMARK    4  A    between atoms: C_8  and  N_9 
REMARK    5  A    between atoms: C_23  and  N_24 
REMARK       I    between atoms: N_24  and  C_25 
REMARK    6  A    between atoms: C_25  and  C_26 
REMARK    7  A    between atoms: C_26  and  O_27 
ROOT
HETATM    1  N   UNL     1     -41.918  57.483 -54.717  1.00  0.00    -0.308 N 
HETATM    2  C   UNL     1     -42.617  57.988 -55.767  1.00  0.00     0.320 C 
HETATM    3  N   UNL     1     -43.705  57.306 -56.197  1.00  0.00    -0.340 N 
HETATM    4  O   UNL     1     -42.189  58.982 -56.354  1.00  0.00    -0.247 OA
HETATM    5  H   UNL     1     -41.015  57.932 -54.618  1.00  0.00     0.170 HD
HETATM    6  H   UNL     1     -43.766  56.364 -55.831  1.00  0.00     0.164 HD
ENDROOT
BRANCH   1   7
HETATM    7  C   UNL     1     -42.218  56.486 -53.762  1.00  0.00     0.044 A 
HETATM    8  C   UNL     1     -41.510  55.254 -53.798  1.00  0.00    -0.008 A 
HETATM    9  C   UNL     1     -40.507  54.974 -54.896  1.00  0.00     0.053 C 
HETATM   10  C   UNL     1     -41.768  54.274 -52.803  1.00  0.00     0.043 A 
HETATM   11  C   UNL     1     -42.741  54.525 -51.831  1.00  0.00     0.030 A 
HETATM   12  C   UNL     1     -43.423  55.738 -51.798  1.00  0.00     0.005 A 
HETATM   13  C   UNL     1     -43.151  56.718 -52.746  1.00  0.00     0.030 A 
BRANCH  10  14
HETATM   14  N   UNL     1     -41.017  53.077 -52.797  1.00  0.00    -0.325 N 
HETATM   15  C   UNL     1     -40.030  52.679 -51.907  1.00  0.00     0.245 C 
HETATM   16  O   UNL     1     -39.664  53.271 -50.899  1.00  0.00    -0.271 OA
HETATM   17  H   UNL     1     -41.177  52.404 -53.542  1.00  0.00     0.169 HD
BRANCH  15  18
HETATM   18  C   UNL     1     -39.456  51.307 -52.283  1.00  0.00     0.270 C 
BRANCH  18  19
HETATM   19  O   UNL     1     -39.228  51.175 -53.687  1.00  0.00    -0.387 OA
HETATM   20  C   UNL     1     -39.712  49.928 -54.182  1.00  0.00     0.202 C 
ENDBRANCH  18  19
ENDBRANCH  15  18
ENDBRANCH  10  14
ENDBRANCH   1   7
BRANCH   3  21
HETATM   21  C   UNL     1     -44.561  57.559 -57.360  1.00  0.00     0.163 C 
BRANCH  21  22
HETATM   22  C   UNL     1     -44.050  57.298 -58.822  1.00  0.00     0.143 C 
HETATM   23  C   UNL     1     -43.270  55.956 -58.870  1.00  0.00     0.041 C 
HETATM   24  C   UNL     1     -43.965  55.096 -59.922  1.00  0.00     0.003 C 
HETATM   25  C   UNL     1     -45.396  55.599 -59.925  1.00  0.00     0.003 C 
HETATM   26  C   UNL     1     -45.238  57.108 -59.795  1.00  0.00     0.041 C 
BRANCH  22  27
HETATM   27  N   UNL     1     -43.154  58.441 -59.293  1.00  0.00    -0.061 N 
HETATM   28  H   UNL     1     -42.540  58.603 -58.464  1.00  0.00     0.281 HD
HETATM   29  C   UNL     1     -43.766  59.800 -59.568  1.00  0.00     0.236 C 
HETATM   30  C   UNL     1     -43.162  60.244 -60.890  1.00  0.00     0.029 C 
HETATM   31  C   UNL     1     -41.835  59.519 -60.949  1.00  0.00     0.029 C 
HETATM   32  C   UNL     1     -42.186  58.147 -60.417  1.00  0.00     0.236 C 
ENDBRANCH  22  27
ENDBRANCH  21  22
ENDBRANCH   3  21
TORSDOF 7
ENDMDL
MODEL 3
REMARK VINA RESULT:      -7.3      4.262      8.500
REMARK  7 active torsions:
REMARK  status: ('A' for Active; 'I' for Inactive)
REMARK    1  A    between atoms: C_3  and  N_4 
REMARK       I    between atoms: N_4  and  C_5 
REMARK       I    between atoms: C_5  and  N_6 
REMARK    2  A    between atoms: N_6  and  C_7 
REMARK    3  A    between atoms: C_7  and  C_8 
REMARK    4  A    between atoms: C_8  and  N_9 
REMARK    5  A    between atoms: C_23  and  N_24 
REMARK       I    between atoms: N_24  and  C_25 
REMARK    6  A    between atoms: C_25  and  C_26 
REMARK    7  A    between atoms: C_26  and  O_27 
ROOT
HETATM    1  N   UNL     1     -44.245  58.192 -53.679  1.00  0.00    -0.308 N 
HETATM    2  C   UNL     1     -43.650  56.982 -53.840  1.00  0.00     0.320 C 
HETATM    3  N   UNL     1     -42.401  56.814 -53.343  1.00  0.00    -0.340 N 
HETATM    4  O   UNL     1     -44.213  56.117 -54.512  1.00  0.00    -0.247 OA
HETATM    5  H   UNL     1     -45.065  58.287 -54.267  1.00  0.00     0.170 HD
HETATM    6  H   UNL     1     -41.943  57.681 -53.090  1.00  0.00     0.164 HD
ENDROOT
BRANCH   1   7
HETATM    7  C   UNL     1     -43.946  59.301 -52.857  1.00  0.00     0.044 A 
HETATM    8  C   UNL     1     -44.373  59.296 -51.502  1.00  0.00    -0.008 A 
HETATM    9  C   UNL     1     -45.214  58.158 -50.963  1.00  0.00     0.053 C 
HETATM   10  C   UNL     1     -44.021  60.382 -50.656  1.00  0.00     0.043 A 
HETATM   11  C   UNL     1     -43.296  61.453 -51.185  1.00  0.00     0.030 A 
HETATM   12  C   UNL     1     -42.873  61.446 -52.511  1.00  0.00     0.005 A 
HETATM   13  C   UNL     1     -43.180  60.369 -53.336  1.00  0.00     0.030 A 
BRANCH  10  14
HETATM   14  N   UNL     1     -44.387  60.346 -49.292  1.00  0.00    -0.325 N 
HETATM   15  C   UNL     1     -45.485  60.929 -48.675  1.00  0.00     0.245 C 
HETATM   16  O   UNL     1     -46.399  61.539 -49.218  1.00  0.00    -0.271 OA
HETATM   17  H   UNL     1     -43.778  59.858 -48.642  1.00  0.00     0.169 HD
BRANCH  15  18
HETATM   18  C   UNL     1     -45.490  60.656 -47.166  1.00  0.00     0.270 C 
BRANCH  18  19
HETATM   19  O   UNL     1     -46.776  60.257 -46.686  1.00  0.00    -0.387 OA
HETATM   20  C   UNL     1     -46.676  59.199 -45.736  1.00  0.00     0.202 C 
ENDBRANCH  18  19
ENDBRANCH  15  18
ENDBRANCH  10  14
ENDBRANCH   1   7
BRANCH   3  21
HETATM   21  C   UNL     1     -41.496  55.667 -53.473  1.00  0.00     0.163 C 
BRANCH  21  22
HETATM   22  C   UNL     1     -41.391  54.580 -52.345  1.00  0.00     0.143 C 
HETATM   23  C   UNL     1     -41.021  55.257 -50.998  1.00  0.00     0.041 C 
HETATM   24  C   UNL     1     -42.123  54.878 -50.013  1.00  0.00     0.003 C 
HETATM   25  C   UNL     1     -43.338  54.641 -50.889  1.00  0.00     0.003 C 
HETATM   26  C   UNL     1     -42.764  53.910 -52.096  1.00  0.00     0.041 C 
BRANCH  22  27
HETATM   27  N   UNL     1     -40.344  53.527 -52.706  1.00  0.00    -0.061 N 
HETATM   28  H   UNL     1     -39.449  54.055 -52.606  1.00  0.00     0.281 HD
HETATM   29  C   UNL     1     -40.294  52.984 -54.121  1.00  0.00     0.236 C 
HETATM   30  C   UNL     1     -40.153  51.480 -53.960  1.00  0.00     0.029 C 
HETATM   31  C   UNL     1     -39.484  51.315 -52.613  1.00  0.00     0.029 C 
HETATM   32  C   UNL     1     -40.187  52.353 -51.766  1.00  0.00     0.236 C 
ENDBRANCH  22  27
ENDBRANCH  21  22
ENDBRANCH   3  21
TORSDOF 7
ENDMDL
MODEL 4
REMARK VINA RESULT:      -7.2      3.219      9.016
REMARK  7 active torsions:
REMARK  status: ('A' for Active; 'I' for Inactive)
REMARK    1  A    between atoms: C_3  and  N_4 
REMARK       I    between atoms: N_4  and  C_5 
REMARK       I    between atoms: C_5  and  N_6 
REMARK    2  A    between atoms: N_6  and  C_7 
REMARK    3  A    between atoms: C_7  and  C_8 
REMARK    4  A    between atoms: C_8  and  N_9 
REMARK    5  A    between atoms: C_23  and  N_24 
REMARK       I    between atoms: N_24  and  C_25 
REMARK    6  A    between atoms: C_25  and  C_26 
REMARK    7  A    between atoms: C_26  and  O_27 
ROOT
HETATM    1  N   UNL     1     -44.298  57.545 -56.276  1.00  0.00    -0.308 N 
HETATM    2  C   UNL     1     -43.964  56.902 -55.127  1.00  0.00     0.320 C 
HETATM    3  N   UNL     1     -43.732  55.569 -55.185  1.00  0.00    -0.340 N 
HETATM    4  O   UNL     1     -43.980  57.522 -54.063  1.00  0.00    -0.247 OA
HETATM    5  H   UNL     1     -44.663  58.472 -56.094  1.00  0.00     0.170 HD
HETATM    6  H   UNL     1     -44.046  55.139 -56.047  1.00  0.00     0.164 HD
ENDROOT
BRANCH   1   7
HETATM    7  C   UNL     1     -44.218  57.171 -57.636  1.00  0.00     0.044 A 
HETATM    8  C   UNL     1     -45.265  57.545 -58.522  1.00  0.00    -0.008 A 
HETATM    9  C   UNL     1     -46.494  58.260 -58.003  1.00  0.00     0.053 C 
HETATM   10  C   UNL     1     -45.159  57.223 -59.901  1.00  0.00     0.043 A 
HETATM   11  C   UNL     1     -44.045  56.509 -60.353  1.00  0.00     0.030 A 
HETATM   12  C   UNL     1     -43.020  56.155 -59.481  1.00  0.00     0.005 A 
HETATM   13  C   UNL     1     -43.097  56.499 -58.135  1.00  0.00     0.030 A 
BRANCH  10  14
HETATM   14  N   UNL     1     -46.167  57.653 -60.794  1.00  0.00    -0.325 N 
HETATM   15  C   UNL     1     -47.368  57.034 -61.105  1.00  0.00     0.245 C 
HETATM   16  O   UNL     1     -47.823  56.012 -60.606  1.00  0.00    -0.271 OA
HETATM   17  H   UNL     1     -46.017  58.515 -61.311  1.00  0.00     0.169 HD
BRANCH  15  18
HETATM   18  C   UNL     1     -48.161  57.838 -62.143  1.00  0.00     0.270 C 
BRANCH  18  19
HETATM   19  O   UNL     1     -49.438  57.262 -62.424  1.00  0.00    -0.387 OA
HETATM   20  C   UNL     1     -50.434  58.264 -62.619  1.00  0.00     0.202 C 
ENDBRANCH  18  19
ENDBRANCH  15  18
ENDBRANCH  10  14
ENDBRANCH   1   7
BRANCH   3  21
HETATM   21  C   UNL     1     -43.470  54.623 -54.096  1.00  0.00     0.163 C 
BRANCH  21  22
HETATM   22  C   UNL     1     -42.035  54.469 -53.477  1.00  0.00     0.143 C 
HETATM   23  C   UNL     1     -41.511  53.028 -53.724  1.00  0.00     0.041 C 
HETATM   24  C   UNL     1     -40.190  53.177 -54.475  1.00  0.00     0.003 C 
HETATM   25  C   UNL     1     -40.329  54.496 -55.211  1.00  0.00     0.003 C 
HETATM   26  C   UNL     1     -41.023  55.394 -54.195  1.00  0.00     0.041 C 
BRANCH  22  27
HETATM   27  N   UNL     1     -42.059  54.767 -51.979  1.00  0.00    -0.061 N 
HETATM   28  H   UNL     1     -43.014  54.453 -51.702  1.00  0.00     0.281 HD
HETATM   29  C   UNL     1     -41.993  56.206 -51.507  1.00  0.00     0.236 C 
HETATM   30  C   UNL     1     -40.981  56.203 -50.374  1.00  0.00     0.029 C 
HETATM   31  C   UNL     1     -41.036  54.791 -49.835  1.00  0.00     0.029 C 
HETATM   32  C   UNL     1     -41.133  53.960 -51.096  1.00  0.00     0.236 C 
ENDBRANCH  22  27
ENDBRANCH  21  22
ENDBRANCH   3  21
TORSDOF 7
ENDMDL
MODEL 5
REMARK VINA RESULT:      -7.0     15.954     19.297
REMARK  7 active torsions:
REMARK  status: ('A' for Active; 'I' for Inactive)
REMARK    1  A    between atoms: C_3  and  N_4 
REMARK       I    between atoms: N_4  and  C_5 
REMARK       I    between atoms: C_5  and  N_6 
REMARK    2  A    between atoms: N_6  and  C_7 
REMARK    3  A    between atoms: C_7  and  C_8 
REMARK    4  A    between atoms: C_8  and  N_9 
REMARK    5  A    between atoms: C_23  and  N_24 
REMARK       I    between atoms: N_24  and  C_25 
REMARK    6  A    between atoms: C_25  and  C_26 
REMARK    7  A    between atoms: C_26  and  O_27 
ROOT
HETATM    1  N   UNL     1     -37.692  40.211 -55.990  1.00  0.00    -0.308 N 
HETATM    2  C   UNL     1     -36.824  39.858 -55.007  1.00  0.00     0.320 C 
HETATM    3  N   UNL     1     -35.540  39.598 -55.353  1.00  0.00    -0.340 N 
HETATM    4  O   UNL     1     -37.245  39.690 -53.863  1.00  0.00    -0.247 OA
HETATM    5  H   UNL     1     -38.654  40.166 -55.674  1.00  0.00     0.170 HD
HETATM    6  H   UNL     1     -35.403  39.478 -56.349  1.00  0.00     0.164 HD
ENDROOT
BRANCH   1   7
HETATM    7  C   UNL     1     -37.503  40.628 -57.327  1.00  0.00     0.044 A 
HETATM    8  C   UNL     1     -37.656  39.683 -58.377  1.00  0.00    -0.008 A 
HETATM    9  C   UNL     1     -37.933  38.228 -58.070  1.00  0.00     0.053 C 
HETATM   10  C   UNL     1     -37.524  40.113 -59.725  1.00  0.00     0.043 A 
HETATM   11  C   UNL     1     -37.209  41.449 -59.989  1.00  0.00     0.030 A 
HETATM   12  C   UNL     1     -37.071  42.369 -58.955  1.00  0.00     0.005 A 
HETATM   13  C   UNL     1     -37.234  41.966 -57.634  1.00  0.00     0.030 A 
BRANCH  10  14
HETATM   14  N   UNL     1     -37.743  39.189 -60.772  1.00  0.00    -0.325 N 
HETATM   15  C   UNL     1     -36.808  38.582 -61.599  1.00  0.00     0.245 C 
HETATM   16  O   UNL     1     -35.589  38.681 -61.532  1.00  0.00    -0.271 OA
HETATM   17  H   UNL     1     -38.699  38.929 -60.994  1.00  0.00     0.169 HD
BRANCH  15  18
HETATM   18  C   UNL     1     -37.481  37.657 -62.620  1.00  0.00     0.270 C 
BRANCH  18  19
HETATM   19  O   UNL     1     -38.800  38.088 -62.963  1.00  0.00    -0.387 OA
HETATM   20  C   UNL     1     -39.725  37.002 -62.959  1.00  0.00     0.202 C 
ENDBRANCH  18  19
ENDBRANCH  15  18
ENDBRANCH  10  14
ENDBRANCH   1   7
BRANCH   3  21
HETATM   21  C   UNL     1     -34.439  39.096 -54.525  1.00  0.00     0.163 C 
BRANCH  21  22
HETATM   22  C   UNL     1     -33.089  39.888 -54.395  1.00  0.00     0.143 C 
HETATM   23  C   UNL     1     -31.895  38.896 -54.428  1.00  0.00     0.041 C 
HETATM   24  C   UNL     1     -31.002  39.341 -55.584  1.00  0.00     0.003 C 
HETATM   25  C   UNL     1     -31.953  40.034 -56.541  1.00  0.00     0.003 C 
HETATM   26  C   UNL     1     -32.875  40.816 -55.615  1.00  0.00     0.041 C 
BRANCH  22  27
HETATM   27  N   UNL     1     -33.061  40.697 -53.100  1.00  0.00    -0.061 N 
HETATM   28  H   UNL     1     -32.892  41.668 -53.444  1.00  0.00     0.281 HD
HETATM   29  C   UNL     1     -31.946  40.461 -52.101  1.00  0.00     0.236 C 
HETATM   30  C   UNL     1     -32.636  40.388 -50.749  1.00  0.00     0.029 C 
HETATM   31  C   UNL     1     -33.894  41.208 -50.935  1.00  0.00     0.029 C 
HETATM   32  C   UNL     1     -34.352  40.802 -52.318  1.00  0.00     0.236 C 
ENDBRANCH  22  27
ENDBRANCH  21  22
ENDBRANCH   3  21
TORSDOF 7
ENDMDL
MODEL 6
REMARK VINA RESULT:      -7.0      4.539      8.287
REMARK  7 active torsions:
REMARK  status: ('A' for Active; 'I' for Inactive)
REMARK    1  A    between atoms: C_3  and  N_4 
REMARK       I    between atoms: N_4  and  C_5 
REMARK       I    between atoms: C_5  and  N_6 
REMARK    2  A    between atoms: N_6  and  C_7 
REMARK    3  A    between atoms: C_7  and  C_8 
REMARK    4  A    between atoms: C_8  and  N_9 
REMARK    5  A    between atoms: C_23  and  N_24 
REMARK       I    between atoms: N_24  and  C_25 
REMARK    6  A    between atoms: C_25  and  C_26 
REMARK    7  A    between atoms: C_26  and  O_27 
ROOT
HETATM    1  N   UNL     1     -44.848  59.330 -53.605  1.00  0.00    -0.308 N 
HETATM    2  C   UNL     1     -44.731  58.067 -54.092  1.00  0.00     0.320 C 
HETATM    3  N   UNL     1     -43.755  57.276 -53.585  1.00  0.00    -0.340 N 
HETATM    4  O   UNL     1     -45.439  57.717 -55.036  1.00  0.00    -0.247 OA
HETATM    5  H   UNL     1     -45.444  59.903 -54.191  1.00  0.00     0.170 HD
HETATM    6  H   UNL     1     -43.063  57.779 -53.044  1.00  0.00     0.164 HD
ENDROOT
BRANCH   1   7
HETATM    7  C   UNL     1     -44.316  59.965 -52.461  1.00  0.00     0.044 A 
HETATM    8  C   UNL     1     -44.991  59.833 -51.217  1.00  0.00    -0.008 A 
HETATM    9  C   UNL     1     -46.310  59.096 -51.131  1.00  0.00     0.053 C 
HETATM   10  C   UNL     1     -44.426  60.420 -50.053  1.00  0.00     0.043 A 
HETATM   11  C   UNL     1     -43.239  61.149 -50.161  1.00  0.00     0.030 A 
HETATM   12  C   UNL     1     -42.579  61.264 -51.381  1.00  0.00     0.005 A 
HETATM   13  C   UNL     1     -43.104  60.662 -52.519  1.00  0.00     0.030 A 
BRANCH  10  14
HETATM   14  N   UNL     1     -45.061  60.232 -48.804  1.00  0.00    -0.325 N 
HETATM   15  C   UNL     1     -45.527  61.193 -47.918  1.00  0.00     0.245 C 
HETATM   16  O   UNL     1     -45.537  62.407 -48.083  1.00  0.00    -0.271 OA
HETATM   17  H   UNL     1     -45.191  59.283 -48.467  1.00  0.00     0.169 HD
BRANCH  15  18
HETATM   18  C   UNL     1     -46.135  60.551 -46.665  1.00  0.00     0.270 C 
BRANCH  18  19
HETATM   19  O   UNL     1     -46.625  59.231 -46.910  1.00  0.00    -0.387 OA
HETATM   20  C   UNL     1     -47.029  58.589 -45.702  1.00  0.00     0.202 C 
ENDBRANCH  18  19
ENDBRANCH  15  18
ENDBRANCH  10  14
ENDBRANCH   1   7
BRANCH   3  21
HETATM   21  C   UNL     1     -43.340  55.932 -54.000  1.00  0.00     0.163 C 
BRANCH  21  22
HETATM   22  C   UNL     1     -42.102  55.222 -53.344  1.00  0.00     0.143 C 
HETATM   23  C   UNL     1     -42.073  53.728 -53.765  1.00  0.00     0.041 C 
HETATM   24  C   UNL     1     -40.717  53.498 -54.427  1.00  0.00     0.003 C 
HETATM   25  C   UNL     1     -40.338  54.859 -54.979  1.00  0.00     0.003 C 
HETATM   26  C   UNL     1     -40.778  55.818 -53.880  1.00  0.00     0.041 C 
BRANCH  22  27
HETATM   27  N   UNL     1     -42.158  55.336 -51.822  1.00  0.00    -0.061 N 
HETATM   28  H   UNL     1     -43.109  55.737 -51.660  1.00  0.00     0.281 HD
HETATM   29  C   UNL     1     -41.228  56.300 -51.114  1.00  0.00     0.236 C 
HETATM   30  C   UNL     1     -40.671  55.518 -49.936  1.00  0.00     0.029 C 
HETATM   31  C   UNL     1     -41.738  54.486 -49.644  1.00  0.00     0.029 C 
HETATM   32  C   UNL     1     -42.161  54.048 -51.029  1.00  0.00     0.236 C 
ENDBRANCH  22  27
ENDBRANCH  21  22
ENDBRANCH   3  21
TORSDOF 7
ENDMDL
MODEL 7
REMARK VINA RESULT:      -6.9      1.038      2.110
REMARK  7 active torsions:
REMARK  status: ('A' for Active; 'I' for Inactive)
REMARK    1  A    between atoms: C_3  and  N_4 
REMARK       I    between atoms: N_4  and  C_5 
REMARK       I    between atoms: C_5  and  N_6 
REMARK    2  A    between atoms: N_6  and  C_7 
REMARK    3  A    between atoms: C_7  and  C_8 
REMARK    4  A    between atoms: C_8  and  N_9 
REMARK    5  A    between atoms: C_23  and  N_24 
REMARK       I    between atoms: N_24  and  C_25 
REMARK    6  A    between atoms: C_25  and  C_26 
REMARK    7  A    between atoms: C_26  and  O_27 
ROOT
HETATM    1  N   UNL     1     -41.577  57.867 -54.292  1.00  0.00    -0.308 N 
HETATM    2  C   UNL     1     -42.245  58.752 -55.076  1.00  0.00     0.320 C 
HETATM    3  N   UNL     1     -43.524  58.464 -55.418  1.00  0.00    -0.340 N 
HETATM    4  O   UNL     1     -41.646  59.727 -55.530  1.00  0.00    -0.247 OA
HETATM    5  H   UNL     1     -40.582  58.056 -54.278  1.00  0.00     0.170 HD
HETATM    6  H   UNL     1     -43.787  57.504 -55.234  1.00  0.00     0.164 HD
ENDROOT
BRANCH   1   7
HETATM    7  C   UNL     1     -42.007  56.774 -53.506  1.00  0.00     0.044 A 
HETATM    8  C   UNL     1     -41.368  55.514 -53.661  1.00  0.00    -0.008 A 
HETATM    9  C   UNL     1     -40.298  55.317 -54.714  1.00  0.00     0.053 C 
HETATM   10  C   UNL     1     -41.758  54.429 -52.831  1.00  0.00     0.043 A 
HETATM   11  C   UNL     1     -42.789  54.612 -51.906  1.00  0.00     0.030 A 
HETATM   12  C   UNL     1     -43.402  55.852 -51.754  1.00  0.00     0.005 A 
HETATM   13  C   UNL     1     -43.002  56.930 -52.536  1.00  0.00     0.030 A 
BRANCH  10  14
HETATM   14  N   UNL     1     -41.077  53.195 -52.938  1.00  0.00    -0.325 N 
HETATM   15  C   UNL     1     -40.091  52.676 -52.110  1.00  0.00     0.245 C 
HETATM   16  O   UNL     1     -39.665  53.169 -51.072  1.00  0.00    -0.271 OA
HETATM   17  H   UNL     1     -41.295  52.590 -53.725  1.00  0.00     0.169 HD
BRANCH  15  18
HETATM   18  C   UNL     1     -39.608  51.307 -52.603  1.00  0.00     0.270 C 
BRANCH  18  19
HETATM   19  O   UNL     1     -39.673  51.184 -54.026  1.00  0.00    -0.387 OA
HETATM   20  C   UNL     1     -39.754  49.820 -54.431  1.00  0.00     0.202 C 
ENDBRANCH  18  19
ENDBRANCH  15  18
ENDBRANCH  10  14
ENDBRANCH   1   7
BRANCH   3  21
HETATM   21  C   UNL     1     -44.425  59.175 -56.330  1.00  0.00     0.163 C 
BRANCH  21  22
HETATM   22  C   UNL     1     -44.631  58.696 -57.811  1.00  0.00     0.143 C 
HETATM   23  C   UNL     1     -46.036  58.052 -57.960  1.00  0.00     0.041 C 
HETATM   24  C   UNL     1     -46.747  58.831 -59.064  1.00  0.00     0.003 C 
HETATM   25  C   UNL     1     -46.108  60.205 -59.018  1.00  0.00     0.003 C 
HETATM   26  C   UNL     1     -44.634  59.899 -58.784  1.00  0.00     0.041 C 
BRANCH  22  27
HETATM   27  N   UNL     1     -43.551  57.692 -58.209  1.00  0.00    -0.061 N 
HETATM   28  H   UNL     1     -43.217  57.341 -57.284  1.00  0.00     0.281 HD
HETATM   29  C   UNL     1     -42.291  58.189 -58.890  1.00  0.00     0.236 C 
HETATM   30  C   UNL     1     -42.062  57.227 -60.044  1.00  0.00     0.029 C 
HETATM   31  C   UNL     1     -42.727  55.945 -59.591  1.00  0.00     0.029 C 
HETATM   32  C   UNL     1     -43.997  56.445 -58.939  1.00  0.00     0.236 C 
ENDBRANCH  22  27
ENDBRANCH  21  22
ENDBRANCH   3  21
TORSDOF 7
ENDMDL
MODEL 8
REMARK VINA RESULT:      -6.8      2.914      8.528
REMARK  7 active torsions:
REMARK  status: ('A' for Active; 'I' for Inactive)
REMARK    1  A    between atoms: C_3  and  N_4 
REMARK       I    between atoms: N_4  and  C_5 
REMARK       I    between atoms: C_5  and  N_6 
REMARK    2  A    between atoms: N_6  and  C_7 
REMARK    3  A    between atoms: C_7  and  C_8 
REMARK    4  A    between atoms: C_8  and  N_9 
REMARK    5  A    between atoms: C_23  and  N_24 
REMARK       I    between atoms: N_24  and  C_25 
REMARK    6  A    between atoms: C_25  and  C_26 
REMARK    7  A    between atoms: C_26  and  O_27 
ROOT
HETATM    1  N   UNL     1     -44.486  57.320 -56.566  1.00  0.00    -0.308 N 
HETATM    2  C   UNL     1     -44.282  56.751 -55.350  1.00  0.00     0.320 C 
HETATM    3  N   UNL     1     -43.395  55.731 -55.262  1.00  0.00    -0.340 N 
HETATM    4  O   UNL     1     -44.974  57.106 -54.395  1.00  0.00    -0.247 OA
HETATM    5  H   UNL     1     -45.311  57.907 -56.571  1.00  0.00     0.170 HD
HETATM    6  H   UNL     1     -43.130  55.344 -56.160  1.00  0.00     0.164 HD
ENDROOT
BRANCH   1   7
HETATM    7  C   UNL     1     -43.770  57.254 -57.782  1.00  0.00     0.044 A 
HETATM    8  C   UNL     1     -43.259  58.451 -58.353  1.00  0.00    -0.008 A 
HETATM    9  C   UNL     1     -43.550  59.793 -57.717  1.00  0.00     0.053 C 
HETATM   10  C   UNL     1     -42.488  58.380 -59.544  1.00  0.00     0.043 A 
HETATM   11  C   UNL     1     -42.280  57.139 -60.152  1.00  0.00     0.030 A 
HETATM   12  C   UNL     1     -42.775  55.971 -59.580  1.00  0.00     0.005 A 
HETATM   13  C   UNL     1     -43.500  56.026 -58.395  1.00  0.00     0.030 A 
BRANCH  10  14
HETATM   14  N   UNL     1     -41.923  59.562 -60.076  1.00  0.00    -0.325 N 
HETATM   15  C   UNL     1     -42.388  60.349 -61.119  1.00  0.00     0.245 C 
HETATM   16  O   UNL     1     -43.431  60.205 -61.744  1.00  0.00    -0.271 OA
HETATM   17  H   UNL     1     -41.049  59.898 -59.682  1.00  0.00     0.169 HD
BRANCH  15  18
HETATM   18  C   UNL     1     -41.454  61.537 -61.384  1.00  0.00     0.270 C 
BRANCH  18  19
HETATM   19  O   UNL     1     -40.913  62.086 -60.181  1.00  0.00    -0.387 OA
HETATM   20  C   UNL     1     -41.695  63.182 -59.708  1.00  0.00     0.202 C 
ENDBRANCH  18  19
ENDBRANCH  15  18
ENDBRANCH  10  14
ENDBRANCH   1   7
BRANCH   3  21
HETATM   21  C   UNL     1     -43.072  54.876 -54.116  1.00  0.00     0.163 C 
BRANCH  21  22
HETATM   22  C   UNL     1     -41.622  54.829 -53.516  1.00  0.00     0.143 C 
HETATM   23  C   UNL     1     -41.459  53.558 -52.640  1.00  0.00     0.041 C 
HETATM   24  C   UNL     1     -40.274  52.789 -53.219  1.00  0.00     0.003 C 
HETATM   25  C   UNL     1     -40.249  53.194 -54.680  1.00  0.00     0.003 C 
HETATM   26  C   UNL     1     -40.566  54.683 -54.638  1.00  0.00     0.041 C 
BRANCH  22  27
HETATM   27  N   UNL     1     -41.342  56.078 -52.682  1.00  0.00    -0.061 N 
HETATM   28  H   UNL     1     -40.526  55.784 -52.102  1.00  0.00     0.281 HD
HETATM   29  C   UNL     1     -42.368  56.539 -51.667  1.00  0.00     0.236 C 
HETATM   30  C   UNL     1     -42.480  58.041 -51.873  1.00  0.00     0.029 C 
HETATM   31  C   UNL     1     -41.136  58.433 -52.448  1.00  0.00     0.029 C 
HETATM   32  C   UNL     1     -40.849  57.307 -53.416  1.00  0.00     0.236 C 
ENDBRANCH  22  27
ENDBRANCH  21  22
ENDBRANCH   3  21
TORSDOF 7
ENDMDL
MODEL 9
REMARK VINA RESULT:      -6.7      3.030      4.775
REMARK  7 active torsions:
REMARK  status: ('A' for Active; 'I' for Inactive)
REMARK    1  A    between atoms: C_3  and  N_4 
REMARK       I    between atoms: N_4  and  C_5 
REMARK       I    between atoms: C_5  and  N_6 
REMARK    2  A    between atoms: N_6  and  C_7 
REMARK    3  A    between atoms: C_7  and  C_8 
REMARK    4  A    between atoms: C_8  and  N_9 
REMARK    5  A    between atoms: C_23  and  N_24 
REMARK       I    between atoms: N_24  and  C_25 
REMARK    6  A    between atoms: C_25  and  C_26 
REMARK    7  A    between atoms: C_26  and  O_27 
ROOT
HETATM    1  N   UNL     1     -43.237  55.169 -56.974  1.00  0.00    -0.308 N 
HETATM    2  C   UNL     1     -43.327  55.661 -58.238  1.00  0.00     0.320 C 
HETATM    3  N   UNL     1     -42.637  56.787 -58.535  1.00  0.00    -0.340 N 
HETATM    4  O   UNL     1     -44.102  55.133 -59.036  1.00  0.00    -0.247 OA
HETATM    5  H   UNL     1     -43.948  54.471 -56.793  1.00  0.00     0.170 HD
HETATM    6  H   UNL     1     -42.291  57.280 -57.720  1.00  0.00     0.164 HD
ENDROOT
BRANCH   1   7
HETATM    7  C   UNL     1     -42.350  55.436 -55.908  1.00  0.00     0.044 A 
HETATM    8  C   UNL     1     -42.619  56.529 -55.039  1.00  0.00    -0.008 A 
HETATM    9  C   UNL     1     -43.790  57.450 -55.300  1.00  0.00     0.053 C 
HETATM   10  C   UNL     1     -41.762  56.764 -53.930  1.00  0.00     0.043 A 
HETATM   11  C   UNL     1     -40.650  55.940 -53.738  1.00  0.00     0.030 A 
HETATM   12  C   UNL     1     -40.400  54.866 -54.588  1.00  0.00     0.005 A 
HETATM   13  C   UNL     1     -41.254  54.605 -55.654  1.00  0.00     0.030 A 
BRANCH  10  14
HETATM   14  N   UNL     1     -42.066  57.808 -53.028  1.00  0.00    -0.325 N 
HETATM   15  C   UNL     1     -41.561  59.100 -52.998  1.00  0.00     0.245 C 
HETATM   16  O   UNL     1     -40.792  59.610 -53.804  1.00  0.00    -0.271 OA
HETATM   17  H   UNL     1     -42.721  57.619 -52.275  1.00  0.00     0.169 HD
BRANCH  15  18
HETATM   18  C   UNL     1     -42.150  59.905 -51.833  1.00  0.00     0.270 C 
BRANCH  18  19
HETATM   19  O   UNL     1     -41.838  59.334 -50.560  1.00  0.00    -0.387 OA
HETATM   20  C   UNL     1     -40.479  59.572 -50.198  1.00  0.00     0.202 C 
ENDBRANCH  18  19
ENDBRANCH  15  18
ENDBRANCH  10  14
ENDBRANCH   1   7
BRANCH   3  21
HETATM   21  C   UNL     1     -42.644  57.584 -59.766  1.00  0.00     0.163 C 
BRANCH  21  22
HETATM   22  C   UNL     1     -43.245  59.034 -59.796  1.00  0.00     0.143 C 
HETATM   23  C   UNL     1     -42.576  59.901 -58.695  1.00  0.00     0.041 C 
HETATM   24  C   UNL     1     -41.973  61.107 -59.411  1.00  0.00     0.003 C 
HETATM   25  C   UNL     1     -41.690  60.603 -60.813  1.00  0.00     0.003 C 
HETATM   26  C   UNL     1     -42.907  59.743 -61.129  1.00  0.00     0.041 C 
BRANCH  22  27
HETATM   27  N   UNL     1     -44.758  58.995 -59.583  1.00  0.00    -0.061 N 
HETATM   28  H   UNL     1     -45.074  59.875 -60.047  1.00  0.00     0.281 HD
HETATM   29  C   UNL     1     -45.312  59.101 -58.176  1.00  0.00     0.236 C 
HETATM   30  C   UNL     1     -46.379  58.022 -58.091  1.00  0.00     0.029 C 
HETATM   31  C   UNL     1     -46.832  57.839 -59.523  1.00  0.00     0.029 C 
HETATM   32  C   UNL     1     -45.531  57.905 -60.292  1.00  0.00     0.236 C 
ENDBRANCH  22  27
ENDBRANCH  21  22
ENDBRANCH   3  21
TORSDOF 7
ENDMDL
MODEL 10
REMARK VINA RESULT:      -6.7      2.728      7.794
REMARK  7 active torsions:
REMARK  status: ('A' for Active; 'I' for Inactive)
REMARK    1  A    between atoms: C_3  and  N_4 
REMARK       I    between atoms: N_4  and  C_5 
REMARK       I    between atoms: C_5  and  N_6 
REMARK    2  A    between atoms: N_6  and  C_7 
REMARK    3  A    between atoms: C_7  and  C_8 
REMARK    4  A    between atoms: C_8  and  N_9 
REMARK    5  A    between atoms: C_23  and  N_24 
REMARK       I    between atoms: N_24  and  C_25 
REMARK    6  A    between atoms: C_25  and  C_26 
REMARK    7  A    between atoms: C_26  and  O_27 
ROOT
HETATM    1  N   UNL     1     -44.081  59.333 -55.095  1.00  0.00    -0.308 N 
HETATM    2  C   UNL     1     -44.042  58.751 -53.869  1.00  0.00     0.320 C 
HETATM    3  N   UNL     1     -43.694  57.444 -53.793  1.00  0.00    -0.340 N 
HETATM    4  O   UNL     1     -44.415  59.391 -52.885  1.00  0.00    -0.247 OA
HETATM    5  H   UNL     1     -44.557  60.227 -55.071  1.00  0.00     0.170 HD
HETATM    6  H   UNL     1     -43.709  56.967 -54.686  1.00  0.00     0.164 HD
ENDROOT
BRANCH   1   7
HETATM    7  C   UNL     1     -43.581  58.937 -56.356  1.00  0.00     0.044 A 
HETATM    8  C   UNL     1     -44.438  58.252 -57.259  1.00  0.00    -0.008 A 
HETATM    9  C   UNL     1     -45.844  57.872 -56.848  1.00  0.00     0.053 C 
HETATM   10  C   UNL     1     -43.956  57.905 -58.550  1.00  0.00     0.043 A 
HETATM   11  C   UNL     1     -42.636  58.210 -58.892  1.00  0.00     0.030 A 
HETATM   12  C   UNL     1     -41.806  58.890 -58.005  1.00  0.00     0.005 A 
HETATM   13  C   UNL     1     -42.281  59.267 -56.753  1.00  0.00     0.030 A 
BRANCH  10  14
HETATM   14  N   UNL     1     -44.829  57.285 -59.472  1.00  0.00    -0.325 N 
HETATM   15  C   UNL     1     -44.902  55.945 -59.828  1.00  0.00     0.245 C 
HETATM   16  O   UNL     1     -44.257  55.019 -59.350  1.00  0.00    -0.271 OA
HETATM   17  H   UNL     1     -45.489  57.867 -59.978  1.00  0.00     0.169 HD
BRANCH  15  18
HETATM   18  C   UNL     1     -45.985  55.705 -60.886  1.00  0.00     0.270 C 
BRANCH  18  19
HETATM   19  O   UNL     1     -47.249  56.258 -60.511  1.00  0.00    -0.387 OA
HETATM   20  C   UNL     1     -47.973  56.728 -61.646  1.00  0.00     0.202 C 
ENDBRANCH  18  19
ENDBRANCH  15  18
ENDBRANCH  10  14
ENDBRANCH   1   7
BRANCH   3  21
HETATM   21  C   UNL     1     -43.681  56.551 -52.630  1.00  0.00     0.163 C 
BRANCH  21  22
HETATM   22  C   UNL     1     -42.468  55.594 -52.350  1.00  0.00     0.143 C 
HETATM   23  C   UNL     1     -41.345  56.374 -51.615  1.00  0.00     0.041 C 
HETATM   24  C   UNL     1     -41.082  55.618 -50.315  1.00  0.00     0.003 C 
HETATM   25  C   UNL     1     -42.400  54.934 -50.010  1.00  0.00     0.003 C 
HETATM   26  C   UNL     1     -42.874  54.460 -51.378  1.00  0.00     0.041 C 
BRANCH  22  27
HETATM   27  N   UNL     1     -41.930  55.008 -53.654  1.00  0.00    -0.061 N 
HETATM   28  H   UNL     1     -42.630  55.338 -54.355  1.00  0.00     0.281 HD
HETATM   29  C   UNL     1     -41.905  53.504 -53.839  1.00  0.00     0.236 C 
HETATM   30  C   UNL     1     -40.534  53.201 -54.420  1.00  0.00     0.029 C 
HETATM   31  C   UNL     1     -40.146  54.479 -55.130  1.00  0.00     0.029 C 
HETATM   32  C   UNL     1     -40.613  55.548 -54.166  1.00  0.00     0.236 C 
ENDBRANCH  22  27
ENDBRANCH  21  22
ENDBRANCH   3  21
TORSDOF 7
ENDMDL
