MODEL 1
REMARK VINA RESULT:      -8.8      0.000      0.000
REMARK  7 active torsions:
REMARK  status: ('A' for Active; 'I' for Inactive)
REMARK    1  A    between atoms: C_3  and  N_4 
REMARK       I    between atoms: N_4  and  C_5 
REMARK       I    between atoms: C_5  and  N_6 
REMARK       I    between atoms: N_6  and  C_7 
REMARK    2  A    between atoms: C_7  and  C_8 
REMARK    3  A    between atoms: C_8  and  S_9 
REMARK    4  A    between atoms: S_9  and  C_10 
REMARK    5  A    between atoms: N_11  and  C_12 
REMARK    6  A    between atoms: C_19  and  C_20 
REMARK    7  A    between atoms: C_20  and  N_21 
ROOT
HETATM    1  C   UNL     1     -43.456  56.677 -53.786  1.00  0.00     0.196 A 
HETATM    2  N   UNL     1     -43.546  57.338 -54.997  1.00  0.00    -0.274 N 
HETATM    3  C   UNL     1     -43.258  56.355 -55.933  1.00  0.00     0.161 A 
HETATM    4  N   UNL     1     -43.047  55.203 -55.326  1.00  0.00    -0.132 NA
HETATM    5  N   UNL     1     -43.182  55.406 -53.981  1.00  0.00    -0.122 NA
ENDROOT
BRANCH   1   6
HETATM    6  S   UNL     1     -43.836  57.383 -52.253  1.00  0.00    -0.080 SA
BRANCH   6   7
HETATM    7  C   UNL     1     -43.200  56.119 -51.110  1.00  0.00     0.185 C 
BRANCH   7   8
HETATM    8  C   UNL     1     -41.727  56.335 -50.774  1.00  0.00     0.235 C 
HETATM    9  N   UNL     1     -40.839  55.303 -51.012  1.00  0.00    -0.278 N 
HETATM   10  C   UNL     1     -41.102  53.992 -51.383  1.00  0.00     0.327 C 
HETATM   11  H   UNL     1     -39.887  55.543 -50.790  1.00  0.00     0.173 HD
HETATM   12  N   UNL     1     -39.941  53.301 -51.655  1.00  0.00    -0.306 N 
HETATM   13  O   UNL     1     -42.237  53.541 -51.463  1.00  0.00    -0.247 OA
HETATM   14  H   UNL     1     -39.058  53.704 -51.367  1.00  0.00     0.171 HD
HETATM   15  O   UNL     1     -41.278  57.376 -50.283  1.00  0.00    -0.272 OA
BRANCH  12  16
HETATM   16  C   UNL     1     -39.822  52.014 -52.228  1.00  0.00     0.075 A 
HETATM   17  C   UNL     1     -39.594  50.843 -51.504  1.00  0.00     0.033 A 
HETATM   18  C   UNL     1     -39.530  49.610 -52.164  1.00  0.00     0.002 A 
HETATM   19  C   UNL     1     -39.688  49.535 -53.549  1.00  0.00     0.003 A 
HETATM   20  C   UNL     1     -39.916  50.698 -54.281  1.00  0.00     0.044 A 
HETATM   21  C   UNL     1     -39.984  51.918 -53.618  1.00  0.00     0.143 A 
HETATM   22  F   UNL     1     -40.214  53.035 -54.328  1.00  0.00    -0.204 F 
ENDBRANCH  12  16
ENDBRANCH   7   8
ENDBRANCH   6   7
ENDBRANCH   1   6
BRANCH   2  23
HETATM   23  C   UNL     1     -43.829  58.703 -55.258  1.00  0.00     0.043 A 
HETATM   24  C   UNL     1     -45.143  59.115 -55.520  1.00  0.00     0.033 A 
HETATM   25  C   UNL     1     -45.411  60.464 -55.761  1.00  0.00     0.044 A 
HETATM   26  C   UNL     1     -44.372  61.386 -55.749  1.00  0.00     0.116 A 
HETATM   27  F   UNL     1     -44.631  62.678 -55.983  1.00  0.00    -0.206 F 
HETATM   28  C   UNL     1     -43.063  60.986 -55.503  1.00  0.00     0.044 A 
HETATM   29  C   UNL     1     -42.785  59.640 -55.257  1.00  0.00     0.033 A 
ENDBRANCH   2  23
BRANCH   3  30
HETATM   30  C   UNL     1     -43.004  56.580 -57.380  1.00  0.00     0.315 C 
BRANCH  30  31
HETATM   31  N   UNL     1     -44.189  56.135 -58.231  1.00  0.00    -0.064 N 
HETATM   32  H   UNL     1     -44.821  55.662 -57.563  1.00  0.00     0.280 HD
HETATM   33  C   UNL     1     -44.959  57.313 -58.782  1.00  0.00     0.235 C 
HETATM   34  C   UNL     1     -46.196  56.819 -59.516  1.00  0.00     0.028 C 
HETATM   35  C   UNL     1     -45.839  55.813 -60.604  1.00  0.00     0.003 C 
HETATM   36  C   UNL     1     -45.028  54.657 -60.032  1.00  0.00     0.028 C 
HETATM   37  C   UNL     1     -43.792  55.145 -59.291  1.00  0.00     0.235 C 
ENDBRANCH  30  31
ENDBRANCH   3  30
TORSDOF 7
ENDMDL
MODEL 2
REMARK VINA RESULT:      -8.5      2.802      7.539
REMARK  7 active torsions:
REMARK  status: ('A' for Active; 'I' for Inactive)
REMARK    1  A    between atoms: C_3  and  N_4 
REMARK       I    between atoms: N_4  and  C_5 
REMARK       I    between atoms: C_5  and  N_6 
REMARK       I    between atoms: N_6  and  C_7 
REMARK    2  A    between atoms: C_7  and  C_8 
REMARK    3  A    between atoms: C_8  and  S_9 
REMARK    4  A    between atoms: S_9  and  C_10 
REMARK    5  A    between atoms: N_11  and  C_12 
REMARK    6  A    between atoms: C_19  and  C_20 
REMARK    7  A    between atoms: C_20  and  N_21 
ROOT
HETATM    1  C   UNL     1     -42.620  55.082 -50.550  1.00  0.00     0.196 A 
HETATM    2  N   UNL     1     -41.847  54.534 -51.557  1.00  0.00    -0.274 N 
HETATM    3  C   UNL     1     -40.879  53.811 -50.873  1.00  0.00     0.161 A 
HETATM    4  N   UNL     1     -41.084  53.900 -49.573  1.00  0.00    -0.132 NA
HETATM    5  N   UNL     1     -42.182  54.689 -49.375  1.00  0.00    -0.122 NA
ENDROOT
BRANCH   1   6
HETATM    6  S   UNL     1     -44.066  55.996 -50.811  1.00  0.00    -0.080 SA
BRANCH   6   7
HETATM    7  C   UNL     1     -43.385  57.638 -51.197  1.00  0.00     0.185 C 
BRANCH   7   8
HETATM    8  C   UNL     1     -44.472  58.630 -51.605  1.00  0.00     0.235 C 
HETATM    9  N   UNL     1     -44.420  59.177 -52.873  1.00  0.00    -0.278 N 
HETATM   10  C   UNL     1     -43.417  59.081 -53.826  1.00  0.00     0.327 C 
HETATM   11  H   UNL     1     -45.191  59.796 -53.066  1.00  0.00     0.173 HD
HETATM   12  N   UNL     1     -43.798  59.656 -55.020  1.00  0.00    -0.306 N 
HETATM   13  O   UNL     1     -42.344  58.536 -53.606  1.00  0.00    -0.247 OA
HETATM   14  H   UNL     1     -44.619  60.249 -55.033  1.00  0.00     0.171 HD
HETATM   15  O   UNL     1     -45.389  58.991 -50.861  1.00  0.00    -0.272 OA
BRANCH  12  16
HETATM   16  C   UNL     1     -43.118  59.592 -56.259  1.00  0.00     0.075 A 
HETATM   17  C   UNL     1     -42.239  60.568 -56.729  1.00  0.00     0.033 A 
HETATM   18  C   UNL     1     -41.585  60.393 -57.955  1.00  0.00     0.002 A 
HETATM   19  C   UNL     1     -41.807  59.247 -58.721  1.00  0.00     0.003 A 
HETATM   20  C   UNL     1     -42.682  58.267 -58.261  1.00  0.00     0.044 A 
HETATM   21  C   UNL     1     -43.323  58.446 -57.039  1.00  0.00     0.143 A 
HETATM   22  F   UNL     1     -44.160  57.493 -56.596  1.00  0.00    -0.204 F 
ENDBRANCH  12  16
ENDBRANCH   7   8
ENDBRANCH   6   7
ENDBRANCH   1   6
BRANCH   2  23
HETATM   23  C   UNL     1     -41.964  54.681 -52.961  1.00  0.00     0.043 A 
HETATM   24  C   UNL     1     -42.977  54.010 -53.661  1.00  0.00     0.033 A 
HETATM   25  C   UNL     1     -43.091  54.175 -55.043  1.00  0.00     0.044 A 
HETATM   26  C   UNL     1     -42.193  54.995 -55.716  1.00  0.00     0.116 A 
HETATM   27  F   UNL     1     -42.303  55.149 -57.041  1.00  0.00    -0.206 F 
HETATM   28  C   UNL     1     -41.177  55.655 -55.033  1.00  0.00     0.044 A 
HETATM   29  C   UNL     1     -41.057  55.500 -53.651  1.00  0.00     0.033 A 
ENDBRANCH   2  23
BRANCH   3  30
HETATM   30  C   UNL     1     -39.663  53.203 -51.474  1.00  0.00     0.315 C 
BRANCH  30  31
HETATM   31  N   UNL     1     -39.991  51.912 -52.216  1.00  0.00    -0.064 N 
HETATM   32  H   UNL     1     -41.008  51.787 -52.074  1.00  0.00     0.280 HD
HETATM   33  C   UNL     1     -39.786  52.052 -53.707  1.00  0.00     0.235 C 
HETATM   34  C   UNL     1     -40.244  50.782 -54.408  1.00  0.00     0.028 C 
HETATM   35  C   UNL     1     -39.545  49.548 -53.850  1.00  0.00     0.003 C 
HETATM   36  C   UNL     1     -39.733  49.452 -52.341  1.00  0.00     0.028 C 
HETATM   37  C   UNL     1     -39.282  50.721 -51.634  1.00  0.00     0.235 C 
ENDBRANCH  30  31
ENDBRANCH   3  30
TORSDOF 7
ENDMDL
MODEL 3
REMARK VINA RESULT:      -8.4      3.015      7.076
REMARK  7 active torsions:
REMARK  status: ('A' for Active; 'I' for Inactive)
REMARK    1  A    between atoms: C_3  and  N_4 
REMARK       I    between atoms: N_4  and  C_5 
REMARK       I    between atoms: C_5  and  N_6 
REMARK       I    between atoms: N_6  and  C_7 
REMARK    2  A    between atoms: C_7  and  C_8 
REMARK    3  A    between atoms: C_8  and  S_9 
REMARK    4  A    between atoms: S_9  and  C_10 
REMARK    5  A    between atoms: N_11  and  C_12 
REMARK    6  A    between atoms: C_19  and  C_20 
REMARK    7  A    between atoms: C_20  and  N_21 
ROOT
HETATM    1  C   UNL     1     -44.499  58.574 -51.312  1.00  0.00     0.196 A 
HETATM    2  N   UNL     1     -43.342  57.818 -51.343  1.00  0.00    -0.274 N 
HETATM    3  C   UNL     1     -43.754  56.566 -50.907  1.00  0.00     0.161 A 
HETATM    4  N   UNL     1     -45.052  56.576 -50.670  1.00  0.00    -0.132 NA
HETATM    5  N   UNL     1     -45.517  57.834 -50.934  1.00  0.00    -0.122 NA
ENDROOT
BRANCH   1   6
HETATM    6  S   UNL     1     -44.618  60.207 -51.872  1.00  0.00    -0.080 SA
BRANCH   6   7
HETATM    7  C   UNL     1     -44.923  59.954 -53.647  1.00  0.00     0.185 C 
BRANCH   7   8
HETATM    8  C   UNL     1     -43.710  60.322 -54.498  1.00  0.00     0.235 C 
HETATM    9  N   UNL     1     -43.503  59.637 -55.680  1.00  0.00    -0.278 N 
HETATM   10  C   UNL     1     -44.164  58.520 -56.170  1.00  0.00     0.327 C 
HETATM   11  H   UNL     1     -42.699  59.965 -56.190  1.00  0.00     0.173 HD
HETATM   12  N   UNL     1     -43.756  58.213 -57.450  1.00  0.00    -0.306 N 
HETATM   13  O   UNL     1     -45.007  57.913 -55.524  1.00  0.00    -0.247 OA
HETATM   14  H   UNL     1     -42.919  58.653 -57.812  1.00  0.00     0.171 HD
HETATM   15  O   UNL     1     -42.885  61.187 -54.184  1.00  0.00    -0.272 OA
BRANCH  12  16
HETATM   16  C   UNL     1     -44.328  57.264 -58.329  1.00  0.00     0.075 A 
HETATM   17  C   UNL     1     -45.495  57.471 -59.066  1.00  0.00     0.033 A 
HETATM   18  C   UNL     1     -45.960  56.479 -59.939  1.00  0.00     0.002 A 
HETATM   19  C   UNL     1     -45.269  55.275 -60.080  1.00  0.00     0.003 A 
HETATM   20  C   UNL     1     -44.104  55.058 -59.348  1.00  0.00     0.044 A 
HETATM   21  C   UNL     1     -43.645  56.050 -58.488  1.00  0.00     0.143 A 
HETATM   22  F   UNL     1     -42.516  55.839 -57.792  1.00  0.00    -0.204 F 
ENDBRANCH  12  16
ENDBRANCH   7   8
ENDBRANCH   6   7
ENDBRANCH   1   6
BRANCH   2  23
HETATM   23  C   UNL     1     -42.025  58.203 -51.696  1.00  0.00     0.043 A 
HETATM   24  C   UNL     1     -41.181  58.792 -50.744  1.00  0.00     0.033 A 
HETATM   25  C   UNL     1     -39.881  59.154 -51.099  1.00  0.00     0.044 A 
HETATM   26  C   UNL     1     -39.435  58.936 -52.397  1.00  0.00     0.116 A 
HETATM   27  F   UNL     1     -38.188  59.286 -52.736  1.00  0.00    -0.206 F 
HETATM   28  C   UNL     1     -40.267  58.364 -53.353  1.00  0.00     0.044 A 
HETATM   29  C   UNL     1     -41.568  57.995 -53.006  1.00  0.00     0.033 A 
ENDBRANCH   2  23
BRANCH   3  30
HETATM   30  C   UNL     1     -42.862  55.434 -50.545  1.00  0.00     0.315 C 
BRANCH  30  31
HETATM   31  N   UNL     1     -42.147  54.872 -51.770  1.00  0.00    -0.064 N 
HETATM   32  H   UNL     1     -41.536  55.644 -52.086  1.00  0.00     0.280 HD
HETATM   33  C   UNL     1     -41.230  53.726 -51.409  1.00  0.00     0.235 C 
HETATM   34  C   UNL     1     -40.452  53.285 -52.640  1.00  0.00     0.028 C 
HETATM   35  C   UNL     1     -41.382  52.930 -53.794  1.00  0.00     0.003 C 
HETATM   36  C   UNL     1     -42.322  54.086 -54.112  1.00  0.00     0.028 C 
HETATM   37  C   UNL     1     -43.100  54.535 -52.883  1.00  0.00     0.235 C 
ENDBRANCH  30  31
ENDBRANCH   3  30
TORSDOF 7
ENDMDL
MODEL 4
REMARK VINA RESULT:      -8.4      3.106      4.538
REMARK  7 active torsions:
REMARK  status: ('A' for Active; 'I' for Inactive)
REMARK    1  A    between atoms: C_3  and  N_4 
REMARK       I    between atoms: N_4  and  C_5 
REMARK       I    between atoms: C_5  and  N_6 
REMARK       I    between atoms: N_6  and  C_7 
REMARK    2  A    between atoms: C_7  and  C_8 
REMARK    3  A    between atoms: C_8  and  S_9 
REMARK    4  A    between atoms: S_9  and  C_10 
REMARK    5  A    between atoms: N_11  and  C_12 
REMARK    6  A    between atoms: C_19  and  C_20 
REMARK    7  A    between atoms: C_20  and  N_21 
ROOT
HETATM    1  C   UNL     1     -42.158  58.101 -55.713  1.00  0.00     0.196 A 
HETATM    2  N   UNL     1     -42.569  58.552 -56.955  1.00  0.00    -0.274 N 
HETATM    3  C   UNL     1     -42.356  59.922 -56.895  1.00  0.00     0.161 A 
HETATM    4  N   UNL     1     -41.833  60.247 -55.729  1.00  0.00    -0.132 NA
HETATM    5  N   UNL     1     -41.701  59.102 -54.995  1.00  0.00    -0.122 NA
ENDROOT
BRANCH   1   6
HETATM    6  S   UNL     1     -42.082  56.435 -55.252  1.00  0.00    -0.080 SA
BRANCH   6   7
HETATM    7  C   UNL     1     -42.776  56.499 -53.572  1.00  0.00     0.185 C 
BRANCH   7   8
HETATM    8  C   UNL     1     -41.700  56.718 -52.511  1.00  0.00     0.235 C 
HETATM    9  N   UNL     1     -40.981  55.625 -52.067  1.00  0.00    -0.278 N 
HETATM   10  C   UNL     1     -41.187  54.278 -52.331  1.00  0.00     0.327 C 
HETATM   11  H   UNL     1     -40.274  55.866 -51.392  1.00  0.00     0.173 HD
HETATM   12  N   UNL     1     -40.173  53.501 -51.811  1.00  0.00    -0.306 N 
HETATM   13  O   UNL     1     -42.152  53.866 -52.959  1.00  0.00    -0.247 OA
HETATM   14  H   UNL     1     -39.535  53.919 -51.144  1.00  0.00     0.171 HD
HETATM   15  O   UNL     1     -41.443  57.817 -52.008  1.00  0.00    -0.272 OA
BRANCH  12  16
HETATM   16  C   UNL     1     -39.949  52.123 -52.032  1.00  0.00     0.075 A 
HETATM   17  C   UNL     1     -39.960  51.150 -51.032  1.00  0.00     0.033 A 
HETATM   18  C   UNL     1     -39.764  49.802 -51.361  1.00  0.00     0.002 A 
HETATM   19  C   UNL     1     -39.552  49.417 -52.686  1.00  0.00     0.003 A 
HETATM   20  C   UNL     1     -39.539  50.381 -53.691  1.00  0.00     0.044 A 
HETATM   21  C   UNL     1     -39.740  51.716 -53.358  1.00  0.00     0.143 A 
HETATM   22  F   UNL     1     -39.735  52.640 -54.333  1.00  0.00    -0.204 F 
ENDBRANCH  12  16
ENDBRANCH   7   8
ENDBRANCH   6   7
ENDBRANCH   1   6
BRANCH   2  23
HETATM   23  C   UNL     1     -43.116  57.823 -58.040  1.00  0.00     0.043 A 
HETATM   24  C   UNL     1     -44.500  57.615 -58.126  1.00  0.00     0.033 A 
HETATM   25  C   UNL     1     -45.029  56.908 -59.207  1.00  0.00     0.044 A 
HETATM   26  C   UNL     1     -44.179  56.409 -60.186  1.00  0.00     0.116 A 
HETATM   27  F   UNL     1     -44.689  55.730 -61.221  1.00  0.00    -0.206 F 
HETATM   28  C   UNL     1     -42.804  56.599 -60.105  1.00  0.00     0.044 A 
HETATM   29  C   UNL     1     -42.266  57.307 -59.029  1.00  0.00     0.033 A 
ENDBRANCH   2  23
BRANCH   3  30
HETATM   30  C   UNL     1     -42.834  60.919 -57.888  1.00  0.00     0.315 C 
BRANCH  30  31
HETATM   31  N   UNL     1     -41.735  61.295 -58.877  1.00  0.00    -0.064 N 
HETATM   32  H   UNL     1     -41.190  60.424 -58.996  1.00  0.00     0.280 HD
HETATM   33  C   UNL     1     -42.296  61.633 -60.239  1.00  0.00     0.235 C 
HETATM   34  C   UNL     1     -41.157  61.877 -61.217  1.00  0.00     0.028 C 
HETATM   35  C   UNL     1     -40.203  62.953 -60.710  1.00  0.00     0.003 C 
HETATM   36  C   UNL     1     -39.683  62.609 -59.320  1.00  0.00     0.028 C 
HETATM   37  C   UNL     1     -40.819  62.357 -58.338  1.00  0.00     0.235 C 
ENDBRANCH  30  31
ENDBRANCH   3  30
TORSDOF 7
ENDMDL
MODEL 5
REMARK VINA RESULT:      -8.3      2.649      3.988
REMARK  7 active torsions:
REMARK  status: ('A' for Active; 'I' for Inactive)
REMARK    1  A    between atoms: C_3  and  N_4 
REMARK       I    between atoms: N_4  and  C_5 
REMARK       I    between atoms: C_5  and  N_6 
REMARK       I    between atoms: N_6  and  C_7 
REMARK    2  A    between atoms: C_7  and  C_8 
REMARK    3  A    between atoms: C_8  and  S_9 
REMARK    4  A    between atoms: S_9  and  C_10 
REMARK    5  A    between atoms: N_11  and  C_12 
REMARK    6  A    between atoms: C_19  and  C_20 
REMARK    7  A    between atoms: C_20  and  N_21 
ROOT
HETATM    1  C   UNL     1     -42.090  59.132 -54.454  1.00  0.00     0.196 A 
HETATM    2  N   UNL     1     -42.672  58.119 -55.195  1.00  0.00    -0.274 N 
HETATM    3  C   UNL     1     -43.440  58.795 -56.132  1.00  0.00     0.161 A 
HETATM    4  N   UNL     1     -43.298  60.097 -55.977  1.00  0.00    -0.132 NA
HETATM    5  N   UNL     1     -42.444  60.305 -54.931  1.00  0.00    -0.122 NA
ENDROOT
BRANCH   1   6
HETATM    6  S   UNL     1     -40.920  58.884 -53.204  1.00  0.00    -0.080 SA
BRANCH   6   7
HETATM    7  C   UNL     1     -41.989  58.481 -51.789  1.00  0.00     0.185 C 
BRANCH   7   8
HETATM    8  C   UNL     1     -41.194  58.306 -50.497  1.00  0.00     0.235 C 
HETATM    9  N   UNL     1     -40.744  57.041 -50.169  1.00  0.00    -0.278 N 
HETATM   10  C   UNL     1     -41.035  55.825 -50.771  1.00  0.00     0.327 C 
HETATM   11  H   UNL     1     -40.204  57.024 -49.319  1.00  0.00     0.173 HD
HETATM   12  N   UNL     1     -40.282  54.803 -50.235  1.00  0.00    -0.306 N 
HETATM   13  O   UNL     1     -41.854  55.712 -51.673  1.00  0.00    -0.247 OA
HETATM   14  H   UNL     1     -39.787  54.968 -49.367  1.00  0.00     0.171 HD
HETATM   15  O   UNL     1     -40.942  59.226 -49.713  1.00  0.00    -0.272 OA
BRANCH  12  16
HETATM   16  C   UNL     1     -40.175  53.475 -50.710  1.00  0.00     0.075 A 
HETATM   17  C   UNL     1     -39.844  53.130 -52.021  1.00  0.00     0.033 A 
HETATM   18  C   UNL     1     -39.726  51.782 -52.383  1.00  0.00     0.002 A 
HETATM   19  C   UNL     1     -39.942  50.772 -51.445  1.00  0.00     0.003 A 
HETATM   20  C   UNL     1     -40.273  51.106 -50.134  1.00  0.00     0.044 A 
HETATM   21  C   UNL     1     -40.382  52.447 -49.780  1.00  0.00     0.143 A 
HETATM   22  F   UNL     1     -40.693  52.764 -48.512  1.00  0.00    -0.204 F 
ENDBRANCH  12  16
ENDBRANCH   7   8
ENDBRANCH   6   7
ENDBRANCH   1   6
BRANCH   2  23
HETATM   23  C   UNL     1     -42.561  56.715 -55.040  1.00  0.00     0.043 A 
HETATM   24  C   UNL     1     -43.649  55.968 -54.565  1.00  0.00     0.033 A 
HETATM   25  C   UNL     1     -43.532  54.583 -54.431  1.00  0.00     0.044 A 
HETATM   26  C   UNL     1     -42.338  53.956 -54.761  1.00  0.00     0.116 A 
HETATM   27  F   UNL     1     -42.228  52.629 -54.630  1.00  0.00    -0.206 F 
HETATM   28  C   UNL     1     -41.249  54.689 -55.222  1.00  0.00     0.044 A 
HETATM   29  C   UNL     1     -41.356  56.073 -55.363  1.00  0.00     0.033 A 
ENDBRANCH   2  23
BRANCH   3  30
HETATM   30  C   UNL     1     -44.445  58.181 -57.038  1.00  0.00     0.315 C 
BRANCH  30  31
HETATM   31  N   UNL     1     -43.808  57.706 -58.340  1.00  0.00    -0.064 N 
HETATM   32  H   UNL     1     -44.499  57.955 -59.069  1.00  0.00     0.280 HD
HETATM   33  C   UNL     1     -42.551  58.480 -58.666  1.00  0.00     0.235 C 
HETATM   34  C   UNL     1     -42.027  58.056 -60.029  1.00  0.00     0.028 C 
HETATM   35  C   UNL     1     -41.803  56.551 -60.101  1.00  0.00     0.003 C 
HETATM   36  C   UNL     1     -43.071  55.793 -59.730  1.00  0.00     0.028 C 
HETATM   37  C   UNL     1     -43.605  56.217 -58.369  1.00  0.00     0.235 C 
ENDBRANCH  30  31
ENDBRANCH   3  30
TORSDOF 7
ENDMDL
MODEL 6
REMARK VINA RESULT:      -8.3      3.439      6.682
REMARK  7 active torsions:
REMARK  status: ('A' for Active; 'I' for Inactive)
REMARK    1  A    between atoms: C_3  and  N_4 
REMARK       I    between atoms: N_4  and  C_5 
REMARK       I    between atoms: C_5  and  N_6 
REMARK       I    between atoms: N_6  and  C_7 
REMARK    2  A    between atoms: C_7  and  C_8 
REMARK    3  A    between atoms: C_8  and  S_9 
REMARK    4  A    between atoms: S_9  and  C_10 
REMARK    5  A    between atoms: N_11  and  C_12 
REMARK    6  A    between atoms: C_19  and  C_20 
REMARK    7  A    between atoms: C_20  and  N_21 
ROOT
HETATM    1  C   UNL     1     -43.831  58.687 -53.811  1.00  0.00     0.196 A 
HETATM    2  N   UNL     1     -43.966  58.366 -52.473  1.00  0.00    -0.274 N 
HETATM    3  C   UNL     1     -45.109  59.051 -52.083  1.00  0.00     0.161 A 
HETATM    4  N   UNL     1     -45.622  59.694 -53.113  1.00  0.00    -0.132 NA
HETATM    5  N   UNL     1     -44.825  59.456 -54.197  1.00  0.00    -0.122 NA
ENDROOT
BRANCH   1   6
HETATM    6  S   UNL     1     -42.634  58.015 -54.864  1.00  0.00    -0.080 SA
BRANCH   6   7
HETATM    7  C   UNL     1     -43.406  56.433 -55.320  1.00  0.00     0.185 C 
BRANCH   7   8
HETATM    8  C   UNL     1     -42.599  55.681 -56.375  1.00  0.00     0.235 C 
HETATM    9  N   UNL     1     -41.760  54.664 -55.961  1.00  0.00    -0.278 N 
HETATM   10  C   UNL     1     -41.404  54.295 -54.672  1.00  0.00     0.327 C 
HETATM   11  H   UNL     1     -41.292  54.204 -56.724  1.00  0.00     0.173 HD
HETATM   12  N   UNL     1     -40.650  53.141 -54.666  1.00  0.00    -0.306 N 
HETATM   13  O   UNL     1     -41.745  54.930 -53.683  1.00  0.00    -0.247 OA
HETATM   14  H   UNL     1     -40.261  52.812 -55.541  1.00  0.00     0.171 HD
HETATM   15  O   UNL     1     -42.634  55.939 -57.583  1.00  0.00    -0.272 OA
BRANCH  12  16
HETATM   16  C   UNL     1     -40.263  52.374 -53.543  1.00  0.00     0.075 A 
HETATM   17  C   UNL     1     -40.240  52.849 -52.231  1.00  0.00     0.033 A 
HETATM   18  C   UNL     1     -39.876  51.996 -51.181  1.00  0.00     0.002 A 
HETATM   19  C   UNL     1     -39.530  50.668 -51.432  1.00  0.00     0.003 A 
HETATM   20  C   UNL     1     -39.550  50.184 -52.738  1.00  0.00     0.044 A 
HETATM   21  C   UNL     1     -39.917  51.035 -53.774  1.00  0.00     0.143 A 
HETATM   22  F   UNL     1     -39.943  50.560 -55.031  1.00  0.00    -0.204 F 
ENDBRANCH  12  16
ENDBRANCH   7   8
ENDBRANCH   6   7
ENDBRANCH   1   6
BRANCH   2  23
HETATM   23  C   UNL     1     -43.135  57.563 -51.652  1.00  0.00     0.043 A 
HETATM   24  C   UNL     1     -43.577  56.306 -51.214  1.00  0.00     0.033 A 
HETATM   25  C   UNL     1     -42.744  55.518 -50.419  1.00  0.00     0.044 A 
HETATM   26  C   UNL     1     -41.487  55.988 -50.059  1.00  0.00     0.116 A 
HETATM   27  F   UNL     1     -40.692  55.230 -49.294  1.00  0.00    -0.206 F 
HETATM   28  C   UNL     1     -41.044  57.238 -50.477  1.00  0.00     0.044 A 
HETATM   29  C   UNL     1     -41.868  58.032 -51.277  1.00  0.00     0.033 A 
ENDBRANCH   2  23
BRANCH   3  30
HETATM   30  C   UNL     1     -45.581  59.228 -50.685  1.00  0.00     0.315 C 
BRANCH  30  31
HETATM   31  N   UNL     1     -44.797  60.319 -49.963  1.00  0.00    -0.064 N 
HETATM   32  H   UNL     1     -43.992  59.822 -49.544  1.00  0.00     0.280 HD
HETATM   33  C   UNL     1     -44.216  61.326 -50.929  1.00  0.00     0.235 C 
HETATM   34  C   UNL     1     -43.344  62.317 -50.173  1.00  0.00     0.028 C 
HETATM   35  C   UNL     1     -44.111  62.990 -49.041  1.00  0.00     0.003 C 
HETATM   36  C   UNL     1     -44.720  61.954 -48.105  1.00  0.00     0.028 C 
HETATM   37  C   UNL     1     -45.589  60.956 -48.856  1.00  0.00     0.235 C 
ENDBRANCH  30  31
ENDBRANCH   3  30
TORSDOF 7
ENDMDL
MODEL 7
REMARK VINA RESULT:      -8.2      2.592      3.623
REMARK  7 active torsions:
REMARK  status: ('A' for Active; 'I' for Inactive)
REMARK    1  A    between atoms: C_3  and  N_4 
REMARK       I    between atoms: N_4  and  C_5 
REMARK       I    between atoms: C_5  and  N_6 
REMARK       I    between atoms: N_6  and  C_7 
REMARK    2  A    between atoms: C_7  and  C_8 
REMARK    3  A    between atoms: C_8  and  S_9 
REMARK    4  A    between atoms: S_9  and  C_10 
REMARK    5  A    between atoms: N_11  and  C_12 
REMARK    6  A    between atoms: C_19  and  C_20 
REMARK    7  A    between atoms: C_20  and  N_21 
ROOT
HETATM    1  C   UNL     1     -43.618  60.113 -54.191  1.00  0.00     0.196 A 
HETATM    2  N   UNL     1     -43.770  59.882 -55.546  1.00  0.00    -0.274 N 
HETATM    3  C   UNL     1     -42.467  59.745 -56.006  1.00  0.00     0.161 A 
HETATM    4  N   UNL     1     -41.621  59.853 -55.000  1.00  0.00    -0.132 NA
HETATM    5  N   UNL     1     -42.346  60.074 -53.863  1.00  0.00    -0.122 NA
ENDROOT
BRANCH   1   6
HETATM    6  S   UNL     1     -44.926  60.243 -53.066  1.00  0.00    -0.080 SA
BRANCH   6   7
HETATM    7  C   UNL     1     -44.242  59.374 -51.622  1.00  0.00     0.185 C 
BRANCH   7   8
HETATM    8  C   UNL     1     -45.163  58.260 -51.131  1.00  0.00     0.235 C 
HETATM    9  N   UNL     1     -44.772  56.949 -51.329  1.00  0.00    -0.278 N 
HETATM   10  C   UNL     1     -43.704  56.457 -52.065  1.00  0.00     0.327 C 
HETATM   11  H   UNL     1     -45.423  56.282 -50.948  1.00  0.00     0.173 HD
HETATM   12  N   UNL     1     -43.568  55.094 -51.909  1.00  0.00    -0.306 N 
HETATM   13  O   UNL     1     -42.984  57.173 -52.747  1.00  0.00    -0.247 OA
HETATM   14  H   UNL     1     -44.329  54.576 -51.487  1.00  0.00     0.171 HD
HETATM   15  O   UNL     1     -46.252  58.457 -50.581  1.00  0.00    -0.272 OA
BRANCH  12  16
HETATM   16  C   UNL     1     -42.500  54.282 -52.354  1.00  0.00     0.075 A 
HETATM   17  C   UNL     1     -41.469  53.815 -51.538  1.00  0.00     0.033 A 
HETATM   18  C   UNL     1     -40.475  52.982 -52.068  1.00  0.00     0.002 A 
HETATM   19  C   UNL     1     -40.500  52.614 -53.414  1.00  0.00     0.003 A 
HETATM   20  C   UNL     1     -41.525  53.075 -54.237  1.00  0.00     0.044 A 
HETATM   21  C   UNL     1     -42.511  53.896 -53.701  1.00  0.00     0.143 A 
HETATM   22  F   UNL     1     -43.502  54.330 -54.498  1.00  0.00    -0.204 F 
ENDBRANCH  12  16
ENDBRANCH   7   8
ENDBRANCH   6   7
ENDBRANCH   1   6
BRANCH   2  23
HETATM   23  C   UNL     1     -44.955  59.827 -56.322  1.00  0.00     0.043 A 
HETATM   24  C   UNL     1     -45.480  60.995 -56.893  1.00  0.00     0.033 A 
HETATM   25  C   UNL     1     -46.640  60.926 -57.668  1.00  0.00     0.044 A 
HETATM   26  C   UNL     1     -47.270  59.702 -57.859  1.00  0.00     0.116 A 
HETATM   27  F   UNL     1     -48.383  59.640 -58.600  1.00  0.00    -0.206 F 
HETATM   28  C   UNL     1     -46.764  58.540 -57.286  1.00  0.00     0.044 A 
HETATM   29  C   UNL     1     -45.603  58.598 -56.513  1.00  0.00     0.033 A 
ENDBRANCH   2  23
BRANCH   3  30
HETATM   30  C   UNL     1     -42.049  59.701 -57.431  1.00  0.00     0.315 C 
BRANCH  30  31
HETATM   31  N   UNL     1     -42.636  58.490 -58.149  1.00  0.00    -0.064 N 
HETATM   32  H   UNL     1     -43.656  58.664 -58.154  1.00  0.00     0.280 HD
HETATM   33  C   UNL     1     -42.210  58.433 -59.598  1.00  0.00     0.235 C 
HETATM   34  C   UNL     1     -42.919  57.283 -60.296  1.00  0.00     0.028 C 
HETATM   35  C   UNL     1     -42.681  55.959 -59.581  1.00  0.00     0.003 C 
HETATM   36  C   UNL     1     -43.080  56.053 -58.113  1.00  0.00     0.028 C 
HETATM   37  C   UNL     1     -42.379  57.206 -57.410  1.00  0.00     0.235 C 
ENDBRANCH  30  31
ENDBRANCH   3  30
TORSDOF 7
ENDMDL
MODEL 8
REMARK VINA RESULT:      -8.2      4.175      8.641
REMARK  7 active torsions:
REMARK  status: ('A' for Active; 'I' for Inactive)
REMARK    1  A    between atoms: C_3  and  N_4 
REMARK       I    between atoms: N_4  and  C_5 
REMARK       I    between atoms: C_5  and  N_6 
REMARK       I    between atoms: N_6  and  C_7 
REMARK    2  A    between atoms: C_7  and  C_8 
REMARK    3  A    between atoms: C_8  and  S_9 
REMARK    4  A    between atoms: S_9  and  C_10 
REMARK    5  A    between atoms: N_11  and  C_12 
REMARK    6  A    between atoms: C_19  and  C_20 
REMARK    7  A    between atoms: C_20  and  N_21 
ROOT
HETATM    1  C   UNL     1     -42.758  55.732 -51.058  1.00  0.00     0.196 A 
HETATM    2  N   UNL     1     -42.042  55.104 -52.061  1.00  0.00    -0.274 N 
HETATM    3  C   UNL     1     -41.031  54.440 -51.379  1.00  0.00     0.161 A 
HETATM    4  N   UNL     1     -41.161  54.634 -50.081  1.00  0.00    -0.132 NA
HETATM    5  N   UNL     1     -42.250  55.436 -49.883  1.00  0.00    -0.122 NA
ENDROOT
BRANCH   1   6
HETATM    6  S   UNL     1     -44.221  56.621 -51.308  1.00  0.00    -0.080 SA
BRANCH   6   7
HETATM    7  C   UNL     1     -43.592  58.123 -52.119  1.00  0.00     0.185 C 
BRANCH   7   8
HETATM    8  C   UNL     1     -42.424  58.743 -51.357  1.00  0.00     0.235 C 
HETATM    9  N   UNL     1     -42.702  59.636 -50.340  1.00  0.00    -0.278 N 
HETATM   10  C   UNL     1     -43.917  60.200 -49.979  1.00  0.00     0.327 C 
HETATM   11  H   UNL     1     -41.875  59.971 -49.873  1.00  0.00     0.173 HD
HETATM   12  N   UNL     1     -43.807  60.942 -48.823  1.00  0.00    -0.306 N 
HETATM   13  O   UNL     1     -44.944  60.028 -50.623  1.00  0.00    -0.247 OA
HETATM   14  H   UNL     1     -42.882  61.181 -48.486  1.00  0.00     0.171 HD
HETATM   15  O   UNL     1     -41.236  58.509 -51.606  1.00  0.00    -0.272 OA
BRANCH  12  16
HETATM   16  C   UNL     1     -44.857  61.508 -48.063  1.00  0.00     0.075 A 
HETATM   17  C   UNL     1     -45.730  60.779 -47.256  1.00  0.00     0.033 A 
HETATM   18  C   UNL     1     -46.716  61.439 -46.511  1.00  0.00     0.002 A 
HETATM   19  C   UNL     1     -46.839  62.828 -46.570  1.00  0.00     0.003 A 
HETATM   20  C   UNL     1     -45.972  63.565 -47.372  1.00  0.00     0.044 A 
HETATM   21  C   UNL     1     -44.993  62.903 -48.104  1.00  0.00     0.143 A 
HETATM   22  F   UNL     1     -44.153  63.620 -48.869  1.00  0.00    -0.204 F 
ENDBRANCH  12  16
ENDBRANCH   7   8
ENDBRANCH   6   7
ENDBRANCH   1   6
BRANCH   2  23
HETATM   23  C   UNL     1     -42.240  55.137 -53.464  1.00  0.00     0.043 A 
HETATM   24  C   UNL     1     -43.070  54.192 -54.083  1.00  0.00     0.033 A 
HETATM   25  C   UNL     1     -43.269  54.243 -55.463  1.00  0.00     0.044 A 
HETATM   26  C   UNL     1     -42.637  55.225 -56.216  1.00  0.00     0.116 A 
HETATM   27  F   UNL     1     -42.828  55.271 -57.539  1.00  0.00    -0.206 F 
HETATM   28  C   UNL     1     -41.802  56.160 -55.614  1.00  0.00     0.044 A 
HETATM   29  C   UNL     1     -41.599  56.119 -54.233  1.00  0.00     0.033 A 
ENDBRANCH   2  23
BRANCH   3  30
HETATM   30  C   UNL     1     -39.849  53.786 -51.998  1.00  0.00     0.315 C 
BRANCH  30  31
HETATM   31  N   UNL     1     -40.163  52.358 -52.430  1.00  0.00    -0.064 N 
HETATM   32  H   UNL     1     -41.167  52.239 -52.212  1.00  0.00     0.280 HD
HETATM   33  C   UNL     1     -40.031  52.180 -53.925  1.00  0.00     0.235 C 
HETATM   34  C   UNL     1     -40.473  50.779 -54.316  1.00  0.00     0.028 C 
HETATM   35  C   UNL     1     -39.704  49.712 -53.547  1.00  0.00     0.003 C 
HETATM   36  C   UNL     1     -39.819  49.936 -52.044  1.00  0.00     0.028 C 
HETATM   37  C   UNL     1     -39.383  51.339 -51.647  1.00  0.00     0.235 C 
ENDBRANCH  30  31
ENDBRANCH   3  30
TORSDOF 7
ENDMDL
MODEL 9
REMARK VINA RESULT:      -8.1      3.539      6.333
REMARK  7 active torsions:
REMARK  status: ('A' for Active; 'I' for Inactive)
REMARK    1  A    between atoms: C_3  and  N_4 
REMARK       I    between atoms: N_4  and  C_5 
REMARK       I    between atoms: C_5  and  N_6 
REMARK       I    between atoms: N_6  and  C_7 
REMARK    2  A    between atoms: C_7  and  C_8 
REMARK    3  A    between atoms: C_8  and  S_9 
REMARK    4  A    between atoms: S_9  and  C_10 
REMARK    5  A    between atoms: N_11  and  C_12 
REMARK    6  A    between atoms: C_19  and  C_20 
REMARK    7  A    between atoms: C_20  and  N_21 
ROOT
HETATM    1  C   UNL     1     -44.906  58.839 -57.992  1.00  0.00     0.196 A 
HETATM    2  N   UNL     1     -44.132  59.675 -57.208  1.00  0.00    -0.274 N 
HETATM    3  C   UNL     1     -44.478  59.324 -55.910  1.00  0.00     0.161 A 
HETATM    4  N   UNL     1     -45.357  58.341 -55.928  1.00  0.00    -0.132 NA
HETATM    5  N   UNL     1     -45.615  58.033 -57.234  1.00  0.00    -0.122 NA
ENDROOT
BRANCH   1   6
HETATM    6  S   UNL     1     -44.807  58.743 -59.716  1.00  0.00    -0.080 SA
BRANCH   6   7
HETATM    7  C   UNL     1     -43.422  57.584 -59.931  1.00  0.00     0.185 C 
BRANCH   7   8
HETATM    8  C   UNL     1     -43.880  56.128 -59.903  1.00  0.00     0.235 C 
HETATM    9  N   UNL     1     -43.722  55.411 -58.732  1.00  0.00    -0.278 N 
HETATM   10  C   UNL     1     -43.051  55.769 -57.572  1.00  0.00     0.327 C 
HETATM   11  H   UNL     1     -44.078  54.471 -58.795  1.00  0.00     0.173 HD
HETATM   12  N   UNL     1     -43.233  54.835 -56.574  1.00  0.00    -0.306 N 
HETATM   13  O   UNL     1     -42.397  56.798 -57.476  1.00  0.00    -0.247 OA
HETATM   14  H   UNL     1     -43.622  53.932 -56.819  1.00  0.00     0.171 HD
HETATM   15  O   UNL     1     -44.369  55.541 -60.874  1.00  0.00    -0.272 OA
BRANCH  12  16
HETATM   16  C   UNL     1     -42.857  54.946 -55.216  1.00  0.00     0.075 A 
HETATM   17  C   UNL     1     -43.688  55.425 -54.202  1.00  0.00     0.033 A 
HETATM   18  C   UNL     1     -43.232  55.459 -52.878  1.00  0.00     0.002 A 
HETATM   19  C   UNL     1     -41.946  55.023 -52.557  1.00  0.00     0.003 A 
HETATM   20  C   UNL     1     -41.108  54.544 -53.562  1.00  0.00     0.044 A 
HETATM   21  C   UNL     1     -41.571  54.507 -54.873  1.00  0.00     0.143 A 
HETATM   22  F   UNL     1     -40.762  54.035 -55.837  1.00  0.00    -0.204 F 
ENDBRANCH  12  16
ENDBRANCH   7   8
ENDBRANCH   6   7
ENDBRANCH   1   6
BRANCH   2  23
HETATM   23  C   UNL     1     -43.220  60.686 -57.600  1.00  0.00     0.043 A 
HETATM   24  C   UNL     1     -41.873  60.372 -57.831  1.00  0.00     0.033 A 
HETATM   25  C   UNL     1     -40.987  61.374 -58.231  1.00  0.00     0.044 A 
HETATM   26  C   UNL     1     -41.445  62.677 -58.388  1.00  0.00     0.116 A 
HETATM   27  F   UNL     1     -40.592  63.636 -58.770  1.00  0.00    -0.206 F 
HETATM   28  C   UNL     1     -42.776  63.002 -58.151  1.00  0.00     0.044 A 
HETATM   29  C   UNL     1     -43.670  62.006 -57.754  1.00  0.00     0.033 A 
ENDBRANCH   2  23
BRANCH   3  30
HETATM   30  C   UNL     1     -44.100  60.066 -54.679  1.00  0.00     0.315 C 
BRANCH  30  31
HETATM   31  N   UNL     1     -43.148  59.253 -53.806  1.00  0.00    -0.064 N 
HETATM   32  H   UNL     1     -43.481  58.279 -53.904  1.00  0.00     0.280 HD
HETATM   33  C   UNL     1     -41.736  59.275 -54.343  1.00  0.00     0.235 C 
HETATM   34  C   UNL     1     -40.858  58.353 -53.511  1.00  0.00     0.028 C 
HETATM   35  C   UNL     1     -40.910  58.712 -52.031  1.00  0.00     0.003 C 
HETATM   36  C   UNL     1     -42.347  58.723 -51.524  1.00  0.00     0.028 C 
HETATM   37  C   UNL     1     -43.232  59.639 -52.356  1.00  0.00     0.235 C 
ENDBRANCH  30  31
ENDBRANCH   3  30
TORSDOF 7
ENDMDL
MODEL 10
REMARK VINA RESULT:      -8.1      3.330      7.444
REMARK  7 active torsions:
REMARK  status: ('A' for Active; 'I' for Inactive)
REMARK    1  A    between atoms: C_3  and  N_4 
REMARK       I    between atoms: N_4  and  C_5 
REMARK       I    between atoms: C_5  and  N_6 
REMARK       I    between atoms: N_6  and  C_7 
REMARK    2  A    between atoms: C_7  and  C_8 
REMARK    3  A    between atoms: C_8  and  S_9 
REMARK    4  A    between atoms: S_9  and  C_10 
REMARK    5  A    between atoms: N_11  and  C_12 
REMARK    6  A    between atoms: C_19  and  C_20 
REMARK    7  A    between atoms: C_20  and  N_21 
ROOT
HETATM    1  C   UNL     1     -43.937  58.940 -54.056  1.00  0.00     0.196 A 
HETATM    2  N   UNL     1     -43.108  58.152 -53.279  1.00  0.00    -0.274 N 
HETATM    3  C   UNL     1     -43.657  56.882 -53.394  1.00  0.00     0.161 A 
HETATM    4  N   UNL     1     -44.702  56.913 -54.198  1.00  0.00    -0.132 NA
HETATM    5  N   UNL     1     -44.869  58.203 -54.619  1.00  0.00    -0.122 NA
ENDROOT
BRANCH   1   6
HETATM    6  S   UNL     1     -43.668  60.616 -54.388  1.00  0.00    -0.080 SA
BRANCH   6   7
HETATM    7  C   UNL     1     -42.379  60.524 -55.668  1.00  0.00     0.185 C 
BRANCH   7   8
HETATM    8  C   UNL     1     -42.805  61.211 -56.964  1.00  0.00     0.235 C 
HETATM    9  N   UNL     1     -43.277  60.428 -57.999  1.00  0.00    -0.278 N 
HETATM   10  C   UNL     1     -43.291  59.045 -58.113  1.00  0.00     0.327 C 
HETATM   11  H   UNL     1     -43.563  60.965 -58.801  1.00  0.00     0.173 HD
HETATM   12  N   UNL     1     -43.970  58.637 -59.241  1.00  0.00    -0.306 N 
HETATM   13  O   UNL     1     -42.766  58.307 -57.290  1.00  0.00    -0.247 OA
HETATM   14  H   UNL     1     -44.189  59.326 -59.951  1.00  0.00     0.171 HD
HETATM   15  O   UNL     1     -42.734  62.430 -57.152  1.00  0.00    -0.272 OA
BRANCH  12  16
HETATM   16  C   UNL     1     -44.342  57.318 -59.590  1.00  0.00     0.075 A 
HETATM   17  C   UNL     1     -43.474  56.226 -59.587  1.00  0.00     0.033 A 
HETATM   18  C   UNL     1     -43.950  54.949 -59.912  1.00  0.00     0.002 A 
HETATM   19  C   UNL     1     -45.291  54.755 -60.247  1.00  0.00     0.003 A 
HETATM   20  C   UNL     1     -46.165  55.839 -60.254  1.00  0.00     0.044 A 
HETATM   21  C   UNL     1     -45.686  57.102 -59.923  1.00  0.00     0.143 A 
HETATM   22  F   UNL     1     -46.536  58.142 -59.922  1.00  0.00    -0.204 F 
ENDBRANCH  12  16
ENDBRANCH   7   8
ENDBRANCH   6   7
ENDBRANCH   1   6
BRANCH   2  23
HETATM   23  C   UNL     1     -41.980  58.523 -52.506  1.00  0.00     0.043 A 
HETATM   24  C   UNL     1     -40.699  58.519 -53.077  1.00  0.00     0.033 A 
HETATM   25  C   UNL     1     -39.597  58.901 -52.310  1.00  0.00     0.044 A 
HETATM   26  C   UNL     1     -39.776  59.272 -50.983  1.00  0.00     0.116 A 
HETATM   27  F   UNL     1     -38.717  59.636 -50.249  1.00  0.00    -0.206 F 
HETATM   28  C   UNL     1     -41.040  59.268 -50.403  1.00  0.00     0.044 A 
HETATM   29  C   UNL     1     -42.149  58.891 -51.163  1.00  0.00     0.033 A 
ENDBRANCH   2  23
BRANCH   3  30
HETATM   30  C   UNL     1     -43.281  55.696 -52.580  1.00  0.00     0.315 C 
BRANCH  30  31
HETATM   31  N   UNL     1     -42.012  55.035 -53.109  1.00  0.00    -0.064 N 
HETATM   32  H   UNL     1     -41.257  55.697 -52.861  1.00  0.00     0.280 HD
HETATM   33  C   UNL     1     -41.703  53.748 -52.379  1.00  0.00     0.235 C 
HETATM   34  C   UNL     1     -40.368  53.196 -52.856  1.00  0.00     0.028 C 
HETATM   35  C   UNL     1     -40.344  53.013 -54.369  1.00  0.00     0.003 C 
HETATM   36  C   UNL     1     -40.698  54.313 -55.080  1.00  0.00     0.028 C 
HETATM   37  C   UNL     1     -42.030  54.873 -54.603  1.00  0.00     0.235 C 
ENDBRANCH  30  31
ENDBRANCH   3  30
TORSDOF 7
ENDMDL
