MODEL 1
REMARK VINA RESULT:      -8.4      0.000      0.000
REMARK  7 active torsions:
REMARK  status: ('A' for Active; 'I' for Inactive)
REMARK    1  A    between atoms: C_4  and  C_5 
REMARK    2  A    between atoms: C_5  and  N_6 
REMARK       I    between atoms: N_6  and  C_7 
REMARK    3  A    between atoms: N_6  and  C_18 
REMARK       I    between atoms: C_7  and  N_8 
REMARK    4  A    between atoms: N_8  and  C_9 
REMARK    5  A    between atoms: C_10  and  O_11 
REMARK    6  A    between atoms: N_21  and  C_23 
REMARK    7  A    between atoms: C_23  and  C_24 
ROOT
HETATM    1  N   UNL     1     -42.468  55.856 -53.414  1.00  0.00    -0.323 N 
HETATM    2  C   UNL     1     -42.168  54.553 -52.948  1.00  0.00     0.323 C 
HETATM    3  N   UNL     1     -41.137  53.912 -53.595  1.00  0.00    -0.306 N 
HETATM    4  O   UNL     1     -42.814  54.097 -52.010  1.00  0.00    -0.247 OA
HETATM    5  H   UNL     1     -40.586  54.445 -54.240  1.00  0.00     0.171 HD
ENDROOT
BRANCH   1   6
HETATM    6  C   UNL     1     -41.644  56.580 -54.389  1.00  0.00     0.193 C 
BRANCH   6   7
HETATM    7  C   UNL     1     -42.184  56.415 -55.759  1.00  0.00     0.071 A 
HETATM    8  O   UNL     1     -42.245  57.546 -56.521  1.00  0.00    -0.318 OA
HETATM    9  C   UNL     1     -42.778  57.189 -57.724  1.00  0.00     0.049 A 
HETATM   10  C   UNL     1     -42.962  58.264 -58.721  1.00  0.00     0.076 C 
HETATM   11  C   UNL     1     -43.051  55.840 -57.740  1.00  0.00     0.035 A 
HETATM   12  C   UNL     1     -42.670  55.339 -56.472  1.00  0.00     0.037 A 
ENDBRANCH   6   7
ENDBRANCH   1   6
BRANCH   1  13
HETATM   13  C   UNL     1     -43.713  56.465 -52.855  1.00  0.00     0.092 C 
HETATM   14  C   UNL     1     -44.391  57.611 -53.620  1.00  0.00     0.053 C 
HETATM   15  C   UNL     1     -43.781  58.993 -53.426  1.00  0.00     0.237 C 
HETATM   16  N   UNL     1     -43.516  59.289 -51.967  1.00  0.00    -0.067 N 
HETATM   17  H   UNL     1     -44.432  59.429 -51.524  1.00  0.00     0.280 HD
HETATM   18  C   UNL     1     -42.807  58.174 -51.233  1.00  0.00     0.237 C 
HETATM   19  C   UNL     1     -43.559  56.872 -51.382  1.00  0.00     0.053 C 
BRANCH  16  20
HETATM   20  C   UNL     1     -42.748  60.588 -51.760  1.00  0.00     0.273 C 
BRANCH  20  21
HETATM   21  C   UNL     1     -43.316  61.504 -50.715  1.00  0.00    -0.033 A 
HETATM   22  C   UNL     1     -44.271  61.047 -49.795  1.00  0.00     0.009 A 
HETATM   23  C   UNL     1     -44.788  61.912 -48.830  1.00  0.00     0.001 A 
HETATM   24  C   UNL     1     -44.362  63.239 -48.778  1.00  0.00     0.000 A 
HETATM   25  C   UNL     1     -43.417  63.705 -49.687  1.00  0.00     0.001 A 
HETATM   26  C   UNL     1     -42.895  62.844 -50.651  1.00  0.00     0.009 A 
ENDBRANCH  20  21
ENDBRANCH  16  20
ENDBRANCH   1  13
BRANCH   3  27
HETATM   27  C   UNL     1     -40.610  52.609 -53.389  1.00  0.00     0.069 A 
HETATM   28  C   UNL     1     -39.885  52.147 -52.282  1.00  0.00     0.095 A 
HETATM   29  C   UNL     1     -39.378  50.838 -52.258  1.00  0.00     0.039 A 
HETATM   30  C   UNL     1     -39.633  49.957 -53.304  1.00  0.00     0.003 A 
HETATM   31  C   UNL     1     -40.397  50.381 -54.384  1.00  0.00     0.002 A 
HETATM   32  C   UNL     1     -40.881  51.692 -54.424  1.00  0.00     0.032 A 
BRANCH  28  33
HETATM   33  O   UNL     1     -39.628  52.895 -51.169  1.00  0.00    -0.354 OA
HETATM   34  C   UNL     1     -40.421  52.445 -50.072  1.00  0.00     0.210 C 
ENDBRANCH  28  33
ENDBRANCH   3  27
TORSDOF 7
ENDMDL
MODEL 2
REMARK VINA RESULT:      -8.4      2.499      8.895
REMARK  7 active torsions:
REMARK  status: ('A' for Active; 'I' for Inactive)
REMARK    1  A    between atoms: C_4  and  C_5 
REMARK    2  A    between atoms: C_5  and  N_6 
REMARK       I    between atoms: N_6  and  C_7 
REMARK    3  A    between atoms: N_6  and  C_18 
REMARK       I    between atoms: C_7  and  N_8 
REMARK    4  A    between atoms: N_8  and  C_9 
REMARK    5  A    between atoms: C_10  and  O_11 
REMARK    6  A    between atoms: N_21  and  C_23 
REMARK    7  A    between atoms: C_23  and  C_24 
ROOT
HETATM    1  N   UNL     1     -43.230  57.338 -54.682  1.00  0.00    -0.323 N 
HETATM    2  C   UNL     1     -44.444  58.050 -54.525  1.00  0.00     0.323 C 
HETATM    3  N   UNL     1     -44.338  59.287 -53.932  1.00  0.00    -0.306 N 
HETATM    4  O   UNL     1     -45.484  57.543 -54.934  1.00  0.00    -0.247 OA
HETATM    5  H   UNL     1     -43.418  59.657 -53.784  1.00  0.00     0.171 HD
ENDROOT
BRANCH   1   6
HETATM    6  C   UNL     1     -41.909  57.919 -54.415  1.00  0.00     0.193 C 
BRANCH   6   7
HETATM    7  C   UNL     1     -41.684  58.065 -52.958  1.00  0.00     0.071 A 
HETATM    8  O   UNL     1     -41.936  59.299 -52.431  1.00  0.00    -0.318 OA
HETATM    9  C   UNL     1     -41.657  59.229 -51.099  1.00  0.00     0.049 A 
HETATM   10  C   UNL     1     -41.838  60.466 -50.310  1.00  0.00     0.076 C 
HETATM   11  C   UNL     1     -41.236  57.960 -50.768  1.00  0.00     0.035 A 
HETATM   12  C   UNL     1     -41.252  57.208 -51.967  1.00  0.00     0.037 A 
ENDBRANCH   6   7
ENDBRANCH   1   6
BRANCH   1  13
HETATM   13  C   UNL     1     -43.372  55.921 -55.132  1.00  0.00     0.092 C 
HETATM   14  C   UNL     1     -43.798  54.854 -54.113  1.00  0.00     0.053 C 
HETATM   15  C   UNL     1     -42.695  54.321 -53.209  1.00  0.00     0.237 C 
HETATM   16  N   UNL     1     -41.448  53.974 -53.989  1.00  0.00    -0.067 N 
HETATM   17  H   UNL     1     -41.665  53.129 -54.531  1.00  0.00     0.280 HD
HETATM   18  C   UNL     1     -41.010  55.049 -54.957  1.00  0.00     0.237 C 
HETATM   19  C   UNL     1     -42.138  55.418 -55.893  1.00  0.00     0.053 C 
BRANCH  16  20
HETATM   20  C   UNL     1     -40.275  53.605 -53.092  1.00  0.00     0.273 C 
BRANCH  20  21
HETATM   21  C   UNL     1     -40.029  52.132 -52.937  1.00  0.00    -0.033 A 
HETATM   22  C   UNL     1     -39.750  51.574 -51.681  1.00  0.00     0.009 A 
HETATM   23  C   UNL     1     -39.525  50.202 -51.556  1.00  0.00     0.001 A 
HETATM   24  C   UNL     1     -39.571  49.379 -52.679  1.00  0.00     0.000 A 
HETATM   25  C   UNL     1     -39.844  49.922 -53.932  1.00  0.00     0.001 A 
HETATM   26  C   UNL     1     -40.073  51.290 -54.062  1.00  0.00     0.009 A 
ENDBRANCH  20  21
ENDBRANCH  16  20
ENDBRANCH   1  13
BRANCH   3  27
HETATM   27  C   UNL     1     -45.352  60.229 -53.614  1.00  0.00     0.069 A 
HETATM   28  C   UNL     1     -46.098  60.313 -52.430  1.00  0.00     0.095 A 
HETATM   29  C   UNL     1     -47.114  61.272 -52.295  1.00  0.00     0.039 A 
HETATM   30  C   UNL     1     -47.361  62.194 -53.308  1.00  0.00     0.003 A 
HETATM   31  C   UNL     1     -46.595  62.161 -54.466  1.00  0.00     0.002 A 
HETATM   32  C   UNL     1     -45.600  61.190 -54.615  1.00  0.00     0.032 A 
BRANCH  28  33
HETATM   33  O   UNL     1     -45.902  59.510 -51.344  1.00  0.00    -0.354 OA
HETATM   34  C   UNL     1     -45.544  60.290 -50.205  1.00  0.00     0.210 C 
ENDBRANCH  28  33
ENDBRANCH   3  27
TORSDOF 7
ENDMDL
MODEL 3
REMARK VINA RESULT:      -8.3      3.126      9.258
REMARK  7 active torsions:
REMARK  status: ('A' for Active; 'I' for Inactive)
REMARK    1  A    between atoms: C_4  and  C_5 
REMARK    2  A    between atoms: C_5  and  N_6 
REMARK       I    between atoms: N_6  and  C_7 
REMARK    3  A    between atoms: N_6  and  C_18 
REMARK       I    between atoms: C_7  and  N_8 
REMARK    4  A    between atoms: N_8  and  C_9 
REMARK    5  A    between atoms: C_10  and  O_11 
REMARK    6  A    between atoms: N_21  and  C_23 
REMARK    7  A    between atoms: C_23  and  C_24 
ROOT
HETATM    1  N   UNL     1     -44.339  58.909 -50.933  1.00  0.00    -0.323 N 
HETATM    2  C   UNL     1     -45.316  59.389 -50.027  1.00  0.00     0.323 C 
HETATM    3  N   UNL     1     -44.901  60.389 -49.178  1.00  0.00    -0.306 N 
HETATM    4  O   UNL     1     -46.446  58.913 -50.068  1.00  0.00    -0.247 OA
HETATM    5  H   UNL     1     -44.003  60.801 -49.345  1.00  0.00     0.171 HD
ENDROOT
BRANCH   1   6
HETATM    6  C   UNL     1     -43.023  59.531 -51.112  1.00  0.00     0.193 C 
BRANCH   6   7
HETATM    7  C   UNL     1     -43.160  60.909 -51.640  1.00  0.00     0.071 A 
HETATM    8  O   UNL     1     -43.002  61.918 -50.735  1.00  0.00    -0.318 OA
HETATM    9  C   UNL     1     -43.179  63.090 -51.408  1.00  0.00     0.049 A 
HETATM   10  C   UNL     1     -43.073  64.338 -50.623  1.00  0.00     0.076 C 
HETATM   11  C   UNL     1     -43.442  62.839 -52.737  1.00  0.00     0.035 A 
HETATM   12  C   UNL     1     -43.431  61.432 -52.888  1.00  0.00     0.037 A 
ENDBRANCH   6   7
ENDBRANCH   1   6
BRANCH   1  13
HETATM   13  C   UNL     1     -44.728  57.691 -51.706  1.00  0.00     0.092 C 
HETATM   14  C   UNL     1     -44.363  56.307 -51.150  1.00  0.00     0.053 C 
HETATM   15  C   UNL     1     -42.932  55.848 -51.394  1.00  0.00     0.237 C 
HETATM   16  N   UNL     1     -42.507  56.076 -52.827  1.00  0.00    -0.067 N 
HETATM   17  H   UNL     1     -43.018  55.392 -53.398  1.00  0.00     0.280 HD
HETATM   18  C   UNL     1     -42.828  57.455 -53.351  1.00  0.00     0.237 C 
HETATM   19  C   UNL     1     -44.297  57.766 -53.178  1.00  0.00     0.053 C 
BRANCH  16  20
HETATM   20  C   UNL     1     -41.029  55.788 -53.055  1.00  0.00     0.273 C 
BRANCH  20  21
HETATM   21  C   UNL     1     -40.668  54.333 -53.138  1.00  0.00    -0.033 A 
HETATM   22  C   UNL     1     -40.289  53.616 -51.994  1.00  0.00     0.009 A 
HETATM   23  C   UNL     1     -39.957  52.264 -52.090  1.00  0.00     0.001 A 
HETATM   24  C   UNL     1     -39.995  51.619 -53.325  1.00  0.00     0.000 A 
HETATM   25  C   UNL     1     -40.366  52.321 -54.468  1.00  0.00     0.001 A 
HETATM   26  C   UNL     1     -40.702  53.670 -54.377  1.00  0.00     0.009 A 
ENDBRANCH  20  21
ENDBRANCH  16  20
ENDBRANCH   1  13
BRANCH   3  27
HETATM   27  C   UNL     1     -45.617  61.061 -48.152  1.00  0.00     0.069 A 
HETATM   28  C   UNL     1     -46.337  60.486 -47.095  1.00  0.00     0.095 A 
HETATM   29  C   UNL     1     -47.045  61.294 -46.192  1.00  0.00     0.039 A 
HETATM   30  C   UNL     1     -47.000  62.681 -46.293  1.00  0.00     0.003 A 
HETATM   31  C   UNL     1     -46.247  63.270 -47.300  1.00  0.00     0.002 A 
HETATM   32  C   UNL     1     -45.561  62.468 -48.218  1.00  0.00     0.032 A 
BRANCH  28  33
HETATM   33  O   UNL     1     -46.401  59.144 -46.855  1.00  0.00    -0.354 OA
HETATM   34  C   UNL     1     -47.164  58.885 -45.677  1.00  0.00     0.210 C 
ENDBRANCH  28  33
ENDBRANCH   3  27
TORSDOF 7
ENDMDL
MODEL 4
REMARK VINA RESULT:      -8.2      2.498      6.541
REMARK  7 active torsions:
REMARK  status: ('A' for Active; 'I' for Inactive)
REMARK    1  A    between atoms: C_4  and  C_5 
REMARK    2  A    between atoms: C_5  and  N_6 
REMARK       I    between atoms: N_6  and  C_7 
REMARK    3  A    between atoms: N_6  and  C_18 
REMARK       I    between atoms: C_7  and  N_8 
REMARK    4  A    between atoms: N_8  and  C_9 
REMARK    5  A    between atoms: C_10  and  O_11 
REMARK    6  A    between atoms: N_21  and  C_23 
REMARK    7  A    between atoms: C_23  and  C_24 
ROOT
HETATM    1  N   UNL     1     -42.240  57.577 -53.596  1.00  0.00    -0.323 N 
HETATM    2  C   UNL     1     -42.219  56.176 -53.391  1.00  0.00     0.323 C 
HETATM    3  N   UNL     1     -40.971  55.604 -53.305  1.00  0.00    -0.306 N 
HETATM    4  O   UNL     1     -43.285  55.578 -53.287  1.00  0.00    -0.247 OA
HETATM    5  H   UNL     1     -40.180  56.216 -53.250  1.00  0.00     0.171 HD
ENDROOT
BRANCH   1   6
HETATM    6  C   UNL     1     -41.042  58.423 -53.540  1.00  0.00     0.193 C 
BRANCH   6   7
HETATM    7  C   UNL     1     -40.791  58.888 -52.156  1.00  0.00     0.071 A 
HETATM    8  O   UNL     1     -39.497  59.198 -51.851  1.00  0.00    -0.318 OA
HETATM    9  C   UNL     1     -39.476  59.585 -50.544  1.00  0.00     0.049 A 
HETATM   10  C   UNL     1     -38.163  59.954 -49.975  1.00  0.00     0.076 C 
HETATM   11  C   UNL     1     -40.746  59.533 -50.014  1.00  0.00     0.035 A 
HETATM   12  C   UNL     1     -41.595  59.082 -51.052  1.00  0.00     0.037 A 
ENDBRANCH   6   7
ENDBRANCH   1   6
BRANCH   1  13
HETATM   13  C   UNL     1     -43.582  58.161 -53.896  1.00  0.00     0.092 C 
HETATM   14  C   UNL     1     -44.612  57.311 -54.654  1.00  0.00     0.053 C 
HETATM   15  C   UNL     1     -44.443  57.253 -56.165  1.00  0.00     0.237 C 
HETATM   16  N   UNL     1     -44.210  58.625 -56.757  1.00  0.00    -0.067 N 
HETATM   17  H   UNL     1     -45.104  59.129 -56.692  1.00  0.00     0.280 HD
HETATM   18  C   UNL     1     -43.162  59.437 -56.032  1.00  0.00     0.237 C 
HETATM   19  C   UNL     1     -43.489  59.541 -54.560  1.00  0.00     0.053 C 
BRANCH  16  20
HETATM   20  C   UNL     1     -43.865  58.576 -58.239  1.00  0.00     0.273 C 
BRANCH  20  21
HETATM   21  C   UNL     1     -44.363  57.363 -58.970  1.00  0.00    -0.033 A 
HETATM   22  C   UNL     1     -43.507  56.287 -59.251  1.00  0.00     0.009 A 
HETATM   23  C   UNL     1     -43.987  55.167 -59.931  1.00  0.00     0.001 A 
HETATM   24  C   UNL     1     -45.318  55.112 -60.340  1.00  0.00     0.000 A 
HETATM   25  C   UNL     1     -46.176  56.174 -60.070  1.00  0.00     0.001 A 
HETATM   26  C   UNL     1     -45.703  57.294 -59.388  1.00  0.00     0.009 A 
ENDBRANCH  20  21
ENDBRANCH  16  20
ENDBRANCH   1  13
BRANCH   3  27
HETATM   27  C   UNL     1     -40.609  54.242 -53.127  1.00  0.00     0.069 A 
HETATM   28  C   UNL     1     -40.253  53.602 -51.933  1.00  0.00     0.095 A 
HETATM   29  C   UNL     1     -39.860  52.255 -51.935  1.00  0.00     0.039 A 
HETATM   30  C   UNL     1     -39.872  51.513 -53.113  1.00  0.00     0.003 A 
HETATM   31  C   UNL     1     -40.275  52.116 -54.297  1.00  0.00     0.002 A 
HETATM   32  C   UNL     1     -40.642  53.465 -54.303  1.00  0.00     0.032 A 
BRANCH  28  33
HETATM   33  O   UNL     1     -40.267  54.205 -50.708  1.00  0.00    -0.354 OA
HETATM   34  C   UNL     1     -40.514  53.245 -49.682  1.00  0.00     0.210 C 
ENDBRANCH  28  33
ENDBRANCH   3  27
TORSDOF 7
ENDMDL
MODEL 5
REMARK VINA RESULT:      -8.2      1.578      2.369
REMARK  7 active torsions:
REMARK  status: ('A' for Active; 'I' for Inactive)
REMARK    1  A    between atoms: C_4  and  C_5 
REMARK    2  A    between atoms: C_5  and  N_6 
REMARK       I    between atoms: N_6  and  C_7 
REMARK    3  A    between atoms: N_6  and  C_18 
REMARK       I    between atoms: C_7  and  N_8 
REMARK    4  A    between atoms: N_8  and  C_9 
REMARK    5  A    between atoms: C_10  and  O_11 
REMARK    6  A    between atoms: N_21  and  C_23 
REMARK    7  A    between atoms: C_23  and  C_24 
ROOT
HETATM    1  N   UNL     1     -42.529  55.450 -53.837  1.00  0.00    -0.323 N 
HETATM    2  C   UNL     1     -42.206  54.193 -53.271  1.00  0.00     0.323 C 
HETATM    3  N   UNL     1     -41.109  53.561 -53.810  1.00  0.00    -0.306 N 
HETATM    4  O   UNL     1     -42.893  53.765 -52.350  1.00  0.00    -0.247 OA
HETATM    5  H   UNL     1     -40.539  54.079 -54.450  1.00  0.00     0.171 HD
ENDROOT
BRANCH   1   6
HETATM    6  C   UNL     1     -41.672  56.150 -54.801  1.00  0.00     0.193 C 
BRANCH   6   7
HETATM    7  C   UNL     1     -42.263  56.104 -56.159  1.00  0.00     0.071 A 
HETATM    8  O   UNL     1     -42.214  57.266 -56.875  1.00  0.00    -0.318 OA
HETATM    9  C   UNL     1     -42.815  57.021 -58.074  1.00  0.00     0.049 A 
HETATM   10  C   UNL     1     -42.901  58.150 -59.024  1.00  0.00     0.076 C 
HETATM   11  C   UNL     1     -43.241  55.712 -58.133  1.00  0.00     0.035 A 
HETATM   12  C   UNL     1     -42.886  55.120 -56.898  1.00  0.00     0.037 A 
ENDBRANCH   6   7
ENDBRANCH   1   6
BRANCH   1  13
HETATM   13  C   UNL     1     -43.832  56.034 -53.397  1.00  0.00     0.092 C 
HETATM   14  C   UNL     1     -44.357  57.296 -54.097  1.00  0.00     0.053 C 
HETATM   15  C   UNL     1     -43.755  58.615 -53.630  1.00  0.00     0.237 C 
HETATM   16  N   UNL     1     -43.714  58.709 -52.122  1.00  0.00    -0.067 N 
HETATM   17  H   UNL     1     -44.686  58.830 -51.808  1.00  0.00     0.280 HD
HETATM   18  C   UNL     1     -43.154  57.481 -51.444  1.00  0.00     0.237 C 
HETATM   19  C   UNL     1     -43.902  56.242 -51.878  1.00  0.00     0.053 C 
BRANCH  16  20
HETATM   20  C   UNL     1     -42.961  59.938 -51.629  1.00  0.00     0.273 C 
BRANCH  20  21
HETATM   21  C   UNL     1     -41.489  59.736 -51.407  1.00  0.00    -0.033 A 
HETATM   22  C   UNL     1     -40.662  59.265 -52.437  1.00  0.00     0.009 A 
HETATM   23  C   UNL     1     -39.296  59.085 -52.213  1.00  0.00     0.001 A 
HETATM   24  C   UNL     1     -38.747  59.365 -50.963  1.00  0.00     0.000 A 
HETATM   25  C   UNL     1     -39.559  59.830 -49.932  1.00  0.00     0.001 A 
HETATM   26  C   UNL     1     -40.923  60.016 -50.151  1.00  0.00     0.009 A 
ENDBRANCH  20  21
ENDBRANCH  16  20
ENDBRANCH   1  13
BRANCH   3  27
HETATM   27  C   UNL     1     -40.543  52.299 -53.489  1.00  0.00     0.069 A 
HETATM   28  C   UNL     1     -39.822  51.954 -52.337  1.00  0.00     0.095 A 
HETATM   29  C   UNL     1     -39.272  50.670 -52.198  1.00  0.00     0.039 A 
HETATM   30  C   UNL     1     -39.481  49.697 -53.171  1.00  0.00     0.003 A 
HETATM   31  C   UNL     1     -40.239  50.004 -54.293  1.00  0.00     0.002 A 
HETATM   32  C   UNL     1     -40.766  51.290 -54.448  1.00  0.00     0.032 A 
BRANCH  28  33
HETATM   33  O   UNL     1     -39.608  52.800 -51.287  1.00  0.00    -0.354 OA
HETATM   34  C   UNL     1     -40.435  52.439 -50.181  1.00  0.00     0.210 C 
ENDBRANCH  28  33
ENDBRANCH   3  27
TORSDOF 7
ENDMDL
MODEL 6
REMARK VINA RESULT:      -8.1      2.153      8.271
REMARK  7 active torsions:
REMARK  status: ('A' for Active; 'I' for Inactive)
REMARK    1  A    between atoms: C_4  and  C_5 
REMARK    2  A    between atoms: C_5  and  N_6 
REMARK       I    between atoms: N_6  and  C_7 
REMARK    3  A    between atoms: N_6  and  C_18 
REMARK       I    between atoms: C_7  and  N_8 
REMARK    4  A    between atoms: N_8  and  C_9 
REMARK    5  A    between atoms: C_10  and  O_11 
REMARK    6  A    between atoms: N_21  and  C_23 
REMARK    7  A    between atoms: C_23  and  C_24 
ROOT
HETATM    1  N   UNL     1     -42.831  56.569 -52.281  1.00  0.00    -0.323 N 
HETATM    2  C   UNL     1     -43.842  57.550 -52.418  1.00  0.00     0.323 C 
HETATM    3  N   UNL     1     -43.595  58.536 -53.345  1.00  0.00    -0.306 N 
HETATM    4  O   UNL     1     -44.857  57.453 -51.735  1.00  0.00    -0.247 OA
HETATM    5  H   UNL     1     -42.804  58.422 -53.949  1.00  0.00     0.171 HD
ENDROOT
BRANCH   1   6
HETATM    6  C   UNL     1     -41.671  56.469 -53.175  1.00  0.00     0.193 C 
BRANCH   6   7
HETATM    7  C   UNL     1     -42.099  56.155 -54.557  1.00  0.00     0.071 A 
HETATM    8  O   UNL     1     -42.088  57.196 -55.441  1.00  0.00    -0.318 OA
HETATM    9  C   UNL     1     -42.523  56.708 -56.638  1.00  0.00     0.049 A 
HETATM   10  C   UNL     1     -42.617  57.667 -57.758  1.00  0.00     0.076 C 
HETATM   11  C   UNL     1     -42.805  55.365 -56.528  1.00  0.00     0.035 A 
HETATM   12  C   UNL     1     -42.533  55.007 -55.187  1.00  0.00     0.037 A 
ENDBRANCH   6   7
ENDBRANCH   1   6
BRANCH   1  13
HETATM   13  C   UNL     1     -43.005  55.625 -51.136  1.00  0.00     0.092 C 
HETATM   14  C   UNL     1     -42.025  55.695 -49.956  1.00  0.00     0.053 C 
HETATM   15  C   UNL     1     -40.687  54.997 -50.160  1.00  0.00     0.237 C 
HETATM   16  N   UNL     1     -40.860  53.614 -50.746  1.00  0.00    -0.067 N 
HETATM   17  H   UNL     1     -41.261  53.028 -50.004  1.00  0.00     0.280 HD
HETATM   18  C   UNL     1     -41.790  53.562 -51.935  1.00  0.00     0.237 C 
HETATM   19  C   UNL     1     -43.133  54.164 -51.592  1.00  0.00     0.053 C 
BRANCH  16  20
HETATM   20  C   UNL     1     -39.535  52.965 -51.122  1.00  0.00     0.273 C 
BRANCH  20  21
HETATM   21  C   UNL     1     -39.637  51.824 -52.093  1.00  0.00    -0.033 A 
HETATM   22  C   UNL     1     -39.572  50.493 -51.654  1.00  0.00     0.009 A 
HETATM   23  C   UNL     1     -39.669  49.446 -52.571  1.00  0.00     0.001 A 
HETATM   24  C   UNL     1     -39.825  49.715 -53.930  1.00  0.00     0.000 A 
HETATM   25  C   UNL     1     -39.888  51.031 -54.378  1.00  0.00     0.001 A 
HETATM   26  C   UNL     1     -39.795  52.081 -53.466  1.00  0.00     0.009 A 
ENDBRANCH  20  21
ENDBRANCH  16  20
ENDBRANCH   1  13
BRANCH   3  27
HETATM   27  C   UNL     1     -44.385  59.662 -53.702  1.00  0.00     0.069 A 
HETATM   28  C   UNL     1     -44.716  60.762 -52.899  1.00  0.00     0.095 A 
HETATM   29  C   UNL     1     -45.562  61.770 -53.385  1.00  0.00     0.039 A 
HETATM   30  C   UNL     1     -46.041  61.728 -54.691  1.00  0.00     0.003 A 
HETATM   31  C   UNL     1     -45.679  60.674 -55.520  1.00  0.00     0.002 A 
HETATM   32  C   UNL     1     -44.857  59.654 -55.030  1.00  0.00     0.032 A 
BRANCH  28  33
HETATM   33  O   UNL     1     -44.254  60.947 -51.627  1.00  0.00    -0.354 OA
HETATM   34  C   UNL     1     -44.731  62.184 -51.100  1.00  0.00     0.210 C 
ENDBRANCH  28  33
ENDBRANCH   3  27
TORSDOF 7
ENDMDL
MODEL 7
REMARK VINA RESULT:      -8.0      2.580      9.147
REMARK  7 active torsions:
REMARK  status: ('A' for Active; 'I' for Inactive)
REMARK    1  A    between atoms: C_4  and  C_5 
REMARK    2  A    between atoms: C_5  and  N_6 
REMARK       I    between atoms: N_6  and  C_7 
REMARK    3  A    between atoms: N_6  and  C_18 
REMARK       I    between atoms: C_7  and  N_8 
REMARK    4  A    between atoms: N_8  and  C_9 
REMARK    5  A    between atoms: C_10  and  O_11 
REMARK    6  A    between atoms: N_21  and  C_23 
REMARK    7  A    between atoms: C_23  and  C_24 
ROOT
HETATM    1  N   UNL     1     -43.588  57.280 -53.844  1.00  0.00    -0.323 N 
HETATM    2  C   UNL     1     -43.508  58.546 -54.473  1.00  0.00     0.323 C 
HETATM    3  N   UNL     1     -43.960  59.611 -53.727  1.00  0.00    -0.306 N 
HETATM    4  O   UNL     1     -43.038  58.618 -55.603  1.00  0.00    -0.247 OA
HETATM    5  H   UNL     1     -44.176  59.448 -52.762  1.00  0.00     0.171 HD
ENDROOT
BRANCH   1   6
HETATM    6  C   UNL     1     -43.945  57.095 -52.433  1.00  0.00     0.193 C 
BRANCH   6   7
HETATM    7  C   UNL     1     -42.749  57.219 -51.568  1.00  0.00     0.071 A 
HETATM    8  O   UNL     1     -42.146  58.444 -51.548  1.00  0.00    -0.318 OA
HETATM    9  C   UNL     1     -41.071  58.347 -50.715  1.00  0.00     0.049 A 
HETATM   10  C   UNL     1     -40.240  59.557 -50.548  1.00  0.00     0.076 C 
HETATM   11  C   UNL     1     -40.987  57.073 -50.197  1.00  0.00     0.035 A 
HETATM   12  C   UNL     1     -42.068  56.345 -50.747  1.00  0.00     0.037 A 
ENDBRANCH   6   7
ENDBRANCH   1   6
BRANCH   1  13
HETATM   13  C   UNL     1     -43.294  56.109 -54.725  1.00  0.00     0.092 C 
HETATM   14  C   UNL     1     -43.686  54.702 -54.250  1.00  0.00     0.053 C 
HETATM   15  C   UNL     1     -42.728  54.041 -53.269  1.00  0.00     0.237 C 
HETATM   16  N   UNL     1     -41.290  54.170 -53.716  1.00  0.00    -0.067 N 
HETATM   17  H   UNL     1     -41.177  53.549 -54.527  1.00  0.00     0.280 HD
HETATM   18  C   UNL     1     -40.900  55.567 -54.138  1.00  0.00     0.237 C 
HETATM   19  C   UNL     1     -41.836  56.084 -55.205  1.00  0.00     0.053 C 
BRANCH  16  20
HETATM   20  C   UNL     1     -40.301  53.672 -52.670  1.00  0.00     0.273 C 
BRANCH  20  21
HETATM   21  C   UNL     1     -40.044  52.193 -52.689  1.00  0.00    -0.033 A 
HETATM   22  C   UNL     1     -39.737  51.497 -51.510  1.00  0.00     0.009 A 
HETATM   23  C   UNL     1     -39.501  50.122 -51.547  1.00  0.00     0.001 A 
HETATM   24  C   UNL     1     -39.564  49.432 -52.756  1.00  0.00     0.000 A 
HETATM   25  C   UNL     1     -39.864  50.112 -53.933  1.00  0.00     0.001 A 
HETATM   26  C   UNL     1     -40.104  51.484 -53.902  1.00  0.00     0.009 A 
ENDBRANCH  20  21
ENDBRANCH  16  20
ENDBRANCH   1  13
BRANCH   3  27
HETATM   27  C   UNL     1     -44.037  60.988 -54.068  1.00  0.00     0.069 A 
HETATM   28  C   UNL     1     -44.865  61.584 -55.029  1.00  0.00     0.095 A 
HETATM   29  C   UNL     1     -44.777  62.960 -55.291  1.00  0.00     0.039 A 
HETATM   30  C   UNL     1     -43.909  63.768 -54.562  1.00  0.00     0.003 A 
HETATM   31  C   UNL     1     -43.121  63.204 -53.568  1.00  0.00     0.002 A 
HETATM   32  C   UNL     1     -43.187  61.829 -53.323  1.00  0.00     0.032 A 
BRANCH  28  33
HETATM   33  O   UNL     1     -45.800  60.908 -55.759  1.00  0.00    -0.354 OA
HETATM   34  C   UNL     1     -45.475  60.950 -57.147  1.00  0.00     0.210 C 
ENDBRANCH  28  33
ENDBRANCH   3  27
TORSDOF 7
ENDMDL
MODEL 8
REMARK VINA RESULT:      -8.0      3.947      8.860
REMARK  7 active torsions:
REMARK  status: ('A' for Active; 'I' for Inactive)
REMARK    1  A    between atoms: C_4  and  C_5 
REMARK    2  A    between atoms: C_5  and  N_6 
REMARK       I    between atoms: N_6  and  C_7 
REMARK    3  A    between atoms: N_6  and  C_18 
REMARK       I    between atoms: C_7  and  N_8 
REMARK    4  A    between atoms: N_8  and  C_9 
REMARK    5  A    between atoms: C_10  and  O_11 
REMARK    6  A    between atoms: N_21  and  C_23 
REMARK    7  A    between atoms: C_23  and  C_24 
ROOT
HETATM    1  N   UNL     1     -43.374  57.443 -55.596  1.00  0.00    -0.323 N 
HETATM    2  C   UNL     1     -44.676  57.912 -55.898  1.00  0.00     0.323 C 
HETATM    3  N   UNL     1     -44.789  58.657 -57.049  1.00  0.00    -0.306 N 
HETATM    4  O   UNL     1     -45.600  57.616 -55.148  1.00  0.00    -0.247 OA
HETATM    5  H   UNL     1     -43.995  58.700 -57.659  1.00  0.00     0.171 HD
ENDROOT
BRANCH   1   6
HETATM    6  C   UNL     1     -42.235  57.564 -56.513  1.00  0.00     0.193 C 
BRANCH   6   7
HETATM    7  C   UNL     1     -42.599  57.088 -57.868  1.00  0.00     0.071 A 
HETATM    8  O   UNL     1     -43.388  55.975 -57.923  1.00  0.00    -0.318 OA
HETATM    9  C   UNL     1     -43.594  55.696 -59.241  1.00  0.00     0.049 A 
HETATM   10  C   UNL     1     -44.413  54.507 -59.555  1.00  0.00     0.076 C 
HETATM   11  C   UNL     1     -42.949  56.624 -60.029  1.00  0.00     0.035 A 
HETATM   12  C   UNL     1     -42.306  57.522 -59.145  1.00  0.00     0.037 A 
ENDBRANCH   6   7
ENDBRANCH   1   6
BRANCH   1  13
HETATM   13  C   UNL     1     -43.216  56.816 -54.250  1.00  0.00     0.092 C 
HETATM   14  C   UNL     1     -41.837  56.839 -53.574  1.00  0.00     0.053 C 
HETATM   15  C   UNL     1     -40.850  55.779 -54.041  1.00  0.00     0.237 C 
HETATM   16  N   UNL     1     -41.487  54.410 -54.110  1.00  0.00    -0.067 N 
HETATM   17  H   UNL     1     -41.637  54.106 -53.140  1.00  0.00     0.280 HD
HETATM   18  C   UNL     1     -42.823  54.389 -54.817  1.00  0.00     0.237 C 
HETATM   19  C   UNL     1     -43.773  55.387 -54.197  1.00  0.00     0.053 C 
BRANCH  16  20
HETATM   20  C   UNL     1     -40.575  53.366 -54.739  1.00  0.00     0.273 C 
BRANCH  20  21
HETATM   21  C   UNL     1     -40.211  52.215 -53.845  1.00  0.00    -0.033 A 
HETATM   22  C   UNL     1     -39.954  52.414 -52.481  1.00  0.00     0.009 A 
HETATM   23  C   UNL     1     -39.618  51.333 -51.665  1.00  0.00     0.001 A 
HETATM   24  C   UNL     1     -39.530  50.049 -52.202  1.00  0.00     0.000 A 
HETATM   25  C   UNL     1     -39.781  49.840 -53.555  1.00  0.00     0.001 A 
HETATM   26  C   UNL     1     -40.120  50.916 -54.374  1.00  0.00     0.009 A 
ENDBRANCH  20  21
ENDBRANCH  16  20
ENDBRANCH   1  13
BRANCH   3  27
HETATM   27  C   UNL     1     -45.932  59.283 -57.614  1.00  0.00     0.069 A 
HETATM   28  C   UNL     1     -46.828  58.742 -58.547  1.00  0.00     0.095 A 
HETATM   29  C   UNL     1     -47.881  59.518 -59.056  1.00  0.00     0.039 A 
HETATM   30  C   UNL     1     -48.092  60.817 -58.603  1.00  0.00     0.003 A 
HETATM   31  C   UNL     1     -47.247  61.350 -57.637  1.00  0.00     0.002 A 
HETATM   32  C   UNL     1     -46.181  60.589 -57.148  1.00  0.00     0.032 A 
BRANCH  28  33
HETATM   33  O   UNL     1     -46.764  57.462 -59.016  1.00  0.00    -0.354 OA
HETATM   34  C   UNL     1     -46.859  57.448 -60.440  1.00  0.00     0.210 C 
ENDBRANCH  28  33
ENDBRANCH   3  27
TORSDOF 7
ENDMDL
MODEL 9
REMARK VINA RESULT:      -8.0      2.275      9.107
REMARK  7 active torsions:
REMARK  status: ('A' for Active; 'I' for Inactive)
REMARK    1  A    between atoms: C_4  and  C_5 
REMARK    2  A    between atoms: C_5  and  N_6 
REMARK       I    between atoms: N_6  and  C_7 
REMARK    3  A    between atoms: N_6  and  C_18 
REMARK       I    between atoms: C_7  and  N_8 
REMARK    4  A    between atoms: N_8  and  C_9 
REMARK    5  A    between atoms: C_10  and  O_11 
REMARK    6  A    between atoms: N_21  and  C_23 
REMARK    7  A    between atoms: C_23  and  C_24 
ROOT
HETATM    1  N   UNL     1     -43.674  57.183 -53.999  1.00  0.00    -0.323 N 
HETATM    2  C   UNL     1     -43.732  58.476 -54.574  1.00  0.00     0.323 C 
HETATM    3  N   UNL     1     -44.339  59.443 -53.807  1.00  0.00    -0.306 N 
HETATM    4  O   UNL     1     -43.235  58.653 -55.682  1.00  0.00    -0.247 OA
HETATM    5  H   UNL     1     -44.567  59.213 -52.859  1.00  0.00     0.171 HD
ENDROOT
BRANCH   1   6
HETATM    6  C   UNL     1     -44.054  56.894 -52.611  1.00  0.00     0.193 C 
BRANCH   6   7
HETATM    7  C   UNL     1     -42.882  57.001 -51.712  1.00  0.00     0.071 A 
HETATM    8  O   UNL     1     -42.631  55.917 -50.920  1.00  0.00    -0.318 OA
HETATM    9  C   UNL     1     -41.535  56.217 -50.168  1.00  0.00     0.049 A 
HETATM   10  C   UNL     1     -41.079  55.191 -49.207  1.00  0.00     0.076 C 
HETATM   11  C   UNL     1     -41.079  57.480 -50.477  1.00  0.00     0.035 A 
HETATM   12  C   UNL     1     -41.947  57.987 -51.472  1.00  0.00     0.037 A 
ENDBRANCH   6   7
ENDBRANCH   1   6
BRANCH   1  13
HETATM   13  C   UNL     1     -43.205  56.097 -54.911  1.00  0.00     0.092 C 
HETATM   14  C   UNL     1     -43.569  54.641 -54.586  1.00  0.00     0.053 C 
HETATM   15  C   UNL     1     -42.703  53.958 -53.537  1.00  0.00     0.237 C 
HETATM   16  N   UNL     1     -41.230  54.191 -53.787  1.00  0.00    -0.067 N 
HETATM   17  H   UNL     1     -40.982  53.639 -54.618  1.00  0.00     0.280 HD
HETATM   18  C   UNL     1     -40.874  55.633 -54.062  1.00  0.00     0.237 C 
HETATM   19  C   UNL     1     -41.700  56.181 -55.203  1.00  0.00     0.053 C 
BRANCH  16  20
HETATM   20  C   UNL     1     -40.350  53.667 -52.660  1.00  0.00     0.273 C 
BRANCH  20  21
HETATM   21  C   UNL     1     -40.060  52.195 -52.709  1.00  0.00    -0.033 A 
HETATM   22  C   UNL     1     -40.048  51.501 -53.928  1.00  0.00     0.009 A 
HETATM   23  C   UNL     1     -39.775  50.133 -53.954  1.00  0.00     0.001 A 
HETATM   24  C   UNL     1     -39.520  49.445 -52.769  1.00  0.00     0.000 A 
HETATM   25  C   UNL     1     -39.533  50.122 -51.553  1.00  0.00     0.001 A 
HETATM   26  C   UNL     1     -39.801  51.489 -51.521  1.00  0.00     0.009 A 
ENDBRANCH  20  21
ENDBRANCH  16  20
ENDBRANCH   1  13
BRANCH   3  27
HETATM   27  C   UNL     1     -44.577  60.813 -54.098  1.00  0.00     0.069 A 
HETATM   28  C   UNL     1     -43.955  61.928 -53.521  1.00  0.00     0.095 A 
HETATM   29  C   UNL     1     -44.348  63.228 -53.877  1.00  0.00     0.039 A 
HETATM   30  C   UNL     1     -45.321  63.434 -54.850  1.00  0.00     0.003 A 
HETATM   31  C   UNL     1     -45.909  62.341 -55.473  1.00  0.00     0.002 A 
HETATM   32  C   UNL     1     -45.538  61.045 -55.101  1.00  0.00     0.032 A 
BRANCH  28  33
HETATM   33  O   UNL     1     -42.944  61.853 -52.605  1.00  0.00    -0.354 OA
HETATM   34  C   UNL     1     -43.340  62.457 -51.375  1.00  0.00     0.210 C 
ENDBRANCH  28  33
ENDBRANCH   3  27
TORSDOF 7
ENDMDL
MODEL 10
REMARK VINA RESULT:      -7.9      2.226      8.823
REMARK  7 active torsions:
REMARK  status: ('A' for Active; 'I' for Inactive)
REMARK    1  A    between atoms: C_4  and  C_5 
REMARK    2  A    between atoms: C_5  and  N_6 
REMARK       I    between atoms: N_6  and  C_7 
REMARK    3  A    between atoms: N_6  and  C_18 
REMARK       I    between atoms: C_7  and  N_8 
REMARK    4  A    between atoms: N_8  and  C_9 
REMARK    5  A    between atoms: C_10  and  O_11 
REMARK    6  A    between atoms: N_21  and  C_23 
REMARK    7  A    between atoms: C_23  and  C_24 
ROOT
HETATM    1  N   UNL     1     -42.776  57.002 -53.143  1.00  0.00    -0.323 N 
HETATM    2  C   UNL     1     -43.737  57.568 -54.015  1.00  0.00     0.323 C 
HETATM    3  N   UNL     1     -43.346  58.714 -54.669  1.00  0.00    -0.306 N 
HETATM    4  O   UNL     1     -44.820  57.008 -54.147  1.00  0.00    -0.247 OA
HETATM    5  H   UNL     1     -42.385  58.988 -54.598  1.00  0.00     0.171 HD
ENDROOT
BRANCH   1   6
HETATM    6  C   UNL     1     -41.387  57.466 -53.053  1.00  0.00     0.193 C 
BRANCH   6   7
HETATM    7  C   UNL     1     -41.227  58.433 -51.943  1.00  0.00     0.071 A 
HETATM    8  O   UNL     1     -42.220  59.360 -51.804  1.00  0.00    -0.318 OA
HETATM    9  C   UNL     1     -41.881  60.154 -50.750  1.00  0.00     0.049 A 
HETATM   10  C   UNL     1     -42.806  61.257 -50.416  1.00  0.00     0.076 C 
HETATM   11  C   UNL     1     -40.685  59.738 -50.208  1.00  0.00     0.035 A 
HETATM   12  C   UNL     1     -40.261  58.629 -50.977  1.00  0.00     0.037 A 
ENDBRANCH   6   7
ENDBRANCH   1   6
BRANCH   1  13
HETATM   13  C   UNL     1     -43.272  55.885 -52.283  1.00  0.00     0.092 C 
HETATM   14  C   UNL     1     -42.749  55.762 -50.845  1.00  0.00     0.053 C 
HETATM   15  C   UNL     1     -41.385  55.106 -50.687  1.00  0.00     0.237 C 
HETATM   16  N   UNL     1     -41.276  53.836 -51.500  1.00  0.00    -0.067 N 
HETATM   17  H   UNL     1     -41.870  53.137 -51.036  1.00  0.00     0.280 HD
HETATM   18  C   UNL     1     -41.750  53.978 -52.928  1.00  0.00     0.237 C 
HETATM   19  C   UNL     1     -43.161  54.517 -52.972  1.00  0.00     0.053 C 
BRANCH  16  20
HETATM   20  C   UNL     1     -39.868  53.255 -51.499  1.00  0.00     0.273 C 
BRANCH  20  21
HETATM   21  C   UNL     1     -39.743  51.887 -52.106  1.00  0.00    -0.033 A 
HETATM   22  C   UNL     1     -39.697  51.715 -53.497  1.00  0.00     0.009 A 
HETATM   23  C   UNL     1     -39.580  50.436 -54.043  1.00  0.00     0.001 A 
HETATM   24  C   UNL     1     -39.513  49.321 -53.210  1.00  0.00     0.000 A 
HETATM   25  C   UNL     1     -39.560  49.479 -51.828  1.00  0.00     0.001 A 
HETATM   26  C   UNL     1     -39.674  50.753 -51.277  1.00  0.00     0.009 A 
ENDBRANCH  20  21
ENDBRANCH  16  20
ENDBRANCH   1  13
BRANCH   3  27
HETATM   27  C   UNL     1     -44.069  59.528 -55.580  1.00  0.00     0.069 A 
HETATM   28  C   UNL     1     -44.052  59.466 -56.980  1.00  0.00     0.095 A 
HETATM   29  C   UNL     1     -44.783  60.389 -57.744  1.00  0.00     0.039 A 
HETATM   30  C   UNL     1     -45.583  61.346 -57.128  1.00  0.00     0.003 A 
HETATM   31  C   UNL     1     -45.656  61.388 -55.742  1.00  0.00     0.002 A 
HETATM   32  C   UNL     1     -44.908  60.487 -54.978  1.00  0.00     0.032 A 
BRANCH  28  33
HETATM   33  O   UNL     1     -43.359  58.532 -57.696  1.00  0.00    -0.354 OA
HETATM   34  C   UNL     1     -44.191  57.409 -57.986  1.00  0.00     0.210 C 
ENDBRANCH  28  33
ENDBRANCH   3  27
TORSDOF 7
ENDMDL
