MODEL 1
REMARK VINA RESULT:      -8.0      0.000      0.000
REMARK  6 active torsions:
REMARK  status: ('A' for Active; 'I' for Inactive)
REMARK    1  A    between atoms: C_2  and  O_3 
REMARK    2  A    between atoms: O_3  and  C_4 
REMARK    3  A    between atoms: C_5  and  O_6 
REMARK    4  A    between atoms: C_9  and  C_10 
REMARK    5  A    between atoms: C_19  and  C_20 
REMARK    6  A    between atoms: C_22  and  O_23 
ROOT
HETATM    1  C   UNL     1     -43.409  55.153 -54.015  1.00  0.00     0.156 A 
HETATM    2  N   UNL     1     -43.844  55.546 -55.371  1.00  0.00    -0.343 N 
HETATM    3  C   UNL     1     -42.869  55.401 -56.351  1.00  0.00     0.271 A 
HETATM    4  O   UNL     1     -42.952  55.694 -57.528  1.00  0.00    -0.266 OA
HETATM    5  C   UNL     1     -41.784  54.833 -55.649  1.00  0.00     0.128 A 
HETATM    6  C   UNL     1     -42.044  54.673 -54.317  1.00  0.00     0.034 A 
HETATM    7  N   UNL     1     -40.560  54.346 -55.897  1.00  0.00    -0.272 N 
HETATM    8  H   UNL     1     -40.047  54.309 -56.773  1.00  0.00     0.189 HD
HETATM    9  N   UNL     1     -40.017  53.791 -54.787  1.00  0.00    -0.173 NA
HETATM   10  C   UNL     1     -40.937  53.972 -53.808  1.00  0.00     0.098 A 
HETATM   11  H   UNL     1     -44.723  55.998 -55.574  1.00  0.00     0.163 HD
ENDROOT
BRANCH   1  12
HETATM   12  C   UNL     1     -43.349  56.350 -53.094  1.00  0.00    -0.028 A 
HETATM   13  C   UNL     1     -44.228  56.508 -52.003  1.00  0.00     0.012 A 
HETATM   14  C   UNL     1     -44.098  57.583 -51.127  1.00  0.00     0.040 A 
HETATM   15  C   UNL     1     -43.083  58.505 -51.331  1.00  0.00     0.099 A 
HETATM   16  C   UNL     1     -42.196  58.390 -52.405  1.00  0.00     0.102 A 
HETATM   17  C   UNL     1     -42.330  57.310 -53.281  1.00  0.00     0.049 A 
BRANCH  15  18
HETATM   18  O   UNL     1     -42.964  59.541 -50.446  1.00  0.00    -0.358 OA
HETATM   19  H   UNL     1     -43.246  59.173 -49.586  1.00  0.00     0.218 HD
ENDBRANCH  15  18
BRANCH  16  20
HETATM   20  O   UNL     1     -41.244  59.375 -52.469  1.00  0.00    -0.349 OA
BRANCH  20  21
HETATM   21  C   UNL     1     -39.882  58.971 -52.342  1.00  0.00     0.171 C 
HETATM   22  C   UNL     1     -39.449  59.250 -50.914  1.00  0.00     0.034 C 
ENDBRANCH  20  21
ENDBRANCH  16  20
ENDBRANCH   1  12
BRANCH  10  23
HETATM   23  C   UNL     1     -40.740  53.393 -52.482  1.00  0.00    -0.002 A 
HETATM   24  C   UNL     1     -41.194  54.097 -51.351  1.00  0.00     0.050 A 
HETATM   25  C   UNL     1     -40.997  53.586 -50.067  1.00  0.00     0.069 A 
HETATM   26  C   UNL     1     -40.344  52.362 -49.914  1.00  0.00     0.037 A 
HETATM   27  C   UNL     1     -39.906  51.646 -51.028  1.00  0.00     0.004 A 
HETATM   28  C   UNL     1     -40.106  52.159 -52.311  1.00  0.00     0.014 A 
BRANCH  25  29
HETATM   29  O   UNL     1     -41.384  54.182 -48.898  1.00  0.00    -0.356 OA
HETATM   30  C   UNL     1     -40.466  54.122 -47.812  1.00  0.00     0.210 C 
ENDBRANCH  25  29
ENDBRANCH  10  23
TORSDOF 6
ENDMDL
MODEL 2
REMARK VINA RESULT:      -7.9      2.681      4.997
REMARK  6 active torsions:
REMARK  status: ('A' for Active; 'I' for Inactive)
REMARK    1  A    between atoms: C_2  and  O_3 
REMARK    2  A    between atoms: O_3  and  C_4 
REMARK    3  A    between atoms: C_5  and  O_6 
REMARK    4  A    between atoms: C_9  and  C_10 
REMARK    5  A    between atoms: C_19  and  C_20 
REMARK    6  A    between atoms: C_22  and  O_23 
ROOT
HETATM    1  C   UNL     1     -41.174  57.679 -53.059  1.00  0.00     0.156 A 
HETATM    2  N   UNL     1     -41.124  58.963 -52.331  1.00  0.00    -0.343 N 
HETATM    3  C   UNL     1     -41.293  58.850 -50.956  1.00  0.00     0.271 A 
HETATM    4  O   UNL     1     -41.341  59.749 -50.139  1.00  0.00    -0.266 OA
HETATM    5  C   UNL     1     -41.387  57.456 -50.753  1.00  0.00     0.128 A 
HETATM    6  C   UNL     1     -41.324  56.749 -51.920  1.00  0.00     0.034 A 
HETATM    7  N   UNL     1     -41.476  56.584 -49.740  1.00  0.00    -0.272 N 
HETATM    8  H   UNL     1     -41.546  56.760 -48.742  1.00  0.00     0.189 HD
HETATM    9  N   UNL     1     -41.396  55.306 -50.183  1.00  0.00    -0.173 NA
HETATM   10  C   UNL     1     -41.282  55.399 -51.531  1.00  0.00     0.098 A 
HETATM   11  H   UNL     1     -41.095  59.867 -52.780  1.00  0.00     0.163 HD
ENDROOT
BRANCH   1  12
HETATM   12  C   UNL     1     -42.389  57.607 -53.955  1.00  0.00    -0.028 A 
HETATM   13  C   UNL     1     -43.695  57.828 -53.473  1.00  0.00     0.012 A 
HETATM   14  C   UNL     1     -44.788  57.830 -54.338  1.00  0.00     0.040 A 
HETATM   15  C   UNL     1     -44.581  57.618 -55.692  1.00  0.00     0.099 A 
HETATM   16  C   UNL     1     -43.304  57.386 -56.209  1.00  0.00     0.102 A 
HETATM   17  C   UNL     1     -42.211  57.385 -55.338  1.00  0.00     0.049 A 
BRANCH  15  18
HETATM   18  O   UNL     1     -45.667  57.645 -56.523  1.00  0.00    -0.358 OA
HETATM   19  H   UNL     1     -45.357  57.249 -57.360  1.00  0.00     0.218 HD
ENDBRANCH  15  18
BRANCH  16  20
HETATM   20  O   UNL     1     -43.261  57.200 -57.567  1.00  0.00    -0.349 OA
BRANCH  20  21
HETATM   21  C   UNL     1     -43.079  55.865 -58.034  1.00  0.00     0.171 C 
HETATM   22  C   UNL     1     -42.895  55.925 -59.541  1.00  0.00     0.034 C 
ENDBRANCH  20  21
ENDBRANCH  16  20
ENDBRANCH   1  12
BRANCH  10  23
HETATM   23  C   UNL     1     -41.056  54.208 -52.345  1.00  0.00    -0.002 A 
HETATM   24  C   UNL     1     -40.208  53.196 -51.859  1.00  0.00     0.050 A 
HETATM   25  C   UNL     1     -39.947  52.057 -52.623  1.00  0.00     0.069 A 
HETATM   26  C   UNL     1     -40.541  51.929 -53.879  1.00  0.00     0.037 A 
HETATM   27  C   UNL     1     -41.398  52.917 -54.364  1.00  0.00     0.004 A 
HETATM   28  C   UNL     1     -41.658  54.054 -53.597  1.00  0.00     0.014 A 
BRANCH  25  29
HETATM   29  O   UNL     1     -39.136  51.016 -52.261  1.00  0.00    -0.356 OA
HETATM   30  C   UNL     1     -39.560  50.227 -51.155  1.00  0.00     0.210 C 
ENDBRANCH  25  29
ENDBRANCH  10  23
TORSDOF 6
ENDMDL
MODEL 3
REMARK VINA RESULT:      -7.7      1.948      5.933
REMARK  6 active torsions:
REMARK  status: ('A' for Active; 'I' for Inactive)
REMARK    1  A    between atoms: C_2  and  O_3 
REMARK    2  A    between atoms: O_3  and  C_4 
REMARK    3  A    between atoms: C_5  and  O_6 
REMARK    4  A    between atoms: C_9  and  C_10 
REMARK    5  A    between atoms: C_19  and  C_20 
REMARK    6  A    between atoms: C_22  and  O_23 
ROOT
HETATM    1  C   UNL     1     -41.445  56.164 -53.068  1.00  0.00     0.156 A 
HETATM    2  N   UNL     1     -41.333  55.177 -54.160  1.00  0.00    -0.343 N 
HETATM    3  C   UNL     1     -42.518  54.948 -54.850  1.00  0.00     0.271 A 
HETATM    4  O   UNL     1     -42.708  54.156 -55.753  1.00  0.00    -0.266 OA
HETATM    5  C   UNL     1     -43.423  55.851 -54.253  1.00  0.00     0.128 A 
HETATM    6  C   UNL     1     -42.859  56.566 -53.234  1.00  0.00     0.034 A 
HETATM    7  N   UNL     1     -44.686  56.272 -54.408  1.00  0.00    -0.272 N 
HETATM    8  H   UNL     1     -45.393  55.956 -55.065  1.00  0.00     0.189 HD
HETATM    9  N   UNL     1     -44.967  57.303 -53.576  1.00  0.00    -0.173 NA
HETATM   10  C   UNL     1     -43.834  57.505 -52.858  1.00  0.00     0.098 A 
HETATM   11  H   UNL     1     -40.513  54.614 -54.332  1.00  0.00     0.163 HD
ENDROOT
BRANCH   1  12
HETATM   12  C   UNL     1     -41.245  55.511 -51.719  1.00  0.00    -0.028 A 
HETATM   13  C   UNL     1     -41.467  56.196 -50.508  1.00  0.00     0.012 A 
HETATM   14  C   UNL     1     -41.348  55.544 -49.282  1.00  0.00     0.040 A 
HETATM   15  C   UNL     1     -41.012  54.199 -49.260  1.00  0.00     0.099 A 
HETATM   16  C   UNL     1     -40.774  53.485 -50.438  1.00  0.00     0.102 A 
HETATM   17  C   UNL     1     -40.895  54.143 -51.664  1.00  0.00     0.049 A 
BRANCH  15  18
HETATM   18  O   UNL     1     -40.921  53.577 -48.045  1.00  0.00    -0.358 OA
HETATM   19  H   UNL     1     -40.625  52.668 -48.247  1.00  0.00     0.218 HD
ENDBRANCH  15  18
BRANCH  16  20
HETATM   20  O   UNL     1     -40.459  52.164 -50.252  1.00  0.00    -0.349 OA
BRANCH  20  21
HETATM   21  C   UNL     1     -39.796  51.497 -51.325  1.00  0.00     0.171 C 
HETATM   22  C   UNL     1     -39.614  50.044 -50.923  1.00  0.00     0.034 C 
ENDBRANCH  20  21
ENDBRANCH  16  20
ENDBRANCH   1  12
BRANCH  10  23
HETATM   23  C   UNL     1     -43.729  58.626 -51.929  1.00  0.00    -0.002 A 
HETATM   24  C   UNL     1     -44.835  58.957 -51.125  1.00  0.00     0.050 A 
HETATM   25  C   UNL     1     -44.780  60.041 -50.247  1.00  0.00     0.069 A 
HETATM   26  C   UNL     1     -43.608  60.796 -50.171  1.00  0.00     0.037 A 
HETATM   27  C   UNL     1     -42.499  60.467 -50.949  1.00  0.00     0.004 A 
HETATM   28  C   UNL     1     -42.557  59.381 -51.826  1.00  0.00     0.014 A 
BRANCH  25  29
HETATM   29  O   UNL     1     -45.790  60.461 -49.426  1.00  0.00    -0.356 OA
HETATM   30  C   UNL     1     -45.408  61.043 -48.184  1.00  0.00     0.210 C 
ENDBRANCH  25  29
ENDBRANCH  10  23
TORSDOF 6
ENDMDL
MODEL 4
REMARK VINA RESULT:      -7.6      1.844      5.762
REMARK  6 active torsions:
REMARK  status: ('A' for Active; 'I' for Inactive)
REMARK    1  A    between atoms: C_2  and  O_3 
REMARK    2  A    between atoms: O_3  and  C_4 
REMARK    3  A    between atoms: C_5  and  O_6 
REMARK    4  A    between atoms: C_9  and  C_10 
REMARK    5  A    between atoms: C_19  and  C_20 
REMARK    6  A    between atoms: C_22  and  O_23 
ROOT
HETATM    1  C   UNL     1     -41.031  55.670 -54.620  1.00  0.00     0.156 A 
HETATM    2  N   UNL     1     -41.408  54.945 -55.850  1.00  0.00    -0.343 N 
HETATM    3  C   UNL     1     -42.710  55.177 -56.276  1.00  0.00     0.271 A 
HETATM    4  O   UNL     1     -43.280  54.672 -57.224  1.00  0.00    -0.266 OA
HETATM    5  C   UNL     1     -43.190  56.130 -55.353  1.00  0.00     0.128 A 
HETATM    6  C   UNL     1     -42.271  56.442 -54.392  1.00  0.00     0.034 A 
HETATM    7  N   UNL     1     -44.282  56.880 -55.146  1.00  0.00    -0.272 N 
HETATM    8  H   UNL     1     -45.155  56.903 -55.664  1.00  0.00     0.189 HD
HETATM    9  N   UNL     1     -44.096  57.746 -54.120  1.00  0.00    -0.173 NA
HETATM   10  C   UNL     1     -42.846  57.494 -53.660  1.00  0.00     0.098 A 
HETATM   11  H   UNL     1     -40.833  54.242 -56.292  1.00  0.00     0.163 HD
ENDROOT
BRANCH   1  12
HETATM   12  C   UNL     1     -40.795  54.713 -53.474  1.00  0.00    -0.028 A 
HETATM   13  C   UNL     1     -41.060  55.061 -52.134  1.00  0.00     0.012 A 
HETATM   14  C   UNL     1     -40.905  54.132 -51.107  1.00  0.00     0.040 A 
HETATM   15  C   UNL     1     -40.491  52.845 -51.414  1.00  0.00     0.099 A 
HETATM   16  C   UNL     1     -40.210  52.461 -52.728  1.00  0.00     0.102 A 
HETATM   17  C   UNL     1     -40.367  53.397 -53.755  1.00  0.00     0.049 A 
BRANCH  15  18
HETATM   18  O   UNL     1     -40.367  51.946 -50.391  1.00  0.00    -0.358 OA
HETATM   19  H   UNL     1     -40.198  52.487 -49.596  1.00  0.00     0.218 HD
ENDBRANCH  15  18
BRANCH  16  20
HETATM   20  O   UNL     1     -39.817  51.155 -52.872  1.00  0.00    -0.349 OA
BRANCH  20  21
HETATM   21  C   UNL     1     -40.431  50.404 -53.917  1.00  0.00     0.171 C 
HETATM   22  C   UNL     1     -39.323  49.812 -54.771  1.00  0.00     0.034 C 
ENDBRANCH  20  21
ENDBRANCH  16  20
ENDBRANCH   1  12
BRANCH  10  23
HETATM   23  C   UNL     1     -42.254  58.327 -52.615  1.00  0.00    -0.002 A 
HETATM   24  C   UNL     1     -40.857  58.485 -52.574  1.00  0.00     0.050 A 
HETATM   25  C   UNL     1     -40.255  59.250 -51.573  1.00  0.00     0.069 A 
HETATM   26  C   UNL     1     -41.058  59.862 -50.610  1.00  0.00     0.037 A 
HETATM   27  C   UNL     1     -42.446  59.728 -50.651  1.00  0.00     0.004 A 
HETATM   28  C   UNL     1     -43.044  58.963 -51.654  1.00  0.00     0.014 A 
BRANCH  25  29
HETATM   29  O   UNL     1     -38.912  59.466 -51.426  1.00  0.00    -0.356 OA
HETATM   30  C   UNL     1     -38.471  59.916 -50.150  1.00  0.00     0.210 C 
ENDBRANCH  25  29
ENDBRANCH  10  23
TORSDOF 6
ENDMDL
MODEL 5
REMARK VINA RESULT:      -7.4      1.504      2.781
REMARK  6 active torsions:
REMARK  status: ('A' for Active; 'I' for Inactive)
REMARK    1  A    between atoms: C_2  and  O_3 
REMARK    2  A    between atoms: O_3  and  C_4 
REMARK    3  A    between atoms: C_5  and  O_6 
REMARK    4  A    between atoms: C_9  and  C_10 
REMARK    5  A    between atoms: C_19  and  C_20 
REMARK    6  A    between atoms: C_22  and  O_23 
ROOT
HETATM    1  C   UNL     1     -43.366  55.728 -53.872  1.00  0.00     0.156 A 
HETATM    2  N   UNL     1     -43.833  55.967 -55.253  1.00  0.00    -0.343 N 
HETATM    3  C   UNL     1     -42.923  55.601 -56.237  1.00  0.00     0.271 A 
HETATM    4  O   UNL     1     -43.039  55.735 -57.440  1.00  0.00    -0.266 OA
HETATM    5  C   UNL     1     -41.855  55.041 -55.503  1.00  0.00     0.128 A 
HETATM    6  C   UNL     1     -42.062  55.091 -54.153  1.00  0.00     0.034 A 
HETATM    7  N   UNL     1     -40.690  54.417 -55.725  1.00  0.00    -0.272 N 
HETATM    8  H   UNL     1     -40.226  54.214 -56.604  1.00  0.00     0.189 HD
HETATM    9  N   UNL     1     -40.141  53.975 -54.567  1.00  0.00    -0.173 NA
HETATM   10  C   UNL     1     -40.994  54.371 -53.591  1.00  0.00     0.098 A 
HETATM   11  H   UNL     1     -44.680  56.464 -55.485  1.00  0.00     0.163 HD
ENDROOT
BRANCH   1  12
HETATM   12  C   UNL     1     -43.161  57.031 -53.133  1.00  0.00    -0.028 A 
HETATM   13  C   UNL     1     -42.014  57.829 -53.316  1.00  0.00     0.012 A 
HETATM   14  C   UNL     1     -41.888  59.061 -52.678  1.00  0.00     0.040 A 
HETATM   15  C   UNL     1     -42.913  59.508 -51.858  1.00  0.00     0.099 A 
HETATM   16  C   UNL     1     -44.063  58.743 -51.643  1.00  0.00     0.102 A 
HETATM   17  C   UNL     1     -44.184  57.508 -52.285  1.00  0.00     0.049 A 
BRANCH  15  18
HETATM   18  O   UNL     1     -42.775  60.730 -51.260  1.00  0.00    -0.358 OA
HETATM   19  H   UNL     1     -42.368  60.544 -50.391  1.00  0.00     0.218 HD
ENDBRANCH  15  18
BRANCH  16  20
HETATM   20  O   UNL     1     -44.988  59.322 -50.812  1.00  0.00    -0.349 OA
BRANCH  20  21
HETATM   21  C   UNL     1     -46.158  59.864 -51.420  1.00  0.00     0.171 C 
HETATM   22  C   UNL     1     -46.259  61.322 -51.007  1.00  0.00     0.034 C 
ENDBRANCH  20  21
ENDBRANCH  16  20
ENDBRANCH   1  12
BRANCH  10  23
HETATM   23  C   UNL     1     -40.780  53.966 -52.204  1.00  0.00    -0.002 A 
HETATM   24  C   UNL     1     -40.547  52.609 -51.914  1.00  0.00     0.050 A 
HETATM   25  C   UNL     1     -40.367  52.181 -50.598  1.00  0.00     0.069 A 
HETATM   26  C   UNL     1     -40.418  53.119 -49.565  1.00  0.00     0.037 A 
HETATM   27  C   UNL     1     -40.631  54.470 -49.841  1.00  0.00     0.004 A 
HETATM   28  C   UNL     1     -40.809  54.894 -51.159  1.00  0.00     0.014 A 
BRANCH  25  29
HETATM   29  O   UNL     1     -40.143  50.893 -50.195  1.00  0.00    -0.356 OA
HETATM   30  C   UNL     1     -39.525  50.024 -51.138  1.00  0.00     0.210 C 
ENDBRANCH  25  29
ENDBRANCH  10  23
TORSDOF 6
ENDMDL
MODEL 6
REMARK VINA RESULT:      -7.4      3.063      7.088
REMARK  6 active torsions:
REMARK  status: ('A' for Active; 'I' for Inactive)
REMARK    1  A    between atoms: C_2  and  O_3 
REMARK    2  A    between atoms: O_3  and  C_4 
REMARK    3  A    between atoms: C_5  and  O_6 
REMARK    4  A    between atoms: C_9  and  C_10 
REMARK    5  A    between atoms: C_19  and  C_20 
REMARK    6  A    between atoms: C_22  and  O_23 
ROOT
HETATM    1  C   UNL     1     -42.545  54.806 -51.218  1.00  0.00     0.156 A 
HETATM    2  N   UNL     1     -42.219  54.383 -49.841  1.00  0.00    -0.343 N 
HETATM    3  C   UNL     1     -41.457  55.300 -49.125  1.00  0.00     0.271 A 
HETATM    4  O   UNL     1     -41.018  55.178 -47.998  1.00  0.00    -0.266 OA
HETATM    5  C   UNL     1     -41.332  56.387 -50.017  1.00  0.00     0.128 A 
HETATM    6  C   UNL     1     -41.934  56.152 -51.220  1.00  0.00     0.034 A 
HETATM    7  N   UNL     1     -40.831  57.630 -50.035  1.00  0.00    -0.272 N 
HETATM    8  H   UNL     1     -40.316  58.127 -49.315  1.00  0.00     0.189 HD
HETATM    9  N   UNL     1     -41.146  58.270 -51.188  1.00  0.00    -0.173 NA
HETATM   10  C   UNL     1     -41.846  57.368 -51.919  1.00  0.00     0.098 A 
HETATM   11  H   UNL     1     -42.413  53.465 -49.470  1.00  0.00     0.163 HD
ENDROOT
BRANCH   1  12
HETATM   12  C   UNL     1     -41.861  53.922 -52.236  1.00  0.00    -0.028 A 
HETATM   13  C   UNL     1     -42.114  54.027 -53.619  1.00  0.00     0.012 A 
HETATM   14  C   UNL     1     -41.412  53.251 -54.538  1.00  0.00     0.040 A 
HETATM   15  C   UNL     1     -40.445  52.368 -54.082  1.00  0.00     0.099 A 
HETATM   16  C   UNL     1     -40.169  52.227 -52.719  1.00  0.00     0.102 A 
HETATM   17  C   UNL     1     -40.876  53.008 -51.800  1.00  0.00     0.049 A 
BRANCH  15  18
HETATM   18  O   UNL     1     -39.754  51.633 -55.005  1.00  0.00    -0.358 OA
HETATM   19  H   UNL     1     -40.376  50.935 -55.290  1.00  0.00     0.218 HD
ENDBRANCH  15  18
BRANCH  16  20
HETATM   20  O   UNL     1     -39.183  51.320 -52.425  1.00  0.00    -0.349 OA
BRANCH  20  21
HETATM   21  C   UNL     1     -39.594  49.985 -52.139  1.00  0.00     0.171 C 
HETATM   22  C   UNL     1     -39.682  49.842 -50.630  1.00  0.00     0.034 C 
ENDBRANCH  20  21
ENDBRANCH  16  20
ENDBRANCH   1  12
BRANCH  10  23
HETATM   23  C   UNL     1     -42.454  57.751 -53.191  1.00  0.00    -0.002 A 
HETATM   24  C   UNL     1     -41.727  58.561 -54.082  1.00  0.00     0.050 A 
HETATM   25  C   UNL     1     -42.287  58.969 -55.294  1.00  0.00     0.069 A 
HETATM   26  C   UNL     1     -43.583  58.561 -55.616  1.00  0.00     0.037 A 
HETATM   27  C   UNL     1     -44.307  57.743 -54.749  1.00  0.00     0.004 A 
HETATM   28  C   UNL     1     -43.742  57.335 -53.539  1.00  0.00     0.014 A 
BRANCH  25  29
HETATM   29  O   UNL     1     -41.683  59.761 -56.232  1.00  0.00    -0.356 OA
HETATM   30  C   UNL     1     -42.008  59.504 -57.594  1.00  0.00     0.210 C 
ENDBRANCH  25  29
ENDBRANCH  10  23
TORSDOF 6
ENDMDL
MODEL 7
REMARK VINA RESULT:      -7.4      2.729      7.034
REMARK  6 active torsions:
REMARK  status: ('A' for Active; 'I' for Inactive)
REMARK    1  A    between atoms: C_2  and  O_3 
REMARK    2  A    between atoms: O_3  and  C_4 
REMARK    3  A    between atoms: C_5  and  O_6 
REMARK    4  A    between atoms: C_9  and  C_10 
REMARK    5  A    between atoms: C_19  and  C_20 
REMARK    6  A    between atoms: C_22  and  O_23 
ROOT
HETATM    1  C   UNL     1     -42.778  56.496 -52.532  1.00  0.00     0.156 A 
HETATM    2  N   UNL     1     -42.252  56.846 -51.197  1.00  0.00    -0.343 N 
HETATM    3  C   UNL     1     -41.403  57.946 -51.186  1.00  0.00     0.271 A 
HETATM    4  O   UNL     1     -40.803  58.410 -50.235  1.00  0.00    -0.266 OA
HETATM    5  C   UNL     1     -41.418  58.383 -52.529  1.00  0.00     0.128 A 
HETATM    6  C   UNL     1     -42.186  57.590 -53.332  1.00  0.00     0.034 A 
HETATM    7  N   UNL     1     -40.936  59.389 -53.272  1.00  0.00    -0.272 N 
HETATM    8  H   UNL     1     -40.327  60.155 -53.002  1.00  0.00     0.189 HD
HETATM    9  N   UNL     1     -41.420  59.341 -54.537  1.00  0.00    -0.173 NA
HETATM   10  C   UNL     1     -42.211  58.240 -54.577  1.00  0.00     0.098 A 
HETATM   11  H   UNL     1     -42.382  56.280 -50.371  1.00  0.00     0.163 HD
ENDROOT
BRANCH   1  12
HETATM   12  C   UNL     1     -42.241  55.161 -52.997  1.00  0.00    -0.028 A 
HETATM   13  C   UNL     1     -42.620  54.581 -54.225  1.00  0.00     0.012 A 
HETATM   14  C   UNL     1     -42.050  53.387 -54.660  1.00  0.00     0.040 A 
HETATM   15  C   UNL     1     -41.090  52.768 -53.875  1.00  0.00     0.099 A 
HETATM   16  C   UNL     1     -40.693  53.304 -52.647  1.00  0.00     0.102 A 
HETATM   17  C   UNL     1     -41.267  54.502 -52.214  1.00  0.00     0.049 A 
BRANCH  15  18
HETATM   18  O   UNL     1     -40.530  51.607 -54.334  1.00  0.00    -0.358 OA
HETATM   19  H   UNL     1     -39.572  51.706 -54.172  1.00  0.00     0.218 HD
ENDBRANCH  15  18
BRANCH  16  20
HETATM   20  O   UNL     1     -39.731  52.580 -51.990  1.00  0.00    -0.349 OA
BRANCH  20  21
HETATM   21  C   UNL     1     -40.125  51.915 -50.791  1.00  0.00     0.171 C 
HETATM   22  C   UNL     1     -39.744  50.451 -50.930  1.00  0.00     0.034 C 
ENDBRANCH  20  21
ENDBRANCH  16  20
ENDBRANCH   1  12
BRANCH  10  23
HETATM   23  C   UNL     1     -43.000  57.932 -55.767  1.00  0.00    -0.002 A 
HETATM   24  C   UNL     1     -42.429  57.147 -56.785  1.00  0.00     0.050 A 
HETATM   25  C   UNL     1     -43.144  56.856 -57.948  1.00  0.00     0.069 A 
HETATM   26  C   UNL     1     -44.441  57.353 -58.091  1.00  0.00     0.037 A 
HETATM   27  C   UNL     1     -45.025  58.117 -57.081  1.00  0.00     0.004 A 
HETATM   28  C   UNL     1     -44.307  58.404 -55.918  1.00  0.00     0.014 A 
BRANCH  25  29
HETATM   29  O   UNL     1     -42.691  56.114 -59.004  1.00  0.00    -0.356 OA
HETATM   30  C   UNL     1     -43.671  55.410 -59.760  1.00  0.00     0.210 C 
ENDBRANCH  25  29
ENDBRANCH  10  23
TORSDOF 6
ENDMDL
MODEL 8
REMARK VINA RESULT:      -7.4      2.585      5.172
REMARK  6 active torsions:
REMARK  status: ('A' for Active; 'I' for Inactive)
REMARK    1  A    between atoms: C_2  and  O_3 
REMARK    2  A    between atoms: O_3  and  C_4 
REMARK    3  A    between atoms: C_5  and  O_6 
REMARK    4  A    between atoms: C_9  and  C_10 
REMARK    5  A    between atoms: C_19  and  C_20 
REMARK    6  A    between atoms: C_22  and  O_23 
ROOT
HETATM    1  C   UNL     1     -41.165  57.126 -53.565  1.00  0.00     0.156 A 
HETATM    2  N   UNL     1     -41.635  58.500 -53.297  1.00  0.00    -0.343 N 
HETATM    3  C   UNL     1     -42.417  58.627 -52.155  1.00  0.00     0.271 A 
HETATM    4  O   UNL     1     -42.963  59.630 -51.739  1.00  0.00    -0.266 OA
HETATM    5  C   UNL     1     -42.412  57.324 -51.611  1.00  0.00     0.128 A 
HETATM    6  C   UNL     1     -41.713  56.436 -52.377  1.00  0.00     0.034 A 
HETATM    7  N   UNL     1     -42.854  56.680 -50.521  1.00  0.00    -0.272 N 
HETATM    8  H   UNL     1     -43.410  57.030 -49.747  1.00  0.00     0.189 HD
HETATM    9  N   UNL     1     -42.408  55.401 -50.492  1.00  0.00    -0.173 NA
HETATM   10  C   UNL     1     -41.684  55.247 -51.628  1.00  0.00     0.098 A 
HETATM   11  H   UNL     1     -41.516  59.273 -53.935  1.00  0.00     0.163 HD
ENDROOT
BRANCH   1  12
HETATM   12  C   UNL     1     -41.792  56.571 -54.824  1.00  0.00    -0.028 A 
HETATM   13  C   UNL     1     -42.136  55.211 -54.960  1.00  0.00     0.012 A 
HETATM   14  C   UNL     1     -42.782  54.745 -56.103  1.00  0.00     0.040 A 
HETATM   15  C   UNL     1     -43.095  55.638 -57.116  1.00  0.00     0.099 A 
HETATM   16  C   UNL     1     -42.764  56.993 -57.025  1.00  0.00     0.102 A 
HETATM   17  C   UNL     1     -42.116  57.456 -55.876  1.00  0.00     0.049 A 
BRANCH  15  18
HETATM   18  O   UNL     1     -43.748  55.160 -58.219  1.00  0.00    -0.358 OA
HETATM   19  H   UNL     1     -44.113  54.297 -57.944  1.00  0.00     0.218 HD
ENDBRANCH  15  18
BRANCH  16  20
HETATM   20  O   UNL     1     -43.145  57.749 -58.103  1.00  0.00    -0.349 OA
BRANCH  20  21
HETATM   21  C   UNL     1     -42.111  58.402 -58.837  1.00  0.00     0.171 C 
HETATM   22  C   UNL     1     -41.828  57.569 -60.075  1.00  0.00     0.034 C 
ENDBRANCH  20  21
ENDBRANCH  16  20
ENDBRANCH   1  12
BRANCH  10  23
HETATM   23  C   UNL     1     -40.946  54.013 -51.881  1.00  0.00    -0.002 A 
HETATM   24  C   UNL     1     -41.160  53.320 -53.087  1.00  0.00     0.050 A 
HETATM   25  C   UNL     1     -40.493  52.122 -53.350  1.00  0.00     0.069 A 
HETATM   26  C   UNL     1     -39.604  51.616 -52.400  1.00  0.00     0.037 A 
HETATM   27  C   UNL     1     -39.370  52.302 -51.208  1.00  0.00     0.004 A 
HETATM   28  C   UNL     1     -40.038  53.501 -50.949  1.00  0.00     0.014 A 
BRANCH  25  29
HETATM   29  O   UNL     1     -40.626  51.360 -54.478  1.00  0.00    -0.356 OA
HETATM   30  C   UNL     1     -40.038  50.064 -54.449  1.00  0.00     0.210 C 
ENDBRANCH  25  29
ENDBRANCH  10  23
TORSDOF 6
ENDMDL
MODEL 9
REMARK VINA RESULT:      -7.3      1.706      5.313
REMARK  6 active torsions:
REMARK  status: ('A' for Active; 'I' for Inactive)
REMARK    1  A    between atoms: C_2  and  O_3 
REMARK    2  A    between atoms: O_3  and  C_4 
REMARK    3  A    between atoms: C_5  and  O_6 
REMARK    4  A    between atoms: C_9  and  C_10 
REMARK    5  A    between atoms: C_19  and  C_20 
REMARK    6  A    between atoms: C_22  and  O_23 
ROOT
HETATM    1  C   UNL     1     -41.084  55.435 -54.889  1.00  0.00     0.156 A 
HETATM    2  N   UNL     1     -41.493  55.008 -56.242  1.00  0.00    -0.343 N 
HETATM    3  C   UNL     1     -42.827  55.255 -56.544  1.00  0.00     0.271 A 
HETATM    4  O   UNL     1     -43.423  54.961 -57.562  1.00  0.00    -0.266 OA
HETATM    5  C   UNL     1     -43.302  55.926 -55.396  1.00  0.00     0.128 A 
HETATM    6  C   UNL     1     -42.347  56.052 -54.427  1.00  0.00     0.034 A 
HETATM    7  N   UNL     1     -44.416  56.535 -54.967  1.00  0.00    -0.272 N 
HETATM    8  H   UNL     1     -45.316  56.628 -55.426  1.00  0.00     0.189 HD
HETATM    9  N   UNL     1     -44.217  57.135 -53.769  1.00  0.00    -0.173 NA
HETATM   10  C   UNL     1     -42.932  56.858 -53.436  1.00  0.00     0.098 A 
HETATM   11  H   UNL     1     -40.909  54.470 -56.866  1.00  0.00     0.163 HD
ENDROOT
BRANCH   1  12
HETATM   12  C   UNL     1     -40.739  54.246 -54.023  1.00  0.00    -0.028 A 
HETATM   13  C   UNL     1     -40.599  52.945 -54.548  1.00  0.00     0.012 A 
HETATM   14  C   UNL     1     -40.206  51.882 -53.737  1.00  0.00     0.040 A 
HETATM   15  C   UNL     1     -39.941  52.114 -52.396  1.00  0.00     0.099 A 
HETATM   16  C   UNL     1     -40.075  53.387 -51.834  1.00  0.00     0.102 A 
HETATM   17  C   UNL     1     -40.471  54.449 -52.651  1.00  0.00     0.049 A 
BRANCH  15  18
HETATM   18  O   UNL     1     -39.536  51.059 -51.626  1.00  0.00    -0.358 OA
HETATM   19  H   UNL     1     -38.867  50.594 -52.165  1.00  0.00     0.218 HD
ENDBRANCH  15  18
BRANCH  16  20
HETATM   20  O   UNL     1     -39.772  53.458 -50.498  1.00  0.00    -0.349 OA
BRANCH  20  21
HETATM   21  C   UNL     1     -40.866  53.546 -49.588  1.00  0.00     0.171 C 
HETATM   22  C   UNL     1     -40.329  54.079 -48.272  1.00  0.00     0.034 C 
ENDBRANCH  20  21
ENDBRANCH  16  20
ENDBRANCH   1  12
BRANCH  10  23
HETATM   23  C   UNL     1     -42.325  57.447 -52.246  1.00  0.00    -0.002 A 
HETATM   24  C   UNL     1     -42.407  58.838 -52.051  1.00  0.00     0.050 A 
HETATM   25  C   UNL     1     -41.814  59.439 -50.939  1.00  0.00     0.069 A 
HETATM   26  C   UNL     1     -41.138  58.641 -50.015  1.00  0.00     0.037 A 
HETATM   27  C   UNL     1     -41.066  57.258 -50.187  1.00  0.00     0.004 A 
HETATM   28  C   UNL     1     -41.661  56.661 -51.299  1.00  0.00     0.014 A 
BRANCH  25  29
HETATM   29  O   UNL     1     -41.820  60.776 -50.650  1.00  0.00    -0.356 OA
HETATM   30  C   UNL     1     -43.083  61.363 -50.355  1.00  0.00     0.210 C 
ENDBRANCH  25  29
ENDBRANCH  10  23
TORSDOF 6
ENDMDL
MODEL 10
REMARK VINA RESULT:      -7.2      2.086      3.286
REMARK  6 active torsions:
REMARK  status: ('A' for Active; 'I' for Inactive)
REMARK    1  A    between atoms: C_2  and  O_3 
REMARK    2  A    between atoms: O_3  and  C_4 
REMARK    3  A    between atoms: C_5  and  O_6 
REMARK    4  A    between atoms: C_9  and  C_10 
REMARK    5  A    between atoms: C_19  and  C_20 
REMARK    6  A    between atoms: C_22  and  O_23 
ROOT
HETATM    1  C   UNL     1     -43.279  56.803 -53.373  1.00  0.00     0.156 A 
HETATM    2  N   UNL     1     -44.153  57.612 -54.246  1.00  0.00    -0.343 N 
HETATM    3  C   UNL     1     -43.963  57.398 -55.606  1.00  0.00     0.271 A 
HETATM    4  O   UNL     1     -44.515  57.964 -56.530  1.00  0.00    -0.266 OA
HETATM    5  C   UNL     1     -42.992  56.374 -55.642  1.00  0.00     0.128 A 
HETATM    6  C   UNL     1     -42.572  56.003 -54.396  1.00  0.00     0.034 A 
HETATM    7  N   UNL     1     -42.369  55.599 -56.541  1.00  0.00    -0.272 N 
HETATM    8  H   UNL     1     -42.438  55.605 -57.554  1.00  0.00     0.189 HD
HETATM    9  N   UNL     1     -41.600  54.663 -55.934  1.00  0.00    -0.173 NA
HETATM   10  C   UNL     1     -41.735  54.894 -54.605  1.00  0.00     0.098 A 
HETATM   11  H   UNL     1     -44.756  58.351 -53.915  1.00  0.00     0.163 HD
ENDROOT
BRANCH   1  12
HETATM   12  C   UNL     1     -42.297  57.676 -52.625  1.00  0.00    -0.028 A 
HETATM   13  C   UNL     1     -40.943  57.783 -53.002  1.00  0.00     0.012 A 
HETATM   14  C   UNL     1     -40.080  58.654 -52.340  1.00  0.00     0.040 A 
HETATM   15  C   UNL     1     -40.568  59.431 -51.301  1.00  0.00     0.099 A 
HETATM   16  C   UNL     1     -41.901  59.349 -50.890  1.00  0.00     0.102 A 
HETATM   17  C   UNL     1     -42.763  58.474 -51.557  1.00  0.00     0.049 A 
BRANCH  15  18
HETATM   18  O   UNL     1     -39.706  60.293 -50.680  1.00  0.00    -0.358 OA
HETATM   19  H   UNL     1     -40.243  61.082 -50.471  1.00  0.00     0.218 HD
ENDBRANCH  15  18
BRANCH  16  20
HETATM   20  O   UNL     1     -42.233  60.184 -49.854  1.00  0.00    -0.349 OA
BRANCH  20  21
HETATM   21  C   UNL     1     -43.394  60.995 -50.020  1.00  0.00     0.171 C 
HETATM   22  C   UNL     1     -42.938  62.358 -50.510  1.00  0.00     0.034 C 
ENDBRANCH  20  21
ENDBRANCH  16  20
ENDBRANCH   1  12
BRANCH  10  23
HETATM   23  C   UNL     1     -41.130  53.994 -53.627  1.00  0.00    -0.002 A 
HETATM   24  C   UNL     1     -40.478  52.831 -54.076  1.00  0.00     0.050 A 
HETATM   25  C   UNL     1     -39.913  51.934 -53.167  1.00  0.00     0.069 A 
HETATM   26  C   UNL     1     -40.000  52.205 -51.800  1.00  0.00     0.037 A 
HETATM   27  C   UNL     1     -40.628  53.364 -51.344  1.00  0.00     0.004 A 
HETATM   28  C   UNL     1     -41.190  54.259 -52.256  1.00  0.00     0.014 A 
BRANCH  25  29
HETATM   29  O   UNL     1     -39.264  50.772 -53.484  1.00  0.00    -0.356 OA
HETATM   30  C   UNL     1     -39.892  49.928 -54.443  1.00  0.00     0.210 C 
ENDBRANCH  25  29
ENDBRANCH  10  23
TORSDOF 6
ENDMDL
