MODEL 1
REMARK VINA RESULT:      -8.1      0.000      0.000
REMARK  4 active torsions:
REMARK  status: ('A' for Active; 'I' for Inactive)
REMARK    1  A    between atoms: C_2  and  C_3 
REMARK    2  A    between atoms: C_11  and  C_12 
REMARK       I    between atoms: C_12  and  N_13 
REMARK    3  A    between atoms: N_13  and  C_14 
REMARK    4  A    between atoms: C_21  and  C_22 
REMARK       I    between atoms: C_22  and  N_23 
ROOT
HETATM    1  C   UNL     1     -43.703  56.169 -53.968  1.00  0.00     0.035 A 
HETATM    2  C   UNL     1     -43.436  57.359 -54.655  1.00  0.00     0.046 A 
HETATM    3  C   UNL     1     -42.935  57.309 -55.975  1.00  0.00     0.030 A 
HETATM    4  C   UNL     1     -42.730  56.073 -56.572  1.00  0.00     0.063 A 
HETATM    5  N   UNL     1     -42.255  56.348 -57.825  1.00  0.00    -0.277 N 
HETATM    6  H   UNL     1     -41.997  55.683 -58.544  1.00  0.00     0.189 HD
HETATM    7  N   UNL     1     -42.131  57.659 -58.096  1.00  0.00    -0.168 NA
HETATM    8  C   UNL     1     -42.549  58.265 -56.962  1.00  0.00     0.156 A 
HETATM    9  C   UNL     1     -42.999  54.866 -55.929  1.00  0.00     0.034 A 
HETATM   10  C   UNL     1     -43.491  54.944 -54.619  1.00  0.00     0.032 A 
ENDROOT
BRANCH   1  11
HETATM   11  N   UNL     1     -44.215  56.092 -52.660  1.00  0.00    -0.324 N 
HETATM   12  C   UNL     1     -43.984  56.777 -51.504  1.00  0.00     0.246 C 
HETATM   13  O   UNL     1     -44.692  56.555 -50.524  1.00  0.00    -0.268 OA
HETATM   14  H   UNL     1     -44.949  55.407 -52.508  1.00  0.00     0.169 HD
BRANCH  12  15
HETATM   15  C   UNL     1     -42.844  57.712 -51.409  1.00  0.00     0.082 C 
HETATM   16  C   UNL     1     -41.593  57.324 -51.099  1.00  0.00    -0.043 C 
HETATM   17  C   UNL     1     -40.442  58.286 -51.056  1.00  0.00     0.049 C 
BRANCH  16  18
HETATM   18  C   UNL     1     -41.263  55.928 -50.764  1.00  0.00     0.009 A 
HETATM   19  C   UNL     1     -40.873  55.018 -51.756  1.00  0.00     0.130 A 
HETATM   20  F   UNL     1     -40.760  55.416 -53.032  1.00  0.00    -0.205 F 
HETATM   21  C   UNL     1     -40.592  53.692 -51.445  1.00  0.00     0.085 A 
HETATM   22  C   UNL     1     -40.694  53.275 -50.125  1.00  0.00     0.119 A 
HETATM   23  F   UNL     1     -40.423  52.001 -49.813  1.00  0.00    -0.206 F 
HETATM   24  C   UNL     1     -41.070  54.159 -49.117  1.00  0.00     0.043 A 
HETATM   25  C   UNL     1     -41.359  55.488 -49.435  1.00  0.00     0.018 A 
ENDBRANCH  16  18
ENDBRANCH  12  15
ENDBRANCH   1  11
BRANCH   8  26
HETATM   26  C   UNL     1     -42.571  59.729 -56.835  1.00  0.00     0.270 C 
HETATM   27  N   UNL     1     -43.733  60.309 -57.264  1.00  0.00    -0.365 N 
HETATM   28  H   UNL     1     -44.467  59.714 -57.631  1.00  0.00     0.159 HD
HETATM   29  H   UNL     1     -43.840  61.311 -57.225  1.00  0.00     0.159 HD
HETATM   30  O   UNL     1     -41.646  60.400 -56.391  1.00  0.00    -0.266 OA
ENDBRANCH   8  26
TORSDOF 4
ENDMDL
MODEL 2
REMARK VINA RESULT:      -8.0      2.405      3.307
REMARK  4 active torsions:
REMARK  status: ('A' for Active; 'I' for Inactive)
REMARK    1  A    between atoms: C_2  and  C_3 
REMARK    2  A    between atoms: C_11  and  C_12 
REMARK       I    between atoms: C_12  and  N_13 
REMARK    3  A    between atoms: N_13  and  C_14 
REMARK    4  A    between atoms: C_21  and  C_22 
REMARK       I    between atoms: C_22  and  N_23 
ROOT
HETATM    1  C   UNL     1     -42.802  57.790 -53.626  1.00  0.00     0.035 A 
HETATM    2  C   UNL     1     -42.586  57.469 -54.971  1.00  0.00     0.046 A 
HETATM    3  C   UNL     1     -43.648  57.577 -55.897  1.00  0.00     0.030 A 
HETATM    4  C   UNL     1     -44.887  58.017 -55.453  1.00  0.00     0.063 A 
HETATM    5  N   UNL     1     -45.690  58.020 -56.560  1.00  0.00    -0.277 N 
HETATM    6  H   UNL     1     -46.666  58.288 -56.611  1.00  0.00     0.189 HD
HETATM    7  N   UNL     1     -45.080  57.620 -57.690  1.00  0.00    -0.168 NA
HETATM    8  C   UNL     1     -43.817  57.344 -57.295  1.00  0.00     0.156 A 
HETATM    9  C   UNL     1     -45.139  58.362 -54.126  1.00  0.00     0.034 A 
HETATM   10  C   UNL     1     -44.070  58.241 -53.228  1.00  0.00     0.032 A 
ENDROOT
BRANCH   1  11
HETATM   11  N   UNL     1     -41.823  57.735 -52.617  1.00  0.00    -0.324 N 
HETATM   12  C   UNL     1     -41.703  57.053 -51.443  1.00  0.00     0.246 C 
HETATM   13  O   UNL     1     -40.646  57.121 -50.816  1.00  0.00    -0.268 OA
HETATM   14  H   UNL     1     -40.986  58.286 -52.777  1.00  0.00     0.169 HD
BRANCH  12  15
HETATM   15  C   UNL     1     -42.854  56.311 -50.892  1.00  0.00     0.082 C 
HETATM   16  C   UNL     1     -43.077  55.006 -51.133  1.00  0.00    -0.043 C 
HETATM   17  C   UNL     1     -44.229  54.261 -50.522  1.00  0.00     0.049 C 
BRANCH  16  18
HETATM   18  C   UNL     1     -42.216  54.213 -52.028  1.00  0.00     0.009 A 
HETATM   19  C   UNL     1     -42.545  54.035 -53.379  1.00  0.00     0.130 A 
HETATM   20  F   UNL     1     -43.641  54.616 -53.891  1.00  0.00    -0.205 F 
HETATM   21  C   UNL     1     -41.750  53.260 -54.216  1.00  0.00     0.085 A 
HETATM   22  C   UNL     1     -40.608  52.666 -53.698  1.00  0.00     0.119 A 
HETATM   23  F   UNL     1     -39.832  51.921 -54.496  1.00  0.00    -0.206 F 
HETATM   24  C   UNL     1     -40.250  52.834 -52.363  1.00  0.00     0.043 A 
HETATM   25  C   UNL     1     -41.057  53.606 -51.524  1.00  0.00     0.018 A 
ENDBRANCH  16  18
ENDBRANCH  12  15
ENDBRANCH   1  11
BRANCH   8  26
HETATM   26  C   UNL     1     -42.802  56.864 -58.243  1.00  0.00     0.270 C 
HETATM   27  N   UNL     1     -41.795  57.758 -58.484  1.00  0.00    -0.365 N 
HETATM   28  H   UNL     1     -41.821  58.657 -58.015  1.00  0.00     0.159 HD
HETATM   29  H   UNL     1     -41.056  57.523 -59.127  1.00  0.00     0.159 HD
HETATM   30  O   UNL     1     -42.827  55.766 -58.789  1.00  0.00    -0.266 OA
ENDBRANCH   8  26
TORSDOF 4
ENDMDL
MODEL 3
REMARK VINA RESULT:      -7.9      1.782      2.175
REMARK  4 active torsions:
REMARK  status: ('A' for Active; 'I' for Inactive)
REMARK    1  A    between atoms: C_2  and  C_3 
REMARK    2  A    between atoms: C_11  and  C_12 
REMARK       I    between atoms: C_12  and  N_13 
REMARK    3  A    between atoms: N_13  and  C_14 
REMARK    4  A    between atoms: C_21  and  C_22 
REMARK       I    between atoms: C_22  and  N_23 
ROOT
HETATM    1  C   UNL     1     -43.352  55.014 -53.916  1.00  0.00     0.035 A 
HETATM    2  C   UNL     1     -43.052  56.381 -53.881  1.00  0.00     0.046 A 
HETATM    3  C   UNL     1     -42.646  57.040 -55.063  1.00  0.00     0.030 A 
HETATM    4  C   UNL     1     -42.567  56.317 -56.245  1.00  0.00     0.063 A 
HETATM    5  N   UNL     1     -42.160  57.215 -57.193  1.00  0.00    -0.277 N 
HETATM    6  H   UNL     1     -41.997  57.037 -58.178  1.00  0.00     0.189 HD
HETATM    7  N   UNL     1     -41.967  58.462 -56.731  1.00  0.00    -0.168 NA
HETATM    8  C   UNL     1     -42.265  58.370 -55.416  1.00  0.00     0.156 A 
HETATM    9  C   UNL     1     -42.872  54.960 -56.325  1.00  0.00     0.034 A 
HETATM   10  C   UNL     1     -43.267  54.329 -55.138  1.00  0.00     0.032 A 
ENDROOT
BRANCH   1  11
HETATM   11  N   UNL     1     -43.778  54.254 -52.811  1.00  0.00    -0.324 N 
HETATM   12  C   UNL     1     -43.585  54.341 -51.464  1.00  0.00     0.246 C 
HETATM   13  O   UNL     1     -44.202  53.580 -50.721  1.00  0.00    -0.268 OA
HETATM   14  H   UNL     1     -44.397  53.477 -53.017  1.00  0.00     0.169 HD
BRANCH  12  15
HETATM   15  C   UNL     1     -42.587  55.280 -50.914  1.00  0.00     0.082 C 
HETATM   16  C   UNL     1     -41.279  54.985 -50.798  1.00  0.00    -0.043 C 
HETATM   17  C   UNL     1     -40.275  55.974 -50.281  1.00  0.00     0.049 C 
BRANCH  16  18
HETATM   18  C   UNL     1     -40.736  53.663 -51.157  1.00  0.00     0.009 A 
HETATM   19  C   UNL     1     -40.311  53.385 -52.463  1.00  0.00     0.130 A 
HETATM   20  F   UNL     1     -40.360  54.336 -53.408  1.00  0.00    -0.205 F 
HETATM   21  C   UNL     1     -39.829  52.127 -52.809  1.00  0.00     0.085 A 
HETATM   22  C   UNL     1     -39.763  51.141 -51.835  1.00  0.00     0.119 A 
HETATM   23  F   UNL     1     -39.296  49.927 -52.156  1.00  0.00    -0.206 F 
HETATM   24  C   UNL     1     -40.169  51.391 -50.527  1.00  0.00     0.043 A 
HETATM   25  C   UNL     1     -40.660  52.653 -50.186  1.00  0.00     0.018 A 
ENDBRANCH  16  18
ENDBRANCH  12  15
ENDBRANCH   1  11
BRANCH   8  26
HETATM   26  C   UNL     1     -42.180  59.535 -54.524  1.00  0.00     0.270 C 
HETATM   27  N   UNL     1     -43.375  60.163 -54.310  1.00  0.00    -0.365 N 
HETATM   28  H   UNL     1     -44.204  59.801 -54.768  1.00  0.00     0.159 HD
HETATM   29  H   UNL     1     -43.417  60.979 -53.718  1.00  0.00     0.159 HD
HETATM   30  O   UNL     1     -41.144  59.934 -54.003  1.00  0.00    -0.266 OA
ENDBRANCH   8  26
TORSDOF 4
ENDMDL
MODEL 4
REMARK VINA RESULT:      -7.7      3.795      7.230
REMARK  4 active torsions:
REMARK  status: ('A' for Active; 'I' for Inactive)
REMARK    1  A    between atoms: C_2  and  C_3 
REMARK    2  A    between atoms: C_11  and  C_12 
REMARK       I    between atoms: C_12  and  N_13 
REMARK    3  A    between atoms: N_13  and  C_14 
REMARK    4  A    between atoms: C_21  and  C_22 
REMARK       I    between atoms: C_22  and  N_23 
ROOT
HETATM    1  C   UNL     1     -43.640  55.346 -53.914  1.00  0.00     0.035 A 
HETATM    2  C   UNL     1     -43.125  55.370 -52.613  1.00  0.00     0.046 A 
HETATM    3  C   UNL     1     -42.030  54.543 -52.277  1.00  0.00     0.030 A 
HETATM    4  C   UNL     1     -41.474  53.730 -53.254  1.00  0.00     0.063 A 
HETATM    5  N   UNL     1     -40.449  53.068 -52.637  1.00  0.00    -0.277 N 
HETATM    6  H   UNL     1     -39.819  52.389 -53.049  1.00  0.00     0.189 HD
HETATM    7  N   UNL     1     -40.288  53.379 -51.339  1.00  0.00    -0.168 NA
HETATM    8  C   UNL     1     -41.257  54.292 -51.103  1.00  0.00     0.156 A 
HETATM    9  C   UNL     1     -41.946  53.689 -54.565  1.00  0.00     0.034 A 
HETATM   10  C   UNL     1     -43.036  54.515 -54.870  1.00  0.00     0.032 A 
ENDROOT
BRANCH   1  11
HETATM   11  N   UNL     1     -44.715  56.131 -54.370  1.00  0.00    -0.324 N 
HETATM   12  C   UNL     1     -44.819  57.227 -55.174  1.00  0.00     0.246 C 
HETATM   13  O   UNL     1     -45.937  57.628 -55.497  1.00  0.00    -0.268 OA
HETATM   14  H   UNL     1     -45.640  55.827 -54.088  1.00  0.00     0.169 HD
BRANCH  12  15
HETATM   15  C   UNL     1     -43.610  57.971 -55.581  1.00  0.00     0.082 C 
HETATM   16  C   UNL     1     -43.131  57.971 -56.839  1.00  0.00    -0.043 C 
HETATM   17  C   UNL     1     -41.927  58.774 -57.239  1.00  0.00     0.049 C 
BRANCH  16  18
HETATM   18  C   UNL     1     -43.743  57.170 -57.914  1.00  0.00     0.009 A 
HETATM   19  C   UNL     1     -44.805  57.674 -58.676  1.00  0.00     0.130 A 
HETATM   20  F   UNL     1     -45.265  58.917 -58.460  1.00  0.00    -0.205 F 
HETATM   21  C   UNL     1     -45.404  56.907 -59.670  1.00  0.00     0.085 A 
HETATM   22  C   UNL     1     -44.928  55.626 -59.909  1.00  0.00     0.119 A 
HETATM   23  F   UNL     1     -45.494  54.880 -60.866  1.00  0.00    -0.206 F 
HETATM   24  C   UNL     1     -43.867  55.103 -59.174  1.00  0.00     0.043 A 
HETATM   25  C   UNL     1     -43.274  55.874 -58.172  1.00  0.00     0.018 A 
ENDBRANCH  16  18
ENDBRANCH  12  15
ENDBRANCH   1  11
BRANCH   8  26
HETATM   26  C   UNL     1     -41.435  54.900 -49.777  1.00  0.00     0.270 C 
HETATM   27  N   UNL     1     -41.496  56.266 -49.793  1.00  0.00    -0.365 N 
HETATM   28  H   UNL     1     -41.412  56.746 -50.682  1.00  0.00     0.159 HD
HETATM   29  H   UNL     1     -41.608  56.775 -48.930  1.00  0.00     0.159 HD
HETATM   30  O   UNL     1     -41.523  54.267 -48.730  1.00  0.00    -0.266 OA
ENDBRANCH   8  26
TORSDOF 4
ENDMDL
MODEL 5
REMARK VINA RESULT:      -7.6      3.199      6.080
REMARK  4 active torsions:
REMARK  status: ('A' for Active; 'I' for Inactive)
REMARK    1  A    between atoms: C_2  and  C_3 
REMARK    2  A    between atoms: C_11  and  C_12 
REMARK       I    between atoms: C_12  and  N_13 
REMARK    3  A    between atoms: N_13  and  C_14 
REMARK    4  A    between atoms: C_21  and  C_22 
REMARK       I    between atoms: C_22  and  N_23 
ROOT
HETATM    1  C   UNL     1     -42.879  55.107 -51.302  1.00  0.00     0.035 A 
HETATM    2  C   UNL     1     -42.260  54.331 -52.288  1.00  0.00     0.046 A 
HETATM    3  C   UNL     1     -41.191  53.475 -51.939  1.00  0.00     0.030 A 
HETATM    4  C   UNL     1     -40.786  53.409 -50.614  1.00  0.00     0.063 A 
HETATM    5  N   UNL     1     -39.757  52.508 -50.593  1.00  0.00    -0.277 N 
HETATM    6  H   UNL     1     -39.218  52.209 -49.788  1.00  0.00     0.189 HD
HETATM    7  N   UNL     1     -39.456  51.980 -51.792  1.00  0.00    -0.168 NA
HETATM    8  C   UNL     1     -40.336  52.567 -52.634  1.00  0.00     0.156 A 
HETATM    9  C   UNL     1     -41.386  54.152 -49.599  1.00  0.00     0.034 A 
HETATM   10  C   UNL     1     -42.440  54.997 -49.974  1.00  0.00     0.032 A 
ENDROOT
BRANCH   1  11
HETATM   11  N   UNL     1     -43.957  55.983 -51.525  1.00  0.00    -0.324 N 
HETATM   12  C   UNL     1     -44.062  57.281 -51.930  1.00  0.00     0.246 C 
HETATM   13  O   UNL     1     -45.176  57.750 -52.155  1.00  0.00    -0.268 OA
HETATM   14  H   UNL     1     -44.884  55.590 -51.399  1.00  0.00     0.169 HD
BRANCH  12  15
HETATM   15  C   UNL     1     -42.859  58.133 -52.017  1.00  0.00     0.082 C 
HETATM   16  C   UNL     1     -42.172  58.328 -53.158  1.00  0.00    -0.043 C 
HETATM   17  C   UNL     1     -40.980  59.238 -53.231  1.00  0.00     0.049 C 
BRANCH  16  18
HETATM   18  C   UNL     1     -42.529  57.652 -54.417  1.00  0.00     0.009 A 
HETATM   19  C   UNL     1     -41.778  56.569 -54.895  1.00  0.00     0.130 A 
HETATM   20  F   UNL     1     -40.734  56.105 -54.191  1.00  0.00    -0.205 F 
HETATM   21  C   UNL     1     -42.096  55.951 -56.099  1.00  0.00     0.085 A 
HETATM   22  C   UNL     1     -43.182  56.415 -56.827  1.00  0.00     0.119 A 
HETATM   23  F   UNL     1     -43.500  55.825 -57.987  1.00  0.00    -0.206 F 
HETATM   24  C   UNL     1     -43.952  57.483 -56.372  1.00  0.00     0.043 A 
HETATM   25  C   UNL     1     -43.624  58.105 -55.166  1.00  0.00     0.018 A 
ENDBRANCH  16  18
ENDBRANCH  12  15
ENDBRANCH   1  11
BRANCH   8  26
HETATM   26  C   UNL     1     -40.346  52.263 -54.072  1.00  0.00     0.270 C 
HETATM   27  N   UNL     1     -40.451  50.930 -54.359  1.00  0.00    -0.365 N 
HETATM   28  H   UNL     1     -40.506  50.270 -53.592  1.00  0.00     0.159 HD
HETATM   29  H   UNL     1     -40.457  50.621 -55.319  1.00  0.00     0.159 HD
HETATM   30  O   UNL     1     -40.267  53.105 -54.959  1.00  0.00    -0.266 OA
ENDBRANCH   8  26
TORSDOF 4
ENDMDL
MODEL 6
REMARK VINA RESULT:      -7.6      2.187      3.390
REMARK  4 active torsions:
REMARK  status: ('A' for Active; 'I' for Inactive)
REMARK    1  A    between atoms: C_2  and  C_3 
REMARK    2  A    between atoms: C_11  and  C_12 
REMARK       I    between atoms: C_12  and  N_13 
REMARK    3  A    between atoms: N_13  and  C_14 
REMARK    4  A    between atoms: C_21  and  C_22 
REMARK       I    between atoms: C_22  and  N_23 
ROOT
HETATM    1  C   UNL     1     -43.137  56.335 -53.168  1.00  0.00     0.035 A 
HETATM    2  C   UNL     1     -43.089  56.606 -54.540  1.00  0.00     0.046 A 
HETATM    3  C   UNL     1     -42.607  57.855 -54.992  1.00  0.00     0.030 A 
HETATM    4  C   UNL     1     -42.175  58.789 -54.060  1.00  0.00     0.063 A 
HETATM    5  N   UNL     1     -41.771  59.871 -54.790  1.00  0.00    -0.277 N 
HETATM    6  H   UNL     1     -41.393  60.744 -54.439  1.00  0.00     0.189 HD
HETATM    7  N   UNL     1     -41.902  59.725 -56.120  1.00  0.00    -0.168 NA
HETATM    8  C   UNL     1     -42.416  58.483 -56.260  1.00  0.00     0.156 A 
HETATM    9  C   UNL     1     -42.192  58.552 -52.686  1.00  0.00     0.034 A 
HETATM   10  C   UNL     1     -42.679  57.307 -52.265  1.00  0.00     0.032 A 
ENDROOT
BRANCH   1  11
HETATM   11  N   UNL     1     -43.582  55.127 -52.600  1.00  0.00    -0.324 N 
HETATM   12  C   UNL     1     -43.298  54.455 -51.448  1.00  0.00     0.246 C 
HETATM   13  O   UNL     1     -43.955  53.456 -51.161  1.00  0.00    -0.268 OA
HETATM   14  H   UNL     1     -44.301  54.630 -53.115  1.00  0.00     0.169 HD
BRANCH  12  15
HETATM   15  C   UNL     1     -42.164  54.874 -50.602  1.00  0.00     0.082 C 
HETATM   16  C   UNL     1     -40.909  54.417 -50.767  1.00  0.00    -0.043 C 
HETATM   17  C   UNL     1     -39.762  54.896 -49.925  1.00  0.00     0.049 C 
BRANCH  16  18
HETATM   18  C   UNL     1     -40.569  53.401 -51.778  1.00  0.00     0.009 A 
HETATM   19  C   UNL     1     -40.210  52.099 -51.404  1.00  0.00     0.130 A 
HETATM   20  F   UNL     1     -40.202  51.744 -50.109  1.00  0.00    -0.205 F 
HETATM   21  C   UNL     1     -39.858  51.148 -52.356  1.00  0.00     0.085 A 
HETATM   22  C   UNL     1     -39.876  51.502 -53.697  1.00  0.00     0.119 A 
HETATM   23  F   UNL     1     -39.543  50.594 -54.624  1.00  0.00    -0.206 F 
HETATM   24  C   UNL     1     -40.238  52.785 -54.100  1.00  0.00     0.043 A 
HETATM   25  C   UNL     1     -40.583  53.738 -53.140  1.00  0.00     0.018 A 
ENDBRANCH  16  18
ENDBRANCH  12  15
ENDBRANCH   1  11
BRANCH   8  26
HETATM   26  C   UNL     1     -42.720  57.919 -57.583  1.00  0.00     0.270 C 
HETATM   27  N   UNL     1     -41.650  57.888 -58.435  1.00  0.00    -0.365 N 
HETATM   28  H   UNL     1     -40.759  58.247 -58.110  1.00  0.00     0.159 HD
HETATM   29  H   UNL     1     -41.761  57.527 -59.370  1.00  0.00     0.159 HD
HETATM   30  O   UNL     1     -43.823  57.507 -57.924  1.00  0.00    -0.266 OA
ENDBRANCH   8  26
TORSDOF 4
ENDMDL
MODEL 7
REMARK VINA RESULT:      -7.6      3.293      6.289
REMARK  4 active torsions:
REMARK  status: ('A' for Active; 'I' for Inactive)
REMARK    1  A    between atoms: C_2  and  C_3 
REMARK    2  A    between atoms: C_11  and  C_12 
REMARK       I    between atoms: C_12  and  N_13 
REMARK    3  A    between atoms: N_13  and  C_14 
REMARK    4  A    between atoms: C_21  and  C_22 
REMARK       I    between atoms: C_22  and  N_23 
ROOT
HETATM    1  C   UNL     1     -41.145  55.878 -53.912  1.00  0.00     0.035 A 
HETATM    2  C   UNL     1     -41.162  55.535 -52.556  1.00  0.00     0.046 A 
HETATM    3  C   UNL     1     -40.774  54.236 -52.156  1.00  0.00     0.030 A 
HETATM    4  C   UNL     1     -40.368  53.326 -53.123  1.00  0.00     0.063 A 
HETATM    5  N   UNL     1     -40.057  52.184 -52.438  1.00  0.00    -0.277 N 
HETATM    6  H   UNL     1     -39.721  51.309 -52.824  1.00  0.00     0.189 HD
HETATM    7  N   UNL     1     -40.226  52.270 -51.107  1.00  0.00    -0.168 NA
HETATM    8  C   UNL     1     -40.667  53.533 -50.918  1.00  0.00     0.156 A 
HETATM    9  C   UNL     1     -40.322  53.634 -54.481  1.00  0.00     0.034 A 
HETATM   10  C   UNL     1     -40.716  54.927 -54.851  1.00  0.00     0.032 A 
ENDROOT
BRANCH   1  11
HETATM   11  N   UNL     1     -41.495  57.139 -54.429  1.00  0.00    -0.324 N 
HETATM   12  C   UNL     1     -41.201  58.425 -54.083  1.00  0.00     0.246 C 
HETATM   13  O   UNL     1     -41.566  59.341 -54.818  1.00  0.00    -0.268 OA
HETATM   14  H   UNL     1     -42.066  57.135 -55.268  1.00  0.00     0.169 HD
BRANCH  12  15
HETATM   15  C   UNL     1     -40.527  58.716 -52.802  1.00  0.00     0.082 C 
HETATM   16  C   UNL     1     -41.183  59.103 -51.692  1.00  0.00    -0.043 C 
HETATM   17  C   UNL     1     -40.481  59.345 -50.388  1.00  0.00     0.049 C 
BRANCH  16  18
HETATM   18  C   UNL     1     -42.638  59.333 -51.679  1.00  0.00     0.009 A 
HETATM   19  C   UNL     1     -43.526  58.326 -51.275  1.00  0.00     0.130 A 
HETATM   20  F   UNL     1     -43.060  57.139 -50.858  1.00  0.00    -0.205 F 
HETATM   21  C   UNL     1     -44.901  58.532 -51.292  1.00  0.00     0.085 A 
HETATM   22  C   UNL     1     -45.392  59.760 -51.710  1.00  0.00     0.119 A 
HETATM   23  F   UNL     1     -46.715  59.971 -51.728  1.00  0.00    -0.206 F 
HETATM   24  C   UNL     1     -44.534  60.782 -52.108  1.00  0.00     0.043 A 
HETATM   25  C   UNL     1     -43.154  60.569 -52.096  1.00  0.00     0.018 A 
ENDBRANCH  16  18
ENDBRANCH  12  15
ENDBRANCH   1  11
BRANCH   8  26
HETATM   26  C   UNL     1     -40.981  54.046 -49.577  1.00  0.00     0.270 C 
HETATM   27  N   UNL     1     -39.920  54.042 -48.715  1.00  0.00    -0.365 N 
HETATM   28  H   UNL     1     -39.027  53.693 -49.044  1.00  0.00     0.159 HD
HETATM   29  H   UNL     1     -40.039  54.367 -47.768  1.00  0.00     0.159 HD
HETATM   30  O   UNL     1     -42.087  54.448 -49.231  1.00  0.00    -0.266 OA
ENDBRANCH   8  26
TORSDOF 4
ENDMDL
MODEL 8
REMARK VINA RESULT:      -7.5      2.718      4.260
REMARK  4 active torsions:
REMARK  status: ('A' for Active; 'I' for Inactive)
REMARK    1  A    between atoms: C_2  and  C_3 
REMARK    2  A    between atoms: C_11  and  C_12 
REMARK       I    between atoms: C_12  and  N_13 
REMARK    3  A    between atoms: N_13  and  C_14 
REMARK    4  A    between atoms: C_21  and  C_22 
REMARK       I    between atoms: C_22  and  N_23 
ROOT
HETATM    1  C   UNL     1     -43.651  57.842 -56.173  1.00  0.00     0.035 A 
HETATM    2  C   UNL     1     -43.977  56.903 -57.159  1.00  0.00     0.046 A 
HETATM    3  C   UNL     1     -43.248  56.876 -58.369  1.00  0.00     0.030 A 
HETATM    4  C   UNL     1     -42.208  57.777 -58.551  1.00  0.00     0.063 A 
HETATM    5  N   UNL     1     -41.704  57.504 -59.792  1.00  0.00    -0.277 N 
HETATM    6  H   UNL     1     -40.931  57.967 -60.257  1.00  0.00     0.189 HD
HETATM    7  N   UNL     1     -42.326  56.502 -60.437  1.00  0.00    -0.168 NA
HETATM    8  C   UNL     1     -43.282  56.103 -59.569  1.00  0.00     0.156 A 
HETATM    9  C   UNL     1     -41.842  58.715 -57.588  1.00  0.00     0.034 A 
HETATM   10  C   UNL     1     -42.584  58.724 -56.399  1.00  0.00     0.032 A 
ENDROOT
BRANCH   1  11
HETATM   11  N   UNL     1     -44.293  57.957 -54.926  1.00  0.00    -0.324 N 
HETATM   12  C   UNL     1     -44.265  57.234 -53.770  1.00  0.00     0.246 C 
HETATM   13  O   UNL     1     -44.859  57.663 -52.782  1.00  0.00    -0.268 OA
HETATM   14  H   UNL     1     -44.895  58.765 -54.807  1.00  0.00     0.169 HD
BRANCH  12  15
HETATM   15  C   UNL     1     -43.601  55.916 -53.732  1.00  0.00     0.082 C 
HETATM   16  C   UNL     1     -42.413  55.704 -53.137  1.00  0.00    -0.043 C 
HETATM   17  C   UNL     1     -41.780  54.343 -53.069  1.00  0.00     0.049 C 
BRANCH  16  18
HETATM   18  C   UNL     1     -41.636  56.793 -52.521  1.00  0.00     0.009 A 
HETATM   19  C   UNL     1     -41.685  57.025 -51.140  1.00  0.00     0.130 A 
HETATM   20  F   UNL     1     -42.420  56.231 -50.345  1.00  0.00    -0.205 F 
HETATM   21  C   UNL     1     -40.977  58.073 -50.561  1.00  0.00     0.085 A 
HETATM   22  C   UNL     1     -40.205  58.891 -51.373  1.00  0.00     0.119 A 
HETATM   23  F   UNL     1     -39.516  59.902 -50.827  1.00  0.00    -0.206 F 
HETATM   24  C   UNL     1     -40.129  58.679 -52.748  1.00  0.00     0.043 A 
HETATM   25  C   UNL     1     -40.848  57.630 -53.325  1.00  0.00     0.018 A 
ENDBRANCH  16  18
ENDBRANCH  12  15
ENDBRANCH   1  11
BRANCH   8  26
HETATM   26  C   UNL     1     -44.207  55.008 -59.892  1.00  0.00     0.270 C 
HETATM   27  N   UNL     1     -44.896  55.185 -61.061  1.00  0.00    -0.365 N 
HETATM   28  H   UNL     1     -44.732  56.028 -61.599  1.00  0.00     0.159 HD
HETATM   29  H   UNL     1     -45.561  54.490 -61.363  1.00  0.00     0.159 HD
HETATM   30  O   UNL     1     -44.371  54.011 -59.197  1.00  0.00    -0.266 OA
ENDBRANCH   8  26
TORSDOF 4
ENDMDL
MODEL 9
REMARK VINA RESULT:      -7.5      2.155      2.744
REMARK  4 active torsions:
REMARK  status: ('A' for Active; 'I' for Inactive)
REMARK    1  A    between atoms: C_2  and  C_3 
REMARK    2  A    between atoms: C_11  and  C_12 
REMARK       I    between atoms: C_12  and  N_13 
REMARK    3  A    between atoms: N_13  and  C_14 
REMARK    4  A    between atoms: C_21  and  C_22 
REMARK       I    between atoms: C_22  and  N_23 
ROOT
HETATM    1  C   UNL     1     -41.707  57.064 -53.690  1.00  0.00     0.035 A 
HETATM    2  C   UNL     1     -42.810  57.627 -54.342  1.00  0.00     0.046 A 
HETATM    3  C   UNL     1     -43.178  57.163 -55.624  1.00  0.00     0.030 A 
HETATM    4  C   UNL     1     -42.443  56.141 -56.209  1.00  0.00     0.063 A 
HETATM    5  N   UNL     1     -43.036  55.914 -57.420  1.00  0.00    -0.277 N 
HETATM    6  H   UNL     1     -42.764  55.232 -58.119  1.00  0.00     0.189 HD
HETATM    7  N   UNL     1     -44.095  56.701 -57.677  1.00  0.00    -0.168 NA
HETATM    8  C   UNL     1     -44.196  57.477 -56.575  1.00  0.00     0.156 A 
HETATM    9  C   UNL     1     -41.349  55.543 -55.587  1.00  0.00     0.034 A 
HETATM   10  C   UNL     1     -41.002  56.025 -54.318  1.00  0.00     0.032 A 
ENDROOT
BRANCH   1  11
HETATM   11  N   UNL     1     -41.253  57.431 -52.410  1.00  0.00    -0.324 N 
HETATM   12  C   UNL     1     -41.656  57.148 -51.139  1.00  0.00     0.246 C 
HETATM   13  O   UNL     1     -40.968  57.529 -50.193  1.00  0.00    -0.268 OA
HETATM   14  H   UNL     1     -40.419  58.009 -52.381  1.00  0.00     0.169 HD
BRANCH  12  15
HETATM   15  C   UNL     1     -42.945  56.468 -50.901  1.00  0.00     0.082 C 
HETATM   16  C   UNL     1     -43.073  55.129 -50.837  1.00  0.00    -0.043 C 
HETATM   17  C   UNL     1     -44.386  54.462 -50.545  1.00  0.00     0.049 C 
BRANCH  16  18
HETATM   18  C   UNL     1     -41.938  54.219 -51.063  1.00  0.00     0.009 A 
HETATM   19  C   UNL     1     -41.035  53.918 -50.035  1.00  0.00     0.130 A 
HETATM   20  F   UNL     1     -41.210  54.432 -48.808  1.00  0.00    -0.205 F 
HETATM   21  C   UNL     1     -39.944  53.083 -50.256  1.00  0.00     0.085 A 
HETATM   22  C   UNL     1     -39.762  52.537 -51.519  1.00  0.00     0.119 A 
HETATM   23  F   UNL     1     -38.718  51.729 -51.743  1.00  0.00    -0.206 F 
HETATM   24  C   UNL     1     -40.649  52.810 -52.558  1.00  0.00     0.043 A 
HETATM   25  C   UNL     1     -41.738  53.655 -52.332  1.00  0.00     0.018 A 
ENDBRANCH  16  18
ENDBRANCH  12  15
ENDBRANCH   1  11
BRANCH   8  26
HETATM   26  C   UNL     1     -45.246  58.497 -56.446  1.00  0.00     0.270 C 
HETATM   27  N   UNL     1     -46.518  57.997 -56.479  1.00  0.00    -0.365 N 
HETATM   28  H   UNL     1     -46.645  56.998 -56.592  1.00  0.00     0.159 HD
HETATM   29  H   UNL     1     -47.307  58.621 -56.406  1.00  0.00     0.159 HD
HETATM   30  O   UNL     1     -45.033  59.698 -56.320  1.00  0.00    -0.266 OA
ENDBRANCH   8  26
TORSDOF 4
ENDMDL
MODEL 10
REMARK VINA RESULT:      -7.5      2.491      3.392
REMARK  4 active torsions:
REMARK  status: ('A' for Active; 'I' for Inactive)
REMARK    1  A    between atoms: C_2  and  C_3 
REMARK    2  A    between atoms: C_11  and  C_12 
REMARK       I    between atoms: C_12  and  N_13 
REMARK    3  A    between atoms: N_13  and  C_14 
REMARK    4  A    between atoms: C_21  and  C_22 
REMARK       I    between atoms: C_22  and  N_23 
ROOT
HETATM    1  C   UNL     1     -43.341  56.786 -57.293  1.00  0.00     0.035 A 
HETATM    2  C   UNL     1     -43.117  58.152 -57.498  1.00  0.00     0.046 A 
HETATM    3  C   UNL     1     -42.570  58.597 -58.722  1.00  0.00     0.030 A 
HETATM    4  C   UNL     1     -42.278  57.666 -59.709  1.00  0.00     0.063 A 
HETATM    5  N   UNL     1     -41.777  58.390 -60.755  1.00  0.00    -0.277 N 
HETATM    6  H   UNL     1     -41.459  58.037 -61.650  1.00  0.00     0.189 HD
HETATM    7  N   UNL     1     -41.717  59.715 -60.536  1.00  0.00    -0.168 NA
HETATM    8  C   UNL     1     -42.205  59.858 -59.284  1.00  0.00     0.156 A 
HETATM    9  C   UNL     1     -42.501  56.299 -59.551  1.00  0.00     0.034 A 
HETATM   10  C   UNL     1     -43.040  55.884 -58.325  1.00  0.00     0.032 A 
ENDROOT
BRANCH   1  11
HETATM   11  N   UNL     1     -43.891  56.225 -56.126  1.00  0.00    -0.324 N 
HETATM   12  C   UNL     1     -43.783  56.501 -54.795  1.00  0.00     0.246 C 
HETATM   13  O   UNL     1     -44.500  55.896 -53.998  1.00  0.00    -0.268 OA
HETATM   14  H   UNL     1     -44.547  55.464 -56.263  1.00  0.00     0.169 HD
BRANCH  12  15
HETATM   15  C   UNL     1     -42.762  57.451 -54.312  1.00  0.00     0.082 C 
HETATM   16  C   UNL     1     -41.529  57.077 -53.922  1.00  0.00    -0.043 C 
HETATM   17  C   UNL     1     -40.491  58.069 -53.481  1.00  0.00     0.049 C 
BRANCH  16  18
HETATM   18  C   UNL     1     -41.110  55.665 -53.886  1.00  0.00     0.009 A 
HETATM   19  C   UNL     1     -41.214  54.910 -52.710  1.00  0.00     0.130 A 
HETATM   20  F   UNL     1     -41.732  55.455 -51.598  1.00  0.00    -0.205 F 
HETATM   21  C   UNL     1     -40.789  53.586 -52.666  1.00  0.00     0.085 A 
HETATM   22  C   UNL     1     -40.264  53.011 -53.814  1.00  0.00     0.119 A 
HETATM   23  F   UNL     1     -39.855  51.736 -53.785  1.00  0.00    -0.206 F 
HETATM   24  C   UNL     1     -40.158  53.734 -54.999  1.00  0.00     0.043 A 
HETATM   25  C   UNL     1     -40.579  55.065 -55.036  1.00  0.00     0.018 A 
ENDBRANCH  16  18
ENDBRANCH  12  15
ENDBRANCH   1  11
BRANCH   8  26
HETATM   26  C   UNL     1     -42.312  61.178 -58.645  1.00  0.00     0.270 C 
HETATM   27  N   UNL     1     -41.315  61.446 -57.748  1.00  0.00    -0.365 N 
HETATM   28  H   UNL     1     -40.603  60.742 -57.587  1.00  0.00     0.159 HD
HETATM   29  H   UNL     1     -41.307  62.324 -57.252  1.00  0.00     0.159 HD
HETATM   30  O   UNL     1     -43.204  61.988 -58.874  1.00  0.00    -0.266 OA
ENDBRANCH   8  26
TORSDOF 4
ENDMDL
