MODEL 1
REMARK VINA RESULT:      -8.6      0.000      0.000
REMARK  7 active torsions:
REMARK  status: ('A' for Active; 'I' for Inactive)
REMARK    1  A    between atoms: C_2  and  C_3 
REMARK    2  A    between atoms: C_3  and  C_4 
REMARK    3  A    between atoms: C_5  and  O_6 
REMARK    4  A    between atoms: O_6  and  C_7 
REMARK    5  A    between atoms: C_7  and  C_8 
REMARK       I    between atoms: C_8  and  N_9 
REMARK    6  A    between atoms: N_9  and  C_10 
REMARK    7  A    between atoms: C_17  and  C_18 
REMARK       I    between atoms: C_18  and  N_19 
ROOT
HETATM    1  C   UNL     1     -41.845  55.011 -55.610  1.00  0.00     0.246 C 
HETATM    2  N   UNL     1     -41.796  56.153 -56.405  1.00  0.00    -0.325 N 
HETATM    3  O   UNL     1     -42.819  54.280 -55.462  1.00  0.00    -0.271 OA
HETATM    4  H   UNL     1     -40.907  56.634 -56.464  1.00  0.00     0.169 HD
ENDROOT
BRANCH   2   5
HETATM    5  C   UNL     1     -42.854  56.742 -57.134  1.00  0.00     0.035 A 
HETATM    6  C   UNL     1     -43.363  56.002 -58.216  1.00  0.00     0.046 A 
HETATM    7  C   UNL     1     -44.404  56.535 -59.004  1.00  0.00     0.030 A 
HETATM    8  C   UNL     1     -44.908  57.788 -58.685  1.00  0.00     0.063 A 
HETATM    9  C   UNL     1     -45.153  56.113 -60.144  1.00  0.00     0.156 A 
HETATM   10  N   UNL     1     -45.885  58.033 -59.610  1.00  0.00    -0.277 N 
HETATM   11  C   UNL     1     -44.431  58.547 -57.617  1.00  0.00     0.034 A 
HETATM   12  H   UNL     1     -46.467  58.860 -59.682  1.00  0.00     0.189 HD
HETATM   13  N   UNL     1     -46.063  57.047 -60.505  1.00  0.00    -0.168 NA
HETATM   14  C   UNL     1     -43.393  57.998 -56.849  1.00  0.00     0.032 A 
BRANCH   9  15
HETATM   15  C   UNL     1     -45.015  54.852 -60.882  1.00  0.00     0.270 C 
HETATM   16  N   UNL     1     -45.020  53.736 -60.092  1.00  0.00    -0.365 N 
HETATM   17  H   UNL     1     -45.114  53.853 -59.089  1.00  0.00     0.159 HD
HETATM   18  H   UNL     1     -44.930  52.822 -60.508  1.00  0.00     0.159 HD
HETATM   19  O   UNL     1     -44.904  54.772 -62.102  1.00  0.00    -0.266 OA
ENDBRANCH   9  15
ENDBRANCH   2   5
BRANCH   1  20
HETATM   20  C   UNL     1     -40.505  54.754 -54.904  1.00  0.00     0.278 C 
BRANCH  20  21
HETATM   21  O   UNL     1     -40.659  54.677 -53.486  1.00  0.00    -0.342 OA
BRANCH  21  22
HETATM   22  C   UNL     1     -40.335  53.441 -52.994  1.00  0.00     0.076 A 
HETATM   23  C   UNL     1     -40.272  53.202 -51.613  1.00  0.00    -0.021 A 
HETATM   24  C   UNL     1     -39.924  51.896 -51.199  1.00  0.00     0.010 A 
HETATM   25  C   UNL     1     -39.604  50.892 -52.115  1.00  0.00     0.001 A 
HETATM   26  C   UNL     1     -39.611  51.169 -53.475  1.00  0.00     0.003 A 
HETATM   27  C   UNL     1     -39.967  52.442 -53.911  1.00  0.00     0.037 A 
BRANCH  23  28
HETATM   28  C   UNL     1     -40.509  54.230 -50.506  1.00  0.00     0.017 C 
HETATM   29  C   UNL     1     -39.481  54.321 -49.373  1.00  0.00     0.015 C 
BRANCH  28  30
HETATM   30  C   UNL     1     -41.945  54.136 -49.929  1.00  0.00     0.004 C 
HETATM   31  C   UNL     1     -43.055  54.491 -50.909  1.00  0.00     0.006 C 
ENDBRANCH  28  30
ENDBRANCH  23  28
ENDBRANCH  21  22
ENDBRANCH  20  21
ENDBRANCH   1  20
TORSDOF 7
ENDMDL
MODEL 2
REMARK VINA RESULT:      -8.6      4.761      6.867
REMARK  7 active torsions:
REMARK  status: ('A' for Active; 'I' for Inactive)
REMARK    1  A    between atoms: C_2  and  C_3 
REMARK    2  A    between atoms: C_3  and  C_4 
REMARK    3  A    between atoms: C_5  and  O_6 
REMARK    4  A    between atoms: O_6  and  C_7 
REMARK    5  A    between atoms: C_7  and  C_8 
REMARK       I    between atoms: C_8  and  N_9 
REMARK    6  A    between atoms: N_9  and  C_10 
REMARK    7  A    between atoms: C_17  and  C_18 
REMARK       I    between atoms: C_18  and  N_19 
ROOT
HETATM    1  C   UNL     1     -41.109  55.049 -50.016  1.00  0.00     0.246 C 
HETATM    2  N   UNL     1     -41.327  55.958 -51.049  1.00  0.00    -0.325 N 
HETATM    3  O   UNL     1     -41.123  55.309 -48.818  1.00  0.00    -0.271 OA
HETATM    4  H   UNL     1     -41.329  55.588 -51.992  1.00  0.00     0.169 HD
ENDROOT
BRANCH   2   5
HETATM    5  C   UNL     1     -41.533  57.352 -50.943  1.00  0.00     0.035 A 
HETATM    6  C   UNL     1     -42.854  57.809 -51.096  1.00  0.00     0.046 A 
HETATM    7  C   UNL     1     -43.133  59.190 -51.025  1.00  0.00     0.030 A 
HETATM    8  C   UNL     1     -42.085  60.071 -50.799  1.00  0.00     0.063 A 
HETATM    9  C   UNL     1     -44.293  60.013 -51.132  1.00  0.00     0.156 A 
HETATM   10  N   UNL     1     -42.653  61.315 -50.784  1.00  0.00    -0.277 N 
HETATM   11  C   UNL     1     -40.764  59.653 -50.637  1.00  0.00     0.034 A 
HETATM   12  H   UNL     1     -42.182  62.202 -50.645  1.00  0.00     0.189 HD
HETATM   13  N   UNL     1     -43.982  61.321 -50.982  1.00  0.00    -0.168 NA
HETATM   14  C   UNL     1     -40.510  58.275 -50.715  1.00  0.00     0.032 A 
BRANCH   9  15
HETATM   15  C   UNL     1     -45.674  59.577 -51.375  1.00  0.00     0.270 C 
HETATM   16  N   UNL     1     -46.212  60.042 -52.542  1.00  0.00    -0.365 N 
HETATM   17  H   UNL     1     -45.642  60.634 -53.136  1.00  0.00     0.159 HD
HETATM   18  H   UNL     1     -47.156  59.797 -52.797  1.00  0.00     0.159 HD
HETATM   19  O   UNL     1     -46.316  58.857 -50.616  1.00  0.00    -0.266 OA
ENDBRANCH   9  15
ENDBRANCH   2   5
BRANCH   1  20
HETATM   20  C   UNL     1     -40.830  53.637 -50.552  1.00  0.00     0.278 C 
BRANCH  20  21
HETATM   21  O   UNL     1     -40.031  53.667 -51.735  1.00  0.00    -0.342 OA
BRANCH  21  22
HETATM   22  C   UNL     1     -39.961  52.443 -52.346  1.00  0.00     0.076 A 
HETATM   23  C   UNL     1     -40.336  52.278 -53.688  1.00  0.00    -0.021 A 
HETATM   24  C   UNL     1     -40.235  50.978 -54.231  1.00  0.00     0.010 A 
HETATM   25  C   UNL     1     -39.831  49.885 -53.460  1.00  0.00     0.001 A 
HETATM   26  C   UNL     1     -39.527  50.061 -52.118  1.00  0.00     0.003 A 
HETATM   27  C   UNL     1     -39.601  51.335 -51.562  1.00  0.00     0.037 A 
BRANCH  23  28
HETATM   28  C   UNL     1     -40.879  53.366 -54.615  1.00  0.00     0.017 C 
HETATM   29  C   UNL     1     -39.968  54.553 -54.947  1.00  0.00     0.015 C 
BRANCH  28  30
HETATM   30  C   UNL     1     -42.276  53.865 -54.164  1.00  0.00     0.004 C 
HETATM   31  C   UNL     1     -43.263  54.119 -55.295  1.00  0.00     0.006 C 
ENDBRANCH  28  30
ENDBRANCH  23  28
ENDBRANCH  21  22
ENDBRANCH  20  21
ENDBRANCH   1  20
TORSDOF 7
ENDMDL
MODEL 3
REMARK VINA RESULT:      -8.4      4.309      6.554
REMARK  7 active torsions:
REMARK  status: ('A' for Active; 'I' for Inactive)
REMARK    1  A    between atoms: C_2  and  C_3 
REMARK    2  A    between atoms: C_3  and  C_4 
REMARK    3  A    between atoms: C_5  and  O_6 
REMARK    4  A    between atoms: O_6  and  C_7 
REMARK    5  A    between atoms: C_7  and  C_8 
REMARK       I    between atoms: C_8  and  N_9 
REMARK    6  A    between atoms: N_9  and  C_10 
REMARK    7  A    between atoms: C_17  and  C_18 
REMARK       I    between atoms: C_18  and  N_19 
ROOT
HETATM    1  C   UNL     1     -42.702  54.666 -51.138  1.00  0.00     0.246 C 
HETATM    2  N   UNL     1     -42.384  55.793 -51.893  1.00  0.00    -0.325 N 
HETATM    3  O   UNL     1     -43.827  54.342 -50.772  1.00  0.00    -0.271 OA
HETATM    4  H   UNL     1     -41.413  55.908 -52.158  1.00  0.00     0.169 HD
ENDROOT
BRANCH   2   5
HETATM    5  C   UNL     1     -43.257  56.816 -52.326  1.00  0.00     0.035 A 
HETATM    6  C   UNL     1     -43.760  57.678 -51.335  1.00  0.00     0.046 A 
HETATM    7  C   UNL     1     -44.655  58.709 -51.688  1.00  0.00     0.030 A 
HETATM    8  C   UNL     1     -45.018  58.850 -53.021  1.00  0.00     0.063 A 
HETATM    9  C   UNL     1     -45.361  59.741 -51.001  1.00  0.00     0.156 A 
HETATM   10  N   UNL     1     -45.880  59.910 -53.052  1.00  0.00    -0.277 N 
HETATM   11  C   UNL     1     -44.535  58.017 -54.030  1.00  0.00     0.034 A 
HETATM   12  H   UNL     1     -46.347  60.297 -53.865  1.00  0.00     0.189 HD
HETATM   13  N   UNL     1     -46.112  60.474 -51.854  1.00  0.00    -0.168 NA
HETATM   14  C   UNL     1     -43.648  56.997 -53.654  1.00  0.00     0.032 A 
BRANCH   9  15
HETATM   15  C   UNL     1     -45.331  60.033 -49.562  1.00  0.00     0.270 C 
HETATM   16  N   UNL     1     -44.418  60.985 -49.202  1.00  0.00    -0.365 N 
HETATM   17  H   UNL     1     -43.846  61.406 -49.926  1.00  0.00     0.159 HD
HETATM   18  H   UNL     1     -44.323  61.254 -48.235  1.00  0.00     0.159 HD
HETATM   19  O   UNL     1     -46.050  59.489 -48.730  1.00  0.00    -0.266 OA
ENDBRANCH   9  15
ENDBRANCH   2   5
BRANCH   1  20
HETATM   20  C   UNL     1     -41.452  53.845 -50.788  1.00  0.00     0.278 C 
BRANCH  20  21
HETATM   21  O   UNL     1     -40.455  53.939 -51.807  1.00  0.00    -0.342 OA
BRANCH  21  22
HETATM   22  C   UNL     1     -40.181  52.725 -52.378  1.00  0.00     0.076 A 
HETATM   23  C   UNL     1     -40.346  52.517 -53.756  1.00  0.00    -0.021 A 
HETATM   24  C   UNL     1     -40.043  51.230 -54.255  1.00  0.00     0.010 A 
HETATM   25  C   UNL     1     -39.648  50.187 -53.415  1.00  0.00     0.001 A 
HETATM   26  C   UNL     1     -39.554  50.398 -52.047  1.00  0.00     0.003 A 
HETATM   27  C   UNL     1     -39.829  51.661 -51.531  1.00  0.00     0.037 A 
BRANCH  23  28
HETATM   28  C   UNL     1     -40.855  53.541 -54.770  1.00  0.00     0.017 C 
HETATM   29  C   UNL     1     -40.211  54.931 -54.780  1.00  0.00     0.015 C 
BRANCH  28  30
HETATM   30  C   UNL     1     -42.401  53.661 -54.743  1.00  0.00     0.004 C 
HETATM   31  C   UNL     1     -43.009  54.406 -55.923  1.00  0.00     0.006 C 
ENDBRANCH  28  30
ENDBRANCH  23  28
ENDBRANCH  21  22
ENDBRANCH  20  21
ENDBRANCH   1  20
TORSDOF 7
ENDMDL
MODEL 4
REMARK VINA RESULT:      -8.4      2.770      4.569
REMARK  7 active torsions:
REMARK  status: ('A' for Active; 'I' for Inactive)
REMARK    1  A    between atoms: C_2  and  C_3 
REMARK    2  A    between atoms: C_3  and  C_4 
REMARK    3  A    between atoms: C_5  and  O_6 
REMARK    4  A    between atoms: O_6  and  C_7 
REMARK    5  A    between atoms: C_7  and  C_8 
REMARK       I    between atoms: C_8  and  N_9 
REMARK    6  A    between atoms: N_9  and  C_10 
REMARK    7  A    between atoms: C_17  and  C_18 
REMARK       I    between atoms: C_18  and  N_19 
ROOT
HETATM    1  C   UNL     1     -42.627  54.580 -51.161  1.00  0.00     0.246 C 
HETATM    2  N   UNL     1     -42.304  55.781 -51.788  1.00  0.00    -0.325 N 
HETATM    3  O   UNL     1     -43.761  54.176 -50.926  1.00  0.00    -0.271 OA
HETATM    4  H   UNL     1     -41.322  55.962 -51.954  1.00  0.00     0.169 HD
ENDROOT
BRANCH   2   5
HETATM    5  C   UNL     1     -43.189  56.799 -52.211  1.00  0.00     0.035 A 
HETATM    6  C   UNL     1     -43.329  56.977 -53.599  1.00  0.00     0.046 A 
HETATM    7  C   UNL     1     -44.178  57.988 -54.095  1.00  0.00     0.030 A 
HETATM    8  C   UNL     1     -44.864  58.787 -53.191  1.00  0.00     0.063 A 
HETATM    9  C   UNL     1     -44.565  58.469 -55.382  1.00  0.00     0.156 A 
HETATM   10  N   UNL     1     -45.588  59.660 -53.954  1.00  0.00    -0.277 N 
HETATM   11  C   UNL     1     -44.752  58.636 -51.809  1.00  0.00     0.034 A 
HETATM   12  H   UNL     1     -46.207  60.393 -53.626  1.00  0.00     0.189 HD
HETATM   13  N   UNL     1     -45.434  59.499 -55.280  1.00  0.00    -0.168 NA
HETATM   14  C   UNL     1     -43.900  57.625 -51.339  1.00  0.00     0.032 A 
BRANCH   9  15
HETATM   15  C   UNL     1     -44.121  57.967 -56.689  1.00  0.00     0.270 C 
HETATM   16  N   UNL     1     -45.122  57.435 -57.454  1.00  0.00    -0.365 N 
HETATM   17  H   UNL     1     -46.064  57.424 -57.080  1.00  0.00     0.159 HD
HETATM   18  H   UNL     1     -44.916  57.065 -58.368  1.00  0.00     0.159 HD
HETATM   19  O   UNL     1     -42.962  58.008 -57.089  1.00  0.00    -0.266 OA
ENDBRANCH   9  15
ENDBRANCH   2   5
BRANCH   1  20
HETATM   20  C   UNL     1     -41.371  53.788 -50.771  1.00  0.00     0.278 C 
BRANCH  20  21
HETATM   21  O   UNL     1     -40.369  53.849 -51.787  1.00  0.00    -0.342 OA
BRANCH  21  22
HETATM   22  C   UNL     1     -40.131  52.625 -52.355  1.00  0.00     0.076 A 
HETATM   23  C   UNL     1     -40.331  52.411 -53.727  1.00  0.00    -0.021 A 
HETATM   24  C   UNL     1     -40.064  51.114 -54.223  1.00  0.00     0.010 A 
HETATM   25  C   UNL     1     -39.669  50.070 -53.384  1.00  0.00     0.001 A 
HETATM   26  C   UNL     1     -39.540  50.290 -52.021  1.00  0.00     0.003 A 
HETATM   27  C   UNL     1     -39.780  51.562 -51.508  1.00  0.00     0.037 A 
BRANCH  23  28
HETATM   28  C   UNL     1     -40.845  53.437 -54.737  1.00  0.00     0.017 C 
HETATM   29  C   UNL     1     -40.158  54.805 -54.790  1.00  0.00     0.015 C 
BRANCH  28  30
HETATM   30  C   UNL     1     -42.384  53.606 -54.657  1.00  0.00     0.004 C 
HETATM   31  C   UNL     1     -43.016  54.318 -55.845  1.00  0.00     0.006 C 
ENDBRANCH  28  30
ENDBRANCH  23  28
ENDBRANCH  21  22
ENDBRANCH  20  21
ENDBRANCH   1  20
TORSDOF 7
ENDMDL
MODEL 5
REMARK VINA RESULT:      -8.3      0.891      2.506
REMARK  7 active torsions:
REMARK  status: ('A' for Active; 'I' for Inactive)
REMARK    1  A    between atoms: C_2  and  C_3 
REMARK    2  A    between atoms: C_3  and  C_4 
REMARK    3  A    between atoms: C_5  and  O_6 
REMARK    4  A    between atoms: O_6  and  C_7 
REMARK    5  A    between atoms: C_7  and  C_8 
REMARK       I    between atoms: C_8  and  N_9 
REMARK    6  A    between atoms: N_9  and  C_10 
REMARK    7  A    between atoms: C_17  and  C_18 
REMARK       I    between atoms: C_18  and  N_19 
ROOT
HETATM    1  C   UNL     1     -42.256  54.603 -55.421  1.00  0.00     0.246 C 
HETATM    2  N   UNL     1     -41.874  55.748 -56.116  1.00  0.00    -0.325 N 
HETATM    3  O   UNL     1     -43.346  54.047 -55.498  1.00  0.00    -0.271 OA
HETATM    4  H   UNL     1     -40.923  56.070 -55.984  1.00  0.00     0.169 HD
ENDROOT
BRANCH   2   5
HETATM    5  C   UNL     1     -42.667  56.536 -56.980  1.00  0.00     0.035 A 
HETATM    6  C   UNL     1     -43.294  55.867 -58.047  1.00  0.00     0.046 A 
HETATM    7  C   UNL     1     -44.084  56.592 -58.964  1.00  0.00     0.030 A 
HETATM    8  C   UNL     1     -44.225  57.962 -58.786  1.00  0.00     0.063 A 
HETATM    9  C   UNL     1     -44.845  56.290 -60.132  1.00  0.00     0.156 A 
HETATM   10  N   UNL     1     -45.027  58.380 -59.811  1.00  0.00    -0.277 N 
HETATM   11  C   UNL     1     -43.622  58.656 -57.737  1.00  0.00     0.034 A 
HETATM   12  H   UNL     1     -45.340  59.327 -59.997  1.00  0.00     0.189 HD
HETATM   13  N   UNL     1     -45.421  57.401 -60.644  1.00  0.00    -0.168 NA
HETATM   14  C   UNL     1     -42.840  57.915 -56.839  1.00  0.00     0.032 A 
BRANCH   9  15
HETATM   15  C   UNL     1     -45.026  54.975 -60.760  1.00  0.00     0.270 C 
HETATM   16  N   UNL     1     -45.302  53.967 -59.878  1.00  0.00    -0.365 N 
HETATM   17  H   UNL     1     -45.359  54.189 -58.890  1.00  0.00     0.159 HD
HETATM   18  H   UNL     1     -45.443  53.027 -60.214  1.00  0.00     0.159 HD
HETATM   19  O   UNL     1     -44.946  54.766 -61.966  1.00  0.00    -0.266 OA
ENDBRANCH   9  15
ENDBRANCH   2   5
BRANCH   1  20
HETATM   20  C   UNL     1     -41.132  54.093 -54.507  1.00  0.00     0.278 C 
BRANCH  20  21
HETATM   21  O   UNL     1     -41.638  53.285 -53.443  1.00  0.00    -0.342 OA
BRANCH  21  22
HETATM   22  C   UNL     1     -41.043  53.571 -52.244  1.00  0.00     0.076 A 
HETATM   23  C   UNL     1     -40.276  52.611 -51.566  1.00  0.00    -0.021 A 
HETATM   24  C   UNL     1     -39.705  52.996 -50.332  1.00  0.00     0.010 A 
HETATM   25  C   UNL     1     -39.929  54.258 -49.776  1.00  0.00     0.001 A 
HETATM   26  C   UNL     1     -40.743  55.168 -50.434  1.00  0.00     0.003 A 
HETATM   27  C   UNL     1     -41.305  54.821 -51.659  1.00  0.00     0.037 A 
BRANCH  23  28
HETATM   28  C   UNL     1     -40.026  51.172 -52.016  1.00  0.00     0.017 C 
HETATM   29  C   UNL     1     -39.447  50.186 -50.996  1.00  0.00     0.015 C 
BRANCH  28  30
HETATM   30  C   UNL     1     -39.225  51.112 -53.342  1.00  0.00     0.004 C 
HETATM   31  C   UNL     1     -39.749  50.114 -54.365  1.00  0.00     0.006 C 
ENDBRANCH  28  30
ENDBRANCH  23  28
ENDBRANCH  21  22
ENDBRANCH  20  21
ENDBRANCH   1  20
TORSDOF 7
ENDMDL
MODEL 6
REMARK VINA RESULT:      -8.2      1.872      3.157
REMARK  7 active torsions:
REMARK  status: ('A' for Active; 'I' for Inactive)
REMARK    1  A    between atoms: C_2  and  C_3 
REMARK    2  A    between atoms: C_3  and  C_4 
REMARK    3  A    between atoms: C_5  and  O_6 
REMARK    4  A    between atoms: O_6  and  C_7 
REMARK    5  A    between atoms: C_7  and  C_8 
REMARK       I    between atoms: C_8  and  N_9 
REMARK    6  A    between atoms: N_9  and  C_10 
REMARK    7  A    between atoms: C_17  and  C_18 
REMARK       I    between atoms: C_18  and  N_19 
ROOT
HETATM    1  C   UNL     1     -43.409  56.864 -53.819  1.00  0.00     0.246 C 
HETATM    2  N   UNL     1     -42.474  56.632 -54.826  1.00  0.00    -0.325 N 
HETATM    3  O   UNL     1     -44.487  57.431 -53.959  1.00  0.00    -0.271 OA
HETATM    4  H   UNL     1     -41.645  56.110 -54.570  1.00  0.00     0.169 HD
ENDROOT
BRANCH   2   5
HETATM    5  C   UNL     1     -42.534  57.055 -56.172  1.00  0.00     0.035 A 
HETATM    6  C   UNL     1     -43.123  56.165 -57.088  1.00  0.00     0.046 A 
HETATM    7  C   UNL     1     -43.198  56.509 -58.454  1.00  0.00     0.030 A 
HETATM    8  C   UNL     1     -42.686  57.733 -58.862  1.00  0.00     0.063 A 
HETATM    9  C   UNL     1     -43.694  55.899 -59.645  1.00  0.00     0.156 A 
HETATM   10  N   UNL     1     -42.895  57.782 -60.213  1.00  0.00    -0.277 N 
HETATM   11  C   UNL     1     -42.099  58.642 -57.981  1.00  0.00     0.034 A 
HETATM   12  H   UNL     1     -42.644  58.534 -60.845  1.00  0.00     0.189 HD
HETATM   13  N   UNL     1     -43.500  56.695 -60.721  1.00  0.00    -0.168 NA
HETATM   14  C   UNL     1     -42.034  58.276 -56.629  1.00  0.00     0.032 A 
BRANCH   9  15
HETATM   15  C   UNL     1     -44.338  54.585 -59.769  1.00  0.00     0.270 C 
HETATM   16  N   UNL     1     -44.975  54.384 -60.962  1.00  0.00    -0.365 N 
HETATM   17  H   UNL     1     -44.959  55.127 -61.651  1.00  0.00     0.159 HD
HETATM   18  H   UNL     1     -45.447  53.512 -61.141  1.00  0.00     0.159 HD
HETATM   19  O   UNL     1     -44.323  53.722 -58.897  1.00  0.00    -0.266 OA
ENDBRANCH   9  15
ENDBRANCH   2   5
BRANCH   1  20
HETATM   20  C   UNL     1     -42.929  56.324 -52.464  1.00  0.00     0.278 C 
BRANCH  20  21
HETATM   21  O   UNL     1     -41.534  56.017 -52.479  1.00  0.00    -0.342 OA
BRANCH  21  22
HETATM   22  C   UNL     1     -41.174  55.190 -51.448  1.00  0.00     0.076 A 
HETATM   23  C   UNL     1     -40.684  53.898 -51.691  1.00  0.00    -0.021 A 
HETATM   24  C   UNL     1     -40.343  53.115 -50.565  1.00  0.00     0.010 A 
HETATM   25  C   UNL     1     -40.529  53.578 -49.260  1.00  0.00     0.001 A 
HETATM   26  C   UNL     1     -41.074  54.835 -49.044  1.00  0.00     0.003 A 
HETATM   27  C   UNL     1     -41.404  55.633 -50.135  1.00  0.00     0.037 A 
BRANCH  23  28
HETATM   28  C   UNL     1     -40.517  53.237 -53.059  1.00  0.00     0.017 C 
HETATM   29  C   UNL     1     -41.735  53.175 -53.986  1.00  0.00     0.015 C 
BRANCH  28  30
HETATM   30  C   UNL     1     -39.849  51.842 -52.949  1.00  0.00     0.004 C 
HETATM   31  C   UNL     1     -39.856  51.023 -54.233  1.00  0.00     0.006 C 
ENDBRANCH  28  30
ENDBRANCH  23  28
ENDBRANCH  21  22
ENDBRANCH  20  21
ENDBRANCH   1  20
TORSDOF 7
ENDMDL
MODEL 7
REMARK VINA RESULT:      -8.2      2.515      4.257
REMARK  7 active torsions:
REMARK  status: ('A' for Active; 'I' for Inactive)
REMARK    1  A    between atoms: C_2  and  C_3 
REMARK    2  A    between atoms: C_3  and  C_4 
REMARK    3  A    between atoms: C_5  and  O_6 
REMARK    4  A    between atoms: O_6  and  C_7 
REMARK    5  A    between atoms: C_7  and  C_8 
REMARK       I    between atoms: C_8  and  N_9 
REMARK    6  A    between atoms: N_9  and  C_10 
REMARK    7  A    between atoms: C_17  and  C_18 
REMARK       I    between atoms: C_18  and  N_19 
ROOT
HETATM    1  C   UNL     1     -43.751  56.166 -54.542  1.00  0.00     0.246 C 
HETATM    2  N   UNL     1     -42.828  55.824 -55.528  1.00  0.00    -0.325 N 
HETATM    3  O   UNL     1     -44.746  56.866 -54.702  1.00  0.00    -0.271 OA
HETATM    4  H   UNL     1     -42.078  55.200 -55.257  1.00  0.00     0.169 HD
ENDROOT
BRANCH   2   5
HETATM    5  C   UNL     1     -42.800  56.260 -56.871  1.00  0.00     0.035 A 
HETATM    6  C   UNL     1     -42.470  57.610 -57.090  1.00  0.00     0.046 A 
HETATM    7  C   UNL     1     -42.444  58.123 -58.403  1.00  0.00     0.030 A 
HETATM    8  C   UNL     1     -42.744  57.272 -59.458  1.00  0.00     0.063 A 
HETATM    9  C   UNL     1     -42.175  59.386 -59.011  1.00  0.00     0.156 A 
HETATM   10  N   UNL     1     -42.642  58.040 -60.585  1.00  0.00    -0.277 N 
HETATM   11  C   UNL     1     -43.070  55.928 -59.279  1.00  0.00     0.034 A 
HETATM   12  H   UNL     1     -42.795  57.746 -61.543  1.00  0.00     0.189 HD
HETATM   13  N   UNL     1     -42.300  59.320 -60.356  1.00  0.00    -0.168 NA
HETATM   14  C   UNL     1     -43.093  55.441 -57.963  1.00  0.00     0.032 A 
BRANCH   9  15
HETATM   15  C   UNL     1     -41.807  60.637 -58.336  1.00  0.00     0.270 C 
HETATM   16  N   UNL     1     -42.567  61.714 -58.699  1.00  0.00    -0.365 N 
HETATM   17  H   UNL     1     -43.303  61.579 -59.382  1.00  0.00     0.159 HD
HETATM   18  H   UNL     1     -42.390  62.618 -58.289  1.00  0.00     0.159 HD
HETATM   19  O   UNL     1     -40.902  60.740 -57.513  1.00  0.00    -0.266 OA
ENDBRANCH   9  15
ENDBRANCH   2   5
BRANCH   1  20
HETATM   20  C   UNL     1     -43.378  55.561 -53.181  1.00  0.00     0.278 C 
BRANCH  20  21
HETATM   21  O   UNL     1     -42.748  54.287 -53.322  1.00  0.00    -0.342 OA
BRANCH  21  22
HETATM   22  C   UNL     1     -41.878  54.022 -52.297  1.00  0.00     0.076 A 
HETATM   23  C   UNL     1     -40.662  53.360 -52.529  1.00  0.00    -0.021 A 
HETATM   24  C   UNL     1     -39.832  53.126 -51.410  1.00  0.00     0.010 A 
HETATM   25  C   UNL     1     -40.217  53.485 -50.117  1.00  0.00     0.001 A 
HETATM   26  C   UNL     1     -41.452  54.081 -49.904  1.00  0.00     0.003 A 
HETATM   27  C   UNL     1     -42.282  54.339 -50.990  1.00  0.00     0.037 A 
BRANCH  23  28
HETATM   28  C   UNL     1     -40.162  52.835 -53.875  1.00  0.00     0.017 C 
HETATM   29  C   UNL     1     -40.114  53.807 -55.058  1.00  0.00     0.015 C 
BRANCH  28  30
HETATM   30  C   UNL     1     -40.875  51.520 -54.282  1.00  0.00     0.004 C 
HETATM   31  C   UNL     1     -39.977  50.290 -54.332  1.00  0.00     0.006 C 
ENDBRANCH  28  30
ENDBRANCH  23  28
ENDBRANCH  21  22
ENDBRANCH  20  21
ENDBRANCH   1  20
TORSDOF 7
ENDMDL
MODEL 8
REMARK VINA RESULT:      -8.1      1.742      2.577
REMARK  7 active torsions:
REMARK  status: ('A' for Active; 'I' for Inactive)
REMARK    1  A    between atoms: C_2  and  C_3 
REMARK    2  A    between atoms: C_3  and  C_4 
REMARK    3  A    between atoms: C_5  and  O_6 
REMARK    4  A    between atoms: O_6  and  C_7 
REMARK    5  A    between atoms: C_7  and  C_8 
REMARK       I    between atoms: C_8  and  N_9 
REMARK    6  A    between atoms: N_9  and  C_10 
REMARK    7  A    between atoms: C_17  and  C_18 
REMARK       I    between atoms: C_18  and  N_19 
ROOT
HETATM    1  C   UNL     1     -42.332  55.024 -56.020  1.00  0.00     0.246 C 
HETATM    2  N   UNL     1     -42.207  55.942 -57.061  1.00  0.00    -0.325 N 
HETATM    3  O   UNL     1     -43.256  54.232 -55.869  1.00  0.00    -0.271 OA
HETATM    4  H   UNL     1     -41.364  56.503 -57.080  1.00  0.00     0.169 HD
ENDROOT
BRANCH   2   5
HETATM    5  C   UNL     1     -43.132  56.200 -58.098  1.00  0.00     0.035 A 
HETATM    6  C   UNL     1     -44.102  57.186 -57.847  1.00  0.00     0.046 A 
HETATM    7  C   UNL     1     -45.073  57.483 -58.827  1.00  0.00     0.030 A 
HETATM    8  C   UNL     1     -45.041  56.789 -60.028  1.00  0.00     0.063 A 
HETATM    9  C   UNL     1     -46.181  58.375 -58.942  1.00  0.00     0.156 A 
HETATM   10  N   UNL     1     -46.086  57.283 -60.760  1.00  0.00    -0.277 N 
HETATM   11  C   UNL     1     -44.091  55.809 -60.313  1.00  0.00     0.034 A 
HETATM   12  H   UNL     1     -46.366  57.004 -61.694  1.00  0.00     0.189 HD
HETATM   13  N   UNL     1     -46.796  58.240 -60.139  1.00  0.00    -0.168 NA
HETATM   14  C   UNL     1     -43.138  55.529 -59.323  1.00  0.00     0.032 A 
BRANCH   9  15
HETATM   15  C   UNL     1     -46.657  59.337 -57.940  1.00  0.00     0.270 C 
HETATM   16  N   UNL     1     -47.847  58.999 -57.359  1.00  0.00    -0.365 N 
HETATM   17  H   UNL     1     -48.302  58.141 -57.649  1.00  0.00     0.159 HD
HETATM   18  H   UNL     1     -48.255  59.598 -56.658  1.00  0.00     0.159 HD
HETATM   19  O   UNL     1     -46.060  60.364 -57.628  1.00  0.00    -0.266 OA
ENDBRANCH   9  15
ENDBRANCH   2   5
BRANCH   1  20
HETATM   20  C   UNL     1     -41.154  55.115 -55.040  1.00  0.00     0.278 C 
BRANCH  20  21
HETATM   21  O   UNL     1     -41.536  54.738 -53.716  1.00  0.00    -0.342 OA
BRANCH  21  22
HETATM   22  C   UNL     1     -40.894  53.605 -53.293  1.00  0.00     0.076 A 
HETATM   23  C   UNL     1     -40.564  53.418 -51.941  1.00  0.00    -0.021 A 
HETATM   24  C   UNL     1     -39.898  52.220 -51.600  1.00  0.00     0.010 A 
HETATM   25  C   UNL     1     -39.531  51.278 -52.564  1.00  0.00     0.001 A 
HETATM   26  C   UNL     1     -39.810  51.515 -53.902  1.00  0.00     0.003 A 
HETATM   27  C   UNL     1     -40.481  52.679 -54.265  1.00  0.00     0.037 A 
BRANCH  23  28
HETATM   28  C   UNL     1     -40.825  54.404 -50.803  1.00  0.00     0.017 C 
HETATM   29  C   UNL     1     -39.743  54.574 -49.732  1.00  0.00     0.015 C 
BRANCH  28  30
HETATM   30  C   UNL     1     -42.209  54.170 -50.143  1.00  0.00     0.004 C 
HETATM   31  C   UNL     1     -43.381  54.830 -50.856  1.00  0.00     0.006 C 
ENDBRANCH  28  30
ENDBRANCH  23  28
ENDBRANCH  21  22
ENDBRANCH  20  21
ENDBRANCH   1  20
TORSDOF 7
ENDMDL
MODEL 9
REMARK VINA RESULT:      -7.8      2.031      3.356
REMARK  7 active torsions:
REMARK  status: ('A' for Active; 'I' for Inactive)
REMARK    1  A    between atoms: C_2  and  C_3 
REMARK    2  A    between atoms: C_3  and  C_4 
REMARK    3  A    between atoms: C_5  and  O_6 
REMARK    4  A    between atoms: O_6  and  C_7 
REMARK    5  A    between atoms: C_7  and  C_8 
REMARK       I    between atoms: C_8  and  N_9 
REMARK    6  A    between atoms: N_9  and  C_10 
REMARK    7  A    between atoms: C_17  and  C_18 
REMARK       I    between atoms: C_18  and  N_19 
ROOT
HETATM    1  C   UNL     1     -43.241  56.852 -53.738  1.00  0.00     0.246 C 
HETATM    2  N   UNL     1     -44.293  56.877 -54.650  1.00  0.00    -0.325 N 
HETATM    3  O   UNL     1     -42.274  57.606 -53.737  1.00  0.00    -0.271 OA
HETATM    4  H   UNL     1     -45.047  56.218 -54.499  1.00  0.00     0.169 HD
ENDROOT
BRANCH   2   5
HETATM    5  C   UNL     1     -44.432  57.708 -55.784  1.00  0.00     0.035 A 
HETATM    6  C   UNL     1     -43.830  57.259 -56.974  1.00  0.00     0.046 A 
HETATM    7  C   UNL     1     -43.907  58.047 -58.141  1.00  0.00     0.030 A 
HETATM    8  C   UNL     1     -44.585  59.257 -58.086  1.00  0.00     0.063 A 
HETATM    9  C   UNL     1     -43.438  57.945 -59.485  1.00  0.00     0.156 A 
HETATM   10  N   UNL     1     -44.489  59.784 -59.344  1.00  0.00    -0.277 N 
HETATM   11  C   UNL     1     -45.198  59.730 -56.926  1.00  0.00     0.034 A 
HETATM   12  H   UNL     1     -44.869  60.666 -59.669  1.00  0.00     0.189 HD
HETATM   13  N   UNL     1     -43.805  59.023 -60.215  1.00  0.00    -0.168 NA
HETATM   14  C   UNL     1     -45.106  58.931 -55.777  1.00  0.00     0.032 A 
BRANCH   9  15
HETATM   15  C   UNL     1     -42.656  56.851 -60.074  1.00  0.00     0.270 C 
HETATM   16  N   UNL     1     -41.320  57.115 -60.188  1.00  0.00    -0.365 N 
HETATM   17  H   UNL     1     -40.975  58.014 -59.872  1.00  0.00     0.159 HD
HETATM   18  H   UNL     1     -40.700  56.424 -60.581  1.00  0.00     0.159 HD
HETATM   19  O   UNL     1     -43.131  55.780 -60.440  1.00  0.00    -0.266 OA
ENDBRANCH   9  15
ENDBRANCH   2   5
BRANCH   1  20
HETATM   20  C   UNL     1     -43.417  55.734 -52.699  1.00  0.00     0.278 C 
BRANCH  20  21
HETATM   21  O   UNL     1     -42.714  54.548 -53.073  1.00  0.00    -0.342 OA
BRANCH  21  22
HETATM   22  C   UNL     1     -41.823  54.149 -52.113  1.00  0.00     0.076 A 
HETATM   23  C   UNL     1     -40.650  53.458 -52.453  1.00  0.00    -0.021 A 
HETATM   24  C   UNL     1     -39.792  53.082 -51.395  1.00  0.00     0.010 A 
HETATM   25  C   UNL     1     -40.113  53.336 -50.059  1.00  0.00     0.001 A 
HETATM   26  C   UNL     1     -41.309  53.964 -49.743  1.00  0.00     0.003 A 
HETATM   27  C   UNL     1     -42.164  54.360 -50.767  1.00  0.00     0.037 A 
BRANCH  23  28
HETATM   28  C   UNL     1     -40.224  53.038 -53.860  1.00  0.00     0.017 C 
HETATM   29  C   UNL     1     -40.301  54.081 -54.980  1.00  0.00     0.015 C 
BRANCH  28  30
HETATM   30  C   UNL     1     -40.907  51.718 -54.301  1.00  0.00     0.004 C 
HETATM   31  C   UNL     1     -39.992  50.501 -54.338  1.00  0.00     0.006 C 
ENDBRANCH  28  30
ENDBRANCH  23  28
ENDBRANCH  21  22
ENDBRANCH  20  21
ENDBRANCH   1  20
TORSDOF 7
ENDMDL
MODEL 10
REMARK VINA RESULT:      -7.8      2.447      3.468
REMARK  7 active torsions:
REMARK  status: ('A' for Active; 'I' for Inactive)
REMARK    1  A    between atoms: C_2  and  C_3 
REMARK    2  A    between atoms: C_3  and  C_4 
REMARK    3  A    between atoms: C_5  and  O_6 
REMARK    4  A    between atoms: O_6  and  C_7 
REMARK    5  A    between atoms: C_7  and  C_8 
REMARK       I    between atoms: C_8  and  N_9 
REMARK    6  A    between atoms: N_9  and  C_10 
REMARK    7  A    between atoms: C_17  and  C_18 
REMARK       I    between atoms: C_18  and  N_19 
ROOT
HETATM    1  C   UNL     1     -43.013  55.378 -55.530  1.00  0.00     0.246 C 
HETATM    2  N   UNL     1     -42.540  55.348 -56.840  1.00  0.00    -0.325 N 
HETATM    3  O   UNL     1     -43.778  56.215 -55.062  1.00  0.00    -0.271 OA
HETATM    4  H   UNL     1     -41.947  54.568 -57.095  1.00  0.00     0.169 HD
ENDROOT
BRANCH   2   5
HETATM    5  C   UNL     1     -42.775  56.293 -57.863  1.00  0.00     0.035 A 
HETATM    6  C   UNL     1     -42.304  57.599 -57.637  1.00  0.00     0.046 A 
HETATM    7  C   UNL     1     -42.522  58.602 -58.605  1.00  0.00     0.030 A 
HETATM    8  C   UNL     1     -43.200  58.269 -59.770  1.00  0.00     0.063 A 
HETATM    9  C   UNL     1     -42.217  59.990 -58.737  1.00  0.00     0.156 A 
HETATM   10  N   UNL     1     -43.259  59.425 -60.498  1.00  0.00    -0.277 N 
HETATM   11  C   UNL     1     -43.677  56.984 -60.029  1.00  0.00     0.034 A 
HETATM   12  H   UNL     1     -43.687  59.554 -61.408  1.00  0.00     0.189 HD
HETATM   13  N   UNL     1     -42.678  60.484 -59.908  1.00  0.00    -0.168 NA
HETATM   14  C   UNL     1     -43.450  56.004 -59.051  1.00  0.00     0.032 A 
BRANCH   9  15
HETATM   15  C   UNL     1     -41.506  60.839 -57.774  1.00  0.00     0.270 C 
HETATM   16  N   UNL     1     -42.098  60.910 -56.544  1.00  0.00    -0.365 N 
HETATM   17  H   UNL     1     -42.956  60.392 -56.388  1.00  0.00     0.159 HD
HETATM   18  H   UNL     1     -41.684  61.470 -55.815  1.00  0.00     0.159 HD
HETATM   19  O   UNL     1     -40.467  61.445 -58.020  1.00  0.00    -0.266 OA
ENDBRANCH   9  15
ENDBRANCH   2   5
BRANCH   1  20
HETATM   20  C   UNL     1     -42.451  54.217 -54.696  1.00  0.00     0.278 C 
BRANCH  20  21
HETATM   21  O   UNL     1     -41.155  54.515 -54.177  1.00  0.00    -0.342 OA
BRANCH  21  22
HETATM   22  C   UNL     1     -40.625  53.469 -53.470  1.00  0.00     0.076 A 
HETATM   23  C   UNL     1     -40.572  53.493 -52.068  1.00  0.00    -0.021 A 
HETATM   24  C   UNL     1     -40.003  52.370 -51.425  1.00  0.00     0.010 A 
HETATM   25  C   UNL     1     -39.466  51.300 -52.144  1.00  0.00     0.001 A 
HETATM   26  C   UNL     1     -39.472  51.328 -53.532  1.00  0.00     0.003 A 
HETATM   27  C   UNL     1     -40.042  52.414 -54.190  1.00  0.00     0.037 A 
BRANCH  23  28
HETATM   28  C   UNL     1     -41.039  54.634 -51.165  1.00  0.00     0.017 C 
HETATM   29  C   UNL     1     -40.326  54.832 -49.822  1.00  0.00     0.015 C 
BRANCH  28  30
HETATM   30  C   UNL     1     -42.576  54.621 -50.965  1.00  0.00     0.004 C 
HETATM   31  C   UNL     1     -43.219  55.995 -50.830  1.00  0.00     0.006 C 
ENDBRANCH  28  30
ENDBRANCH  23  28
ENDBRANCH  21  22
ENDBRANCH  20  21
ENDBRANCH   1  20
TORSDOF 7
ENDMDL
