MODEL 1
REMARK VINA RESULT:      -8.8      0.000      0.000
REMARK  7 active torsions:
REMARK  status: ('A' for Active; 'I' for Inactive)
REMARK    1  A    between atoms: O_2  and  C_3 
REMARK    2  A    between atoms: C_3  and  C_4 
REMARK    3  A    between atoms: C_6  and  N_7 
REMARK       I    between atoms: N_7  and  C_8 
REMARK    4  A    between atoms: C_8  and  C_9 
REMARK    5  A    between atoms: C_17  and  C_18 
REMARK    6  A    between atoms: C_18  and  N_19 
REMARK       I    between atoms: N_19  and  C_20 
REMARK    7  A    between atoms: C_20  and  C_21 
ROOT
HETATM    1  C   UNL     1     -41.523  58.116 -51.785  1.00  0.00     0.042 A 
HETATM    2  C   UNL     1     -40.998  56.818 -51.706  1.00  0.00     0.047 A 
HETATM    3  C   UNL     1     -41.598  55.767 -52.403  1.00  0.00     0.036 A 
HETATM    4  C   UNL     1     -42.732  56.030 -53.185  1.00  0.00     0.038 A 
HETATM    5  C   UNL     1     -43.255  57.329 -53.300  1.00  0.00    -0.037 A 
HETATM    6  C   UNL     1     -42.654  58.364 -52.576  1.00  0.00     0.026 A 
ENDROOT
BRANCH   5   7
HETATM    7  C   UNL     1     -44.422  57.606 -54.209  1.00  0.00     0.161 C 
BRANCH   7   8
HETATM    8  N   UNL     1     -44.287  56.960 -55.490  1.00  0.00    -0.351 N 
HETATM    9  C   UNL     1     -43.792  57.614 -56.590  1.00  0.00     0.270 C 
HETATM   10  O   UNL     1     -43.299  58.736 -56.516  1.00  0.00    -0.266 OA
HETATM   11  H   UNL     1     -44.520  55.982 -55.557  1.00  0.00     0.163 HD
BRANCH   9  12
HETATM   12  C   UNL     1     -43.888  56.906 -57.842  1.00  0.00     0.126 A 
HETATM   13  N   UNL     1     -42.812  56.189 -58.311  1.00  0.00    -0.272 N 
HETATM   14  H   UNL     1     -41.911  56.085 -57.854  1.00  0.00     0.189 HD
HETATM   15  N   UNL     1     -43.010  55.595 -59.499  1.00  0.00    -0.178 NA
HETATM   16  C   UNL     1     -44.250  55.956 -59.820  1.00  0.00     0.063 A 
HETATM   17  C   UNL     1     -44.852  56.777 -58.831  1.00  0.00     0.002 A 
HETATM   18  C   UNL     1     -44.893  55.584 -61.110  1.00  0.00     0.062 C 
HETATM   19  C   UNL     1     -46.230  57.322 -58.982  1.00  0.00     0.043 C 
HETATM   20  C   UNL     1     -46.725  57.221 -60.437  1.00  0.00     0.005 C 
HETATM   21  C   UNL     1     -46.405  55.855 -61.068  1.00  0.00     0.006 C 
ENDBRANCH   9  12
ENDBRANCH   7   8
ENDBRANCH   5   7
BRANCH   3  22
HETATM   22  N   UNL     1     -41.112  54.440 -52.407  1.00  0.00    -0.323 N 
HETATM   23  C   UNL     1     -40.491  53.777 -53.452  1.00  0.00     0.256 C 
HETATM   24  O   UNL     1     -40.151  54.268 -54.522  1.00  0.00    -0.267 OA
HETATM   25  H   UNL     1     -41.219  53.940 -51.534  1.00  0.00     0.169 HD
BRANCH  23  26
HETATM   26  C   UNL     1     -40.203  52.330 -53.227  1.00  0.00     0.035 A 
HETATM   27  C   UNL     1     -40.255  51.384 -54.252  1.00  0.00     0.036 A 
HETATM   28  C   UNL     1     -39.942  50.072 -53.939  1.00  0.00     0.117 A 
HETATM   29  N   UNL     1     -39.584  49.658 -52.706  1.00  0.00    -0.273 NA
HETATM   30  C   UNL     1     -39.516  50.596 -51.739  1.00  0.00     0.117 A 
HETATM   31  C   UNL     1     -39.812  51.930 -51.946  1.00  0.00     0.036 A 
ENDBRANCH  23  26
ENDBRANCH   3  22
BRANCH   1  32
HETATM   32  C   UNL     1     -40.911  59.268 -51.070  1.00  0.00     0.293 C 
HETATM   33  O   UNL     1     -41.503  59.920 -50.223  1.00  0.00    -0.259 OA
BRANCH  32  34
HETATM   34  O   UNL     1     -39.653  59.499 -51.516  1.00  0.00    -0.323 OA
HETATM   35  C   UNL     1     -38.657  59.501 -50.492  1.00  0.00     0.213 C 
ENDBRANCH  32  34
ENDBRANCH   1  32
TORSDOF 7
ENDMDL
MODEL 2
REMARK VINA RESULT:      -8.7      2.916      7.225
REMARK  7 active torsions:
REMARK  status: ('A' for Active; 'I' for Inactive)
REMARK    1  A    between atoms: O_2  and  C_3 
REMARK    2  A    between atoms: C_3  and  C_4 
REMARK    3  A    between atoms: C_6  and  N_7 
REMARK       I    between atoms: N_7  and  C_8 
REMARK    4  A    between atoms: C_8  and  C_9 
REMARK    5  A    between atoms: C_17  and  C_18 
REMARK    6  A    between atoms: C_18  and  N_19 
REMARK       I    between atoms: N_19  and  C_20 
REMARK    7  A    between atoms: C_20  and  C_21 
ROOT
HETATM    1  C   UNL     1     -40.280  52.655 -53.443  1.00  0.00     0.042 A 
HETATM    2  C   UNL     1     -40.604  53.264 -54.664  1.00  0.00     0.047 A 
HETATM    3  C   UNL     1     -41.169  54.542 -54.691  1.00  0.00     0.036 A 
HETATM    4  C   UNL     1     -41.403  55.207 -53.479  1.00  0.00     0.038 A 
HETATM    5  C   UNL     1     -41.057  54.626 -52.248  1.00  0.00    -0.037 A 
HETATM    6  C   UNL     1     -40.515  53.337 -52.240  1.00  0.00     0.026 A 
ENDROOT
BRANCH   5   7
HETATM    7  C   UNL     1     -41.240  55.389 -50.964  1.00  0.00     0.161 C 
BRANCH   7   8
HETATM    8  N   UNL     1     -42.084  56.546 -51.126  1.00  0.00    -0.351 N 
HETATM    9  C   UNL     1     -43.447  56.482 -50.983  1.00  0.00     0.270 C 
HETATM   10  O   UNL     1     -44.013  55.476 -50.565  1.00  0.00    -0.266 OA
HETATM   11  H   UNL     1     -41.645  57.435 -51.302  1.00  0.00     0.163 HD
BRANCH   9  12
HETATM   12  C   UNL     1     -44.178  57.667 -51.356  1.00  0.00     0.126 A 
HETATM   13  N   UNL     1     -44.945  58.324 -50.422  1.00  0.00    -0.272 N 
HETATM   14  H   UNL     1     -45.059  58.068 -49.447  1.00  0.00     0.189 HD
HETATM   15  N   UNL     1     -45.600  59.399 -50.892  1.00  0.00    -0.178 NA
HETATM   16  C   UNL     1     -45.262  59.426 -52.179  1.00  0.00     0.063 A 
HETATM   17  C   UNL     1     -44.380  58.371 -52.533  1.00  0.00     0.002 A 
HETATM   18  C   UNL     1     -45.811  60.422 -53.140  1.00  0.00     0.062 C 
HETATM   19  C   UNL     1     -43.883  58.185 -53.925  1.00  0.00     0.043 C 
HETATM   20  C   UNL     1     -44.719  58.988 -54.939  1.00  0.00     0.005 C 
HETATM   21  C   UNL     1     -45.012  60.417 -54.452  1.00  0.00     0.006 C 
ENDBRANCH   9  12
ENDBRANCH   7   8
ENDBRANCH   5   7
BRANCH   3  22
HETATM   22  N   UNL     1     -41.492  55.239 -55.877  1.00  0.00    -0.323 N 
HETATM   23  C   UNL     1     -42.756  55.555 -56.346  1.00  0.00     0.256 C 
HETATM   24  O   UNL     1     -43.814  55.385 -55.751  1.00  0.00    -0.267 OA
HETATM   25  H   UNL     1     -40.699  55.552 -56.421  1.00  0.00     0.169 HD
BRANCH  23  26
HETATM   26  C   UNL     1     -42.812  56.177 -57.702  1.00  0.00     0.035 A 
HETATM   27  C   UNL     1     -43.316  55.506 -58.817  1.00  0.00     0.036 A 
HETATM   28  C   UNL     1     -43.347  56.186 -60.023  1.00  0.00     0.117 A 
HETATM   29  N   UNL     1     -42.927  57.459 -60.179  1.00  0.00    -0.273 NA
HETATM   30  C   UNL     1     -42.467  58.094 -59.081  1.00  0.00     0.117 A 
HETATM   31  C   UNL     1     -42.391  57.503 -57.833  1.00  0.00     0.036 A 
ENDBRANCH  23  26
ENDBRANCH   3  22
BRANCH   1  32
HETATM   32  C   UNL     1     -39.665  51.302 -53.365  1.00  0.00     0.293 C 
HETATM   33  O   UNL     1     -39.634  50.528 -54.310  1.00  0.00    -0.259 OA
BRANCH  32  34
HETATM   34  O   UNL     1     -39.198  51.055 -52.118  1.00  0.00    -0.323 OA
HETATM   35  C   UNL     1     -39.601  49.796 -51.578  1.00  0.00     0.213 C 
ENDBRANCH  32  34
ENDBRANCH   1  32
TORSDOF 7
ENDMDL
MODEL 3
REMARK VINA RESULT:      -8.6      2.713      7.282
REMARK  7 active torsions:
REMARK  status: ('A' for Active; 'I' for Inactive)
REMARK    1  A    between atoms: O_2  and  C_3 
REMARK    2  A    between atoms: C_3  and  C_4 
REMARK    3  A    between atoms: C_6  and  N_7 
REMARK       I    between atoms: N_7  and  C_8 
REMARK    4  A    between atoms: C_8  and  C_9 
REMARK    5  A    between atoms: C_17  and  C_18 
REMARK    6  A    between atoms: C_18  and  N_19 
REMARK       I    between atoms: N_19  and  C_20 
REMARK    7  A    between atoms: C_20  and  C_21 
ROOT
HETATM    1  C   UNL     1     -40.922  52.829 -53.161  1.00  0.00     0.042 A 
HETATM    2  C   UNL     1     -41.262  53.280 -54.445  1.00  0.00     0.047 A 
HETATM    3  C   UNL     1     -42.326  54.168 -54.625  1.00  0.00     0.036 A 
HETATM    4  C   UNL     1     -43.045  54.604 -53.502  1.00  0.00     0.038 A 
HETATM    5  C   UNL     1     -42.701  54.186 -52.207  1.00  0.00    -0.037 A 
HETATM    6  C   UNL     1     -41.648  53.279 -52.049  1.00  0.00     0.026 A 
ENDROOT
BRANCH   5   7
HETATM    7  C   UNL     1     -43.432  54.729 -51.008  1.00  0.00     0.161 C 
BRANCH   7   8
HETATM    8  N   UNL     1     -44.165  55.932 -51.310  1.00  0.00    -0.351 N 
HETATM    9  C   UNL     1     -43.606  57.179 -51.183  1.00  0.00     0.270 C 
HETATM   10  O   UNL     1     -42.411  57.339 -50.950  1.00  0.00    -0.266 OA
HETATM   11  H   UNL     1     -45.100  55.843 -51.672  1.00  0.00     0.163 HD
BRANCH   9  12
HETATM   12  C   UNL     1     -44.506  58.294 -51.337  1.00  0.00     0.126 A 
HETATM   13  N   UNL     1     -45.313  58.676 -50.291  1.00  0.00    -0.272 N 
HETATM   14  H   UNL     1     -45.348  58.250 -49.370  1.00  0.00     0.189 HD
HETATM   15  N   UNL     1     -46.128  59.709 -50.560  1.00  0.00    -0.178 NA
HETATM   16  C   UNL     1     -45.854  59.992 -51.832  1.00  0.00     0.063 A 
HETATM   17  C   UNL     1     -44.854  59.144 -52.376  1.00  0.00     0.002 A 
HETATM   18  C   UNL     1     -46.576  61.044 -52.600  1.00  0.00     0.062 C 
HETATM   19  C   UNL     1     -44.399  59.259 -53.789  1.00  0.00     0.043 C 
HETATM   20  C   UNL     1     -45.380  60.090 -54.637  1.00  0.00     0.005 C 
HETATM   21  C   UNL     1     -45.843  61.365 -53.912  1.00  0.00     0.006 C 
ENDBRANCH   9  12
ENDBRANCH   7   8
ENDBRANCH   5   7
BRANCH   3  22
HETATM   22  N   UNL     1     -42.710  54.698 -55.877  1.00  0.00    -0.323 N 
HETATM   23  C   UNL     1     -42.620  56.016 -56.294  1.00  0.00     0.256 C 
HETATM   24  O   UNL     1     -42.080  56.933 -55.687  1.00  0.00    -0.267 OA
HETATM   25  H   UNL     1     -43.070  54.022 -56.538  1.00  0.00     0.169 HD
BRANCH  23  26
HETATM   26  C   UNL     1     -43.230  56.323 -57.621  1.00  0.00     0.035 A 
HETATM   27  C   UNL     1     -43.171  55.438 -58.699  1.00  0.00     0.036 A 
HETATM   28  C   UNL     1     -43.794  55.810 -59.878  1.00  0.00     0.117 A 
HETATM   29  N   UNL     1     -44.459  56.973 -60.042  1.00  0.00    -0.273 NA
HETATM   30  C   UNL     1     -44.522  57.800 -58.978  1.00  0.00     0.117 A 
HETATM   31  C   UNL     1     -43.931  57.523 -57.759  1.00  0.00     0.036 A 
ENDBRANCH  23  26
ENDBRANCH   3  22
BRANCH   1  32
HETATM   32  C   UNL     1     -39.790  51.894 -52.919  1.00  0.00     0.293 C 
HETATM   33  O   UNL     1     -39.250  51.767 -51.831  1.00  0.00    -0.259 OA
BRANCH  32  34
HETATM   34  O   UNL     1     -39.438  51.256 -54.061  1.00  0.00    -0.323 OA
HETATM   35  C   UNL     1     -39.775  49.869 -54.087  1.00  0.00     0.213 C 
ENDBRANCH  32  34
ENDBRANCH   1  32
TORSDOF 7
ENDMDL
MODEL 4
REMARK VINA RESULT:      -8.4      2.394      7.017
REMARK  7 active torsions:
REMARK  status: ('A' for Active; 'I' for Inactive)
REMARK    1  A    between atoms: O_2  and  C_3 
REMARK    2  A    between atoms: C_3  and  C_4 
REMARK    3  A    between atoms: C_6  and  N_7 
REMARK       I    between atoms: N_7  and  C_8 
REMARK    4  A    between atoms: C_8  and  C_9 
REMARK    5  A    between atoms: C_17  and  C_18 
REMARK    6  A    between atoms: C_18  and  N_19 
REMARK       I    between atoms: N_19  and  C_20 
REMARK    7  A    between atoms: C_20  and  C_21 
ROOT
HETATM    1  C   UNL     1     -44.170  59.746 -52.677  1.00  0.00     0.042 A 
HETATM    2  C   UNL     1     -44.031  59.355 -54.018  1.00  0.00     0.047 A 
HETATM    3  C   UNL     1     -43.975  58.002 -54.359  1.00  0.00     0.036 A 
HETATM    4  C   UNL     1     -44.063  57.040 -53.341  1.00  0.00     0.038 A 
HETATM    5  C   UNL     1     -44.232  57.411 -51.998  1.00  0.00    -0.037 A 
HETATM    6  C   UNL     1     -44.262  58.772 -51.673  1.00  0.00     0.026 A 
ENDROOT
BRANCH   5   7
HETATM    7  C   UNL     1     -44.407  56.364 -50.931  1.00  0.00     0.161 C 
BRANCH   7   8
HETATM    8  N   UNL     1     -43.555  55.221 -51.138  1.00  0.00    -0.351 N 
HETATM    9  C   UNL     1     -42.290  55.148 -50.611  1.00  0.00     0.270 C 
HETATM   10  O   UNL     1     -41.864  55.979 -49.815  1.00  0.00    -0.266 OA
HETATM   11  H   UNL     1     -43.927  54.434 -51.644  1.00  0.00     0.163 HD
BRANCH   9  12
HETATM   12  C   UNL     1     -41.486  54.035 -51.051  1.00  0.00     0.126 A 
HETATM   13  N   UNL     1     -40.831  53.252 -50.129  1.00  0.00    -0.272 N 
HETATM   14  H   UNL     1     -40.852  53.363 -49.120  1.00  0.00     0.189 HD
HETATM   15  N   UNL     1     -40.092  52.263 -50.658  1.00  0.00    -0.178 NA
HETATM   16  C   UNL     1     -40.258  52.423 -51.969  1.00  0.00     0.063 A 
HETATM   17  C   UNL     1     -41.113  53.513 -52.281  1.00  0.00     0.002 A 
HETATM   18  C   UNL     1     -39.562  51.583 -52.982  1.00  0.00     0.062 C 
HETATM   19  C   UNL     1     -41.428  53.898 -53.684  1.00  0.00     0.043 C 
HETATM   20  C   UNL     1     -40.446  53.259 -54.684  1.00  0.00     0.005 C 
HETATM   21  C   UNL     1     -40.182  51.775 -54.374  1.00  0.00     0.006 C 
ENDBRANCH   9  12
ENDBRANCH   7   8
ENDBRANCH   5   7
BRANCH   3  22
HETATM   22  N   UNL     1     -43.872  57.524 -55.685  1.00  0.00    -0.323 N 
HETATM   23  C   UNL     1     -42.758  56.970 -56.293  1.00  0.00     0.256 C 
HETATM   24  O   UNL     1     -41.697  56.692 -55.746  1.00  0.00    -0.267 OA
HETATM   25  H   UNL     1     -44.722  57.581 -56.230  1.00  0.00     0.169 HD
BRANCH  23  26
HETATM   26  C   UNL     1     -42.889  56.677 -57.750  1.00  0.00     0.035 A 
HETATM   27  C   UNL     1     -43.531  55.535 -58.233  1.00  0.00     0.036 A 
HETATM   28  C   UNL     1     -43.620  55.374 -59.605  1.00  0.00     0.117 A 
HETATM   29  N   UNL     1     -43.131  56.257 -60.500  1.00  0.00    -0.273 NA
HETATM   30  C   UNL     1     -42.537  57.364 -60.008  1.00  0.00     0.117 A 
HETATM   31  C   UNL     1     -42.393  57.618 -58.656  1.00  0.00     0.036 A 
ENDBRANCH  23  26
ENDBRANCH   3  22
BRANCH   1  32
HETATM   32  C   UNL     1     -44.247  61.174 -52.268  1.00  0.00     0.293 C 
HETATM   33  O   UNL     1     -45.271  61.836 -52.342  1.00  0.00    -0.259 OA
BRANCH  32  34
HETATM   34  O   UNL     1     -43.038  61.623 -51.850  1.00  0.00    -0.323 OA
HETATM   35  C   UNL     1     -43.043  62.192 -50.541  1.00  0.00     0.213 C 
ENDBRANCH  32  34
ENDBRANCH   1  32
TORSDOF 7
ENDMDL
MODEL 5
REMARK VINA RESULT:      -8.4      1.895      2.498
REMARK  7 active torsions:
REMARK  status: ('A' for Active; 'I' for Inactive)
REMARK    1  A    between atoms: O_2  and  C_3 
REMARK    2  A    between atoms: C_3  and  C_4 
REMARK    3  A    between atoms: C_6  and  N_7 
REMARK       I    between atoms: N_7  and  C_8 
REMARK    4  A    between atoms: C_8  and  C_9 
REMARK    5  A    between atoms: C_17  and  C_18 
REMARK    6  A    between atoms: C_18  and  N_19 
REMARK       I    between atoms: N_19  and  C_20 
REMARK    7  A    between atoms: C_20  and  C_21 
ROOT
HETATM    1  C   UNL     1     -41.637  57.702 -52.614  1.00  0.00     0.042 A 
HETATM    2  C   UNL     1     -41.053  56.449 -52.375  1.00  0.00     0.047 A 
HETATM    3  C   UNL     1     -41.590  55.296 -52.952  1.00  0.00     0.036 A 
HETATM    4  C   UNL     1     -42.720  55.410 -53.775  1.00  0.00     0.038 A 
HETATM    5  C   UNL     1     -43.301  56.659 -54.049  1.00  0.00    -0.037 A 
HETATM    6  C   UNL     1     -42.763  57.800 -53.444  1.00  0.00     0.026 A 
ENDROOT
BRANCH   5   7
HETATM    7  C   UNL     1     -44.462  56.770 -55.000  1.00  0.00     0.161 C 
BRANCH   7   8
HETATM    8  N   UNL     1     -44.059  57.212 -56.311  1.00  0.00    -0.351 N 
HETATM    9  C   UNL     1     -43.468  56.366 -57.217  1.00  0.00     0.270 C 
HETATM   10  O   UNL     1     -43.383  55.157 -57.023  1.00  0.00    -0.266 OA
HETATM   11  H   UNL     1     -44.267  58.159 -56.579  1.00  0.00     0.163 HD
BRANCH   9  12
HETATM   12  C   UNL     1     -42.950  56.984 -58.411  1.00  0.00     0.126 A 
HETATM   13  N   UNL     1     -42.272  56.227 -59.338  1.00  0.00    -0.272 N 
HETATM   14  H   UNL     1     -42.088  55.230 -59.284  1.00  0.00     0.189 HD
HETATM   15  N   UNL     1     -41.813  56.916 -60.396  1.00  0.00    -0.178 NA
HETATM   16  C   UNL     1     -42.190  58.165 -60.136  1.00  0.00     0.063 A 
HETATM   17  C   UNL     1     -42.900  58.276 -58.911  1.00  0.00     0.002 A 
HETATM   18  C   UNL     1     -41.838  59.316 -61.012  1.00  0.00     0.062 C 
HETATM   19  C   UNL     1     -43.402  59.582 -58.401  1.00  0.00     0.043 C 
HETATM   20  C   UNL     1     -42.738  60.769 -59.123  1.00  0.00     0.005 C 
HETATM   21  C   UNL     1     -42.665  60.558 -60.646  1.00  0.00     0.006 C 
ENDBRANCH   9  12
ENDBRANCH   7   8
ENDBRANCH   5   7
BRANCH   3  22
HETATM   22  N   UNL     1     -41.042  54.003 -52.792  1.00  0.00    -0.323 N 
HETATM   23  C   UNL     1     -40.348  53.264 -53.735  1.00  0.00     0.256 C 
HETATM   24  O   UNL     1     -39.987  53.653 -54.840  1.00  0.00    -0.267 OA
HETATM   25  H   UNL     1     -41.161  53.596 -51.874  1.00  0.00     0.169 HD
BRANCH  23  26
HETATM   26  C   UNL     1     -40.001  51.867 -53.342  1.00  0.00     0.035 A 
HETATM   27  C   UNL     1     -39.698  51.508 -52.027  1.00  0.00     0.036 A 
HETATM   28  C   UNL     1     -39.417  50.178 -51.766  1.00  0.00     0.117 A 
HETATM   29  N   UNL     1     -39.426  49.209 -52.706  1.00  0.00    -0.273 NA
HETATM   30  C   UNL     1     -39.745  49.577 -53.964  1.00  0.00     0.117 A 
HETATM   31  C   UNL     1     -40.038  50.878 -54.328  1.00  0.00     0.036 A 
ENDBRANCH  23  26
ENDBRANCH   3  22
BRANCH   1  32
HETATM   32  C   UNL     1     -41.093  58.959 -52.032  1.00  0.00     0.293 C 
HETATM   33  O   UNL     1     -40.225  59.626 -52.576  1.00  0.00    -0.259 OA
BRANCH  32  34
HETATM   34  O   UNL     1     -41.661  59.220 -50.831  1.00  0.00    -0.323 OA
HETATM   35  C   UNL     1     -42.381  60.452 -50.776  1.00  0.00     0.213 C 
ENDBRANCH  32  34
ENDBRANCH   1  32
TORSDOF 7
ENDMDL
MODEL 6
REMARK VINA RESULT:      -8.3      1.788      2.103
REMARK  7 active torsions:
REMARK  status: ('A' for Active; 'I' for Inactive)
REMARK    1  A    between atoms: O_2  and  C_3 
REMARK    2  A    between atoms: C_3  and  C_4 
REMARK    3  A    between atoms: C_6  and  N_7 
REMARK       I    between atoms: N_7  and  C_8 
REMARK    4  A    between atoms: C_8  and  C_9 
REMARK    5  A    between atoms: C_17  and  C_18 
REMARK    6  A    between atoms: C_18  and  N_19 
REMARK       I    between atoms: N_19  and  C_20 
REMARK    7  A    between atoms: C_20  and  C_21 
ROOT
HETATM    1  C   UNL     1     -41.355  59.075 -52.007  1.00  0.00     0.042 A 
HETATM    2  C   UNL     1     -41.073  57.702 -52.056  1.00  0.00     0.047 A 
HETATM    3  C   UNL     1     -41.168  57.002 -53.261  1.00  0.00     0.036 A 
HETATM    4  C   UNL     1     -41.547  57.694 -54.421  1.00  0.00     0.038 A 
HETATM    5  C   UNL     1     -41.803  59.074 -54.398  1.00  0.00    -0.037 A 
HETATM    6  C   UNL     1     -41.726  59.753 -53.177  1.00  0.00     0.026 A 
ENDROOT
BRANCH   5   7
HETATM    7  C   UNL     1     -42.127  59.814 -55.667  1.00  0.00     0.161 C 
BRANCH   7   8
HETATM    8  N   UNL     1     -43.070  59.104 -56.493  1.00  0.00    -0.351 N 
HETATM    9  C   UNL     1     -42.792  58.764 -57.793  1.00  0.00     0.270 C 
HETATM   10  O   UNL     1     -41.677  58.912 -58.283  1.00  0.00    -0.266 OA
HETATM   11  H   UNL     1     -43.939  58.808 -56.078  1.00  0.00     0.163 HD
BRANCH   9  12
HETATM   12  C   UNL     1     -43.891  58.224 -58.554  1.00  0.00     0.126 A 
HETATM   13  N   UNL     1     -45.045  58.957 -58.711  1.00  0.00    -0.272 N 
HETATM   14  H   UNL     1     -45.224  59.886 -58.343  1.00  0.00     0.189 HD
HETATM   15  N   UNL     1     -46.008  58.341 -59.415  1.00  0.00    -0.178 NA
HETATM   16  C   UNL     1     -45.467  57.161 -59.707  1.00  0.00     0.063 A 
HETATM   17  C   UNL     1     -44.151  57.023 -59.195  1.00  0.00     0.002 A 
HETATM   18  C   UNL     1     -46.205  56.090 -60.434  1.00  0.00     0.062 C 
HETATM   19  C   UNL     1     -43.354  55.778 -59.379  1.00  0.00     0.043 C 
HETATM   20  C   UNL     1     -44.240  54.594 -59.810  1.00  0.00     0.005 C 
HETATM   21  C   UNL     1     -45.246  54.987 -60.906  1.00  0.00     0.006 C 
ENDBRANCH   9  12
ENDBRANCH   7   8
ENDBRANCH   5   7
BRANCH   3  22
HETATM   22  N   UNL     1     -40.868  55.628 -53.404  1.00  0.00    -0.323 N 
HETATM   23  C   UNL     1     -41.410  54.573 -52.689  1.00  0.00     0.256 C 
HETATM   24  O   UNL     1     -42.333  54.639 -51.885  1.00  0.00    -0.267 OA
HETATM   25  H   UNL     1     -40.196  55.407 -54.127  1.00  0.00     0.169 HD
BRANCH  23  26
HETATM   26  C   UNL     1     -40.809  53.232 -52.950  1.00  0.00     0.035 A 
HETATM   27  C   UNL     1     -40.845  52.623 -54.206  1.00  0.00     0.036 A 
HETATM   28  C   UNL     1     -40.232  51.389 -54.345  1.00  0.00     0.117 A 
HETATM   29  N   UNL     1     -39.597  50.747 -53.342  1.00  0.00    -0.273 NA
HETATM   30  C   UNL     1     -39.555  51.368 -52.145  1.00  0.00     0.117 A 
HETATM   31  C   UNL     1     -40.138  52.598 -51.902  1.00  0.00     0.036 A 
ENDBRANCH  23  26
ENDBRANCH   3  22
BRANCH   1  32
HETATM   32  C   UNL     1     -41.254  59.865 -50.749  1.00  0.00     0.293 C 
HETATM   33  O   UNL     1     -41.995  60.800 -50.488  1.00  0.00    -0.259 OA
BRANCH  32  34
HETATM   34  O   UNL     1     -40.226  59.426 -49.985  1.00  0.00    -0.323 OA
HETATM   35  C   UNL     1     -38.951  59.946 -50.361  1.00  0.00     0.213 C 
ENDBRANCH  32  34
ENDBRANCH   1  32
TORSDOF 7
ENDMDL
MODEL 7
REMARK VINA RESULT:      -8.2      2.895      7.976
REMARK  7 active torsions:
REMARK  status: ('A' for Active; 'I' for Inactive)
REMARK    1  A    between atoms: O_2  and  C_3 
REMARK    2  A    between atoms: C_3  and  C_4 
REMARK    3  A    between atoms: C_6  and  N_7 
REMARK       I    between atoms: N_7  and  C_8 
REMARK    4  A    between atoms: C_8  and  C_9 
REMARK    5  A    between atoms: C_17  and  C_18 
REMARK    6  A    between atoms: C_18  and  N_19 
REMARK       I    between atoms: N_19  and  C_20 
REMARK    7  A    between atoms: C_20  and  C_21 
ROOT
HETATM    1  C   UNL     1     -41.235  53.260 -53.244  1.00  0.00     0.042 A 
HETATM    2  C   UNL     1     -41.647  53.582 -54.546  1.00  0.00     0.047 A 
HETATM    3  C   UNL     1     -42.710  54.465 -54.754  1.00  0.00     0.036 A 
HETATM    4  C   UNL     1     -43.355  55.027 -53.643  1.00  0.00     0.038 A 
HETATM    5  C   UNL     1     -42.937  54.740 -52.333  1.00  0.00    -0.037 A 
HETATM    6  C   UNL     1     -41.887  53.835 -52.144  1.00  0.00     0.026 A 
ENDROOT
BRANCH   5   7
HETATM    7  C   UNL     1     -43.588  55.416 -51.157  1.00  0.00     0.161 C 
BRANCH   7   8
HETATM    8  N   UNL     1     -43.286  56.824 -51.096  1.00  0.00    -0.351 N 
HETATM    9  C   UNL     1     -44.268  57.782 -51.101  1.00  0.00     0.270 C 
HETATM   10  O   UNL     1     -45.459  57.499 -51.010  1.00  0.00    -0.266 OA
HETATM   11  H   UNL     1     -42.323  57.101 -50.995  1.00  0.00     0.163 HD
BRANCH   9  12
HETATM   12  C   UNL     1     -43.819  59.147 -51.224  1.00  0.00     0.126 A 
HETATM   13  N   UNL     1     -42.858  59.473 -52.153  1.00  0.00    -0.272 N 
HETATM   14  H   UNL     1     -42.408  58.837 -52.804  1.00  0.00     0.189 HD
HETATM   15  N   UNL     1     -42.500  60.768 -52.158  1.00  0.00    -0.178 NA
HETATM   16  C   UNL     1     -43.240  61.294 -51.184  1.00  0.00     0.063 A 
HETATM   17  C   UNL     1     -44.081  60.335 -50.560  1.00  0.00     0.002 A 
HETATM   18  C   UNL     1     -43.134  62.719 -50.766  1.00  0.00     0.062 C 
HETATM   19  C   UNL     1     -44.983  60.687 -49.429  1.00  0.00     0.043 C 
HETATM   20  C   UNL     1     -44.606  62.042 -48.801  1.00  0.00     0.005 C 
HETATM   21  C   UNL     1     -44.312  63.116 -49.864  1.00  0.00     0.006 C 
ENDBRANCH   9  12
ENDBRANCH   7   8
ENDBRANCH   5   7
BRANCH   3  22
HETATM   22  N   UNL     1     -43.164  54.868 -56.030  1.00  0.00    -0.323 N 
HETATM   23  C   UNL     1     -42.873  56.052 -56.688  1.00  0.00     0.256 C 
HETATM   24  O   UNL     1     -42.075  56.907 -56.324  1.00  0.00    -0.267 OA
HETATM   25  H   UNL     1     -43.748  54.197 -56.512  1.00  0.00     0.169 HD
BRANCH  23  26
HETATM   26  C   UNL     1     -43.602  56.280 -57.971  1.00  0.00     0.035 A 
HETATM   27  C   UNL     1     -44.236  57.487 -58.271  1.00  0.00     0.036 A 
HETATM   28  C   UNL     1     -44.860  57.603 -59.502  1.00  0.00     0.117 A 
HETATM   29  N   UNL     1     -44.883  56.622 -60.428  1.00  0.00    -0.273 NA
HETATM   30  C   UNL     1     -44.241  55.475 -60.124  1.00  0.00     0.117 A 
HETATM   31  C   UNL     1     -43.592  55.258 -58.923  1.00  0.00     0.036 A 
ENDBRANCH  23  26
ENDBRANCH   3  22
BRANCH   1  32
HETATM   32  C   UNL     1     -40.101  52.336 -52.973  1.00  0.00     0.293 C 
HETATM   33  O   UNL     1     -39.515  51.722 -53.852  1.00  0.00    -0.259 OA
BRANCH  32  34
HETATM   34  O   UNL     1     -39.853  52.252 -51.644  1.00  0.00    -0.323 OA
HETATM   35  C   UNL     1     -39.686  50.919 -51.160  1.00  0.00     0.213 C 
ENDBRANCH  32  34
ENDBRANCH   1  32
TORSDOF 7
ENDMDL
MODEL 8
REMARK VINA RESULT:      -8.2      2.013      2.792
REMARK  7 active torsions:
REMARK  status: ('A' for Active; 'I' for Inactive)
REMARK    1  A    between atoms: O_2  and  C_3 
REMARK    2  A    between atoms: C_3  and  C_4 
REMARK    3  A    between atoms: C_6  and  N_7 
REMARK       I    between atoms: N_7  and  C_8 
REMARK    4  A    between atoms: C_8  and  C_9 
REMARK    5  A    between atoms: C_17  and  C_18 
REMARK    6  A    between atoms: C_18  and  N_19 
REMARK       I    between atoms: N_19  and  C_20 
REMARK    7  A    between atoms: C_20  and  C_21 
ROOT
HETATM    1  C   UNL     1     -43.555  56.872 -52.816  1.00  0.00     0.042 A 
HETATM    2  C   UNL     1     -43.034  55.583 -52.628  1.00  0.00     0.047 A 
HETATM    3  C   UNL     1     -42.432  54.901 -53.688  1.00  0.00     0.036 A 
HETATM    4  C   UNL     1     -42.354  55.525 -54.942  1.00  0.00     0.038 A 
HETATM    5  C   UNL     1     -42.843  56.826 -55.141  1.00  0.00    -0.037 A 
HETATM    6  C   UNL     1     -43.464  57.484 -54.074  1.00  0.00     0.026 A 
ENDROOT
BRANCH   5   7
HETATM    7  C   UNL     1     -42.676  57.511 -56.471  1.00  0.00     0.161 C 
BRANCH   7   8
HETATM    8  N   UNL     1     -43.875  57.462 -57.269  1.00  0.00    -0.351 N 
HETATM    9  C   UNL     1     -43.938  56.763 -58.449  1.00  0.00     0.270 C 
HETATM   10  O   UNL     1     -43.032  56.023 -58.820  1.00  0.00    -0.266 OA
HETATM   11  H   UNL     1     -44.701  57.916 -56.917  1.00  0.00     0.163 HD
BRANCH   9  12
HETATM   12  C   UNL     1     -45.133  56.954 -59.232  1.00  0.00     0.126 A 
HETATM   13  N   UNL     1     -45.950  55.883 -59.513  1.00  0.00    -0.272 N 
HETATM   14  H   UNL     1     -45.810  54.923 -59.213  1.00  0.00     0.189 HD
HETATM   15  N   UNL     1     -47.019  56.177 -60.271  1.00  0.00    -0.178 NA
HETATM   16  C   UNL     1     -46.878  57.480 -60.507  1.00  0.00     0.063 A 
HETATM   17  C   UNL     1     -45.721  58.024 -59.890  1.00  0.00     0.002 A 
HETATM   18  C   UNL     1     -47.808  58.250 -61.379  1.00  0.00     0.062 C 
HETATM   19  C   UNL     1     -45.346  59.458 -60.033  1.00  0.00     0.043 C 
HETATM   20  C   UNL     1     -46.102  60.131 -61.193  1.00  0.00     0.005 C 
HETATM   21  C   UNL     1     -47.595  59.762 -61.209  1.00  0.00     0.006 C 
ENDBRANCH   9  12
ENDBRANCH   7   8
ENDBRANCH   5   7
BRANCH   3  22
HETATM   22  N   UNL     1     -41.851  53.617 -53.574  1.00  0.00    -0.323 N 
HETATM   23  C   UNL     1     -40.743  53.262 -52.824  1.00  0.00     0.256 C 
HETATM   24  O   UNL     1     -40.142  53.979 -52.033  1.00  0.00    -0.267 OA
HETATM   25  H   UNL     1     -42.323  52.885 -54.088  1.00  0.00     0.169 HD
BRANCH  23  26
HETATM   26  C   UNL     1     -40.262  51.859 -52.996  1.00  0.00     0.035 A 
HETATM   27  C   UNL     1     -39.797  51.087 -51.930  1.00  0.00     0.036 A 
HETATM   28  C   UNL     1     -39.399  49.788 -52.196  1.00  0.00     0.117 A 
HETATM   29  N   UNL     1     -39.442  49.225 -53.421  1.00  0.00    -0.273 NA
HETATM   30  C   UNL     1     -39.919  49.983 -54.430  1.00  0.00     0.117 A 
HETATM   31  C   UNL     1     -40.337  51.291 -54.270  1.00  0.00     0.036 A 
ENDBRANCH  23  26
ENDBRANCH   3  22
BRANCH   1  32
HETATM   32  C   UNL     1     -44.193  57.642 -51.714  1.00  0.00     0.293 C 
HETATM   33  O   UNL     1     -45.029  57.164 -50.963  1.00  0.00    -0.259 OA
BRANCH  32  34
HETATM   34  O   UNL     1     -43.749  58.921 -51.699  1.00  0.00    -0.323 OA
HETATM   35  C   UNL     1     -42.454  59.086 -51.122  1.00  0.00     0.213 C 
ENDBRANCH  32  34
ENDBRANCH   1  32
TORSDOF 7
ENDMDL
MODEL 9
REMARK VINA RESULT:      -8.1      2.563      7.600
REMARK  7 active torsions:
REMARK  status: ('A' for Active; 'I' for Inactive)
REMARK    1  A    between atoms: O_2  and  C_3 
REMARK    2  A    between atoms: C_3  and  C_4 
REMARK    3  A    between atoms: C_6  and  N_7 
REMARK       I    between atoms: N_7  and  C_8 
REMARK    4  A    between atoms: C_8  and  C_9 
REMARK    5  A    between atoms: C_17  and  C_18 
REMARK    6  A    between atoms: C_18  and  N_19 
REMARK       I    between atoms: N_19  and  C_20 
REMARK    7  A    between atoms: C_20  and  C_21 
ROOT
HETATM    1  C   UNL     1     -44.846  58.758 -52.292  1.00  0.00     0.042 A 
HETATM    2  C   UNL     1     -44.545  58.574 -53.650  1.00  0.00     0.047 A 
HETATM    3  C   UNL     1     -43.745  57.504 -54.059  1.00  0.00     0.036 A 
HETATM    4  C   UNL     1     -43.249  56.617 -53.092  1.00  0.00     0.038 A 
HETATM    5  C   UNL     1     -43.564  56.768 -51.732  1.00  0.00    -0.037 A 
HETATM    6  C   UNL     1     -44.348  57.858 -51.339  1.00  0.00     0.026 A 
ENDROOT
BRANCH   5   7
HETATM    7  C   UNL     1     -43.092  55.759 -50.720  1.00  0.00     0.161 C 
BRANCH   7   8
HETATM    8  N   UNL     1     -42.481  54.608 -51.335  1.00  0.00    -0.351 N 
HETATM    9  C   UNL     1     -41.128  54.383 -51.280  1.00  0.00     0.270 C 
HETATM   10  O   UNL     1     -40.381  55.062 -50.582  1.00  0.00    -0.266 OA
HETATM   11  H   UNL     1     -43.079  53.928 -51.775  1.00  0.00     0.163 HD
BRANCH   9  12
HETATM   12  C   UNL     1     -40.634  53.300 -52.093  1.00  0.00     0.126 A 
HETATM   13  N   UNL     1     -40.535  53.453 -53.456  1.00  0.00    -0.272 N 
HETATM   14  H   UNL     1     -40.774  54.284 -53.989  1.00  0.00     0.189 HD
HETATM   15  N   UNL     1     -40.088  52.369 -54.111  1.00  0.00    -0.178 NA
HETATM   16  C   UNL     1     -39.910  51.476 -53.140  1.00  0.00     0.063 A 
HETATM   17  C   UNL     1     -40.236  51.992 -51.858  1.00  0.00     0.002 A 
HETATM   18  C   UNL     1     -39.480  50.074 -53.398  1.00  0.00     0.062 C 
HETATM   19  C   UNL     1     -40.137  51.168 -50.622  1.00  0.00     0.043 C 
HETATM   20  C   UNL     1     -40.035  49.666 -50.946  1.00  0.00     0.005 C 
HETATM   21  C   UNL     1     -39.051  49.383 -52.095  1.00  0.00     0.006 C 
ENDBRANCH   9  12
ENDBRANCH   7   8
ENDBRANCH   5   7
BRANCH   3  22
HETATM   22  N   UNL     1     -43.424  57.227 -55.407  1.00  0.00    -0.323 N 
HETATM   23  C   UNL     1     -42.628  57.982 -56.252  1.00  0.00     0.256 C 
HETATM   24  O   UNL     1     -41.968  58.966 -55.939  1.00  0.00    -0.267 OA
HETATM   25  H   UNL     1     -43.810  56.367 -55.773  1.00  0.00     0.169 HD
BRANCH  23  26
HETATM   26  C   UNL     1     -42.570  57.527 -57.672  1.00  0.00     0.035 A 
HETATM   27  C   UNL     1     -41.913  58.252 -58.668  1.00  0.00     0.036 A 
HETATM   28  C   UNL     1     -41.896  57.725 -59.948  1.00  0.00     0.117 A 
HETATM   29  N   UNL     1     -42.470  56.552 -60.287  1.00  0.00    -0.273 NA
HETATM   30  C   UNL     1     -43.077  55.859 -59.301  1.00  0.00     0.117 A 
HETATM   31  C   UNL     1     -43.153  56.299 -57.993  1.00  0.00     0.036 A 
ENDBRANCH  23  26
ENDBRANCH   3  22
BRANCH   1  32
HETATM   32  C   UNL     1     -45.704  59.875 -51.810  1.00  0.00     0.293 C 
HETATM   33  O   UNL     1     -46.610  59.721 -51.006  1.00  0.00    -0.259 OA
BRANCH  32  34
HETATM   34  O   UNL     1     -45.362  61.040 -52.411  1.00  0.00    -0.323 OA
HETATM   35  C   UNL     1     -44.326  61.762 -51.745  1.00  0.00     0.213 C 
ENDBRANCH  32  34
ENDBRANCH   1  32
TORSDOF 7
ENDMDL
MODEL 10
REMARK VINA RESULT:      -8.0      2.416      7.036
REMARK  7 active torsions:
REMARK  status: ('A' for Active; 'I' for Inactive)
REMARK    1  A    between atoms: O_2  and  C_3 
REMARK    2  A    between atoms: C_3  and  C_4 
REMARK    3  A    between atoms: C_6  and  N_7 
REMARK       I    between atoms: N_7  and  C_8 
REMARK    4  A    between atoms: C_8  and  C_9 
REMARK    5  A    between atoms: C_17  and  C_18 
REMARK    6  A    between atoms: C_18  and  N_19 
REMARK       I    between atoms: N_19  and  C_20 
REMARK    7  A    between atoms: C_20  and  C_21 
ROOT
HETATM    1  C   UNL     1     -43.402  56.296 -58.505  1.00  0.00     0.042 A 
HETATM    2  C   UNL     1     -42.761  55.391 -57.646  1.00  0.00     0.047 A 
HETATM    3  C   UNL     1     -42.853  55.543 -56.261  1.00  0.00     0.036 A 
HETATM    4  C   UNL     1     -43.600  56.611 -55.742  1.00  0.00     0.038 A 
HETATM    5  C   UNL     1     -44.273  57.510 -56.586  1.00  0.00    -0.037 A 
HETATM    6  C   UNL     1     -44.149  57.355 -57.971  1.00  0.00     0.026 A 
ENDROOT
BRANCH   5   7
HETATM    7  C   UNL     1     -45.136  58.600 -56.010  1.00  0.00     0.161 C 
BRANCH   7   8
HETATM    8  N   UNL     1     -44.711  59.000 -54.693  1.00  0.00    -0.351 N 
HETATM    9  C   UNL     1     -43.826  60.029 -54.492  1.00  0.00     0.270 C 
HETATM   10  O   UNL     1     -43.459  60.763 -55.405  1.00  0.00    -0.266 OA
HETATM   11  H   UNL     1     -45.120  58.536 -53.898  1.00  0.00     0.163 HD
BRANCH   9  12
HETATM   12  C   UNL     1     -43.348  60.197 -53.142  1.00  0.00     0.126 A 
HETATM   13  N   UNL     1     -44.030  61.009 -52.267  1.00  0.00    -0.272 N 
HETATM   14  H   UNL     1     -44.881  61.527 -52.463  1.00  0.00     0.189 HD
HETATM   15  N   UNL     1     -43.476  61.108 -51.047  1.00  0.00    -0.178 NA
HETATM   16  C   UNL     1     -42.386  60.351 -51.143  1.00  0.00     0.063 A 
HETATM   17  C   UNL     1     -42.245  59.757 -52.425  1.00  0.00     0.002 A 
HETATM   18  C   UNL     1     -41.399  60.209 -50.037  1.00  0.00     0.062 C 
HETATM   19  C   UNL     1     -41.090  58.885 -52.774  1.00  0.00     0.043 C 
HETATM   20  C   UNL     1     -39.938  59.037 -51.762  1.00  0.00     0.005 C 
HETATM   21  C   UNL     1     -40.436  59.042 -50.307  1.00  0.00     0.006 C 
ENDBRANCH   9  12
ENDBRANCH   7   8
ENDBRANCH   5   7
BRANCH   3  22
HETATM   22  N   UNL     1     -42.269  54.657 -55.327  1.00  0.00    -0.323 N 
HETATM   23  C   UNL     1     -41.095  54.844 -54.616  1.00  0.00     0.256 C 
HETATM   24  O   UNL     1     -40.419  55.866 -54.587  1.00  0.00    -0.267 OA
HETATM   25  H   UNL     1     -42.789  53.807 -55.156  1.00  0.00     0.169 HD
BRANCH  23  26
HETATM   26  C   UNL     1     -40.636  53.682 -53.799  1.00  0.00     0.035 A 
HETATM   27  C   UNL     1     -40.208  52.483 -54.370  1.00  0.00     0.036 A 
HETATM   28  C   UNL     1     -39.777  51.478 -53.521  1.00  0.00     0.117 A 
HETATM   29  N   UNL     1     -39.739  51.594 -52.177  1.00  0.00    -0.273 NA
HETATM   30  C   UNL     1     -40.135  52.772 -51.651  1.00  0.00     0.117 A 
HETATM   31  C   UNL     1     -40.586  53.835 -52.411  1.00  0.00     0.036 A 
ENDBRANCH  23  26
ENDBRANCH   3  22
BRANCH   1  32
HETATM   32  C   UNL     1     -43.342  56.167 -59.987  1.00  0.00     0.293 C 
HETATM   33  O   UNL     1     -42.817  57.002 -60.709  1.00  0.00    -0.259 OA
BRANCH  32  34
HETATM   34  O   UNL     1     -43.971  55.041 -60.399  1.00  0.00    -0.323 OA
HETATM   35  C   UNL     1     -45.312  55.247 -60.845  1.00  0.00     0.213 C 
ENDBRANCH  32  34
ENDBRANCH   1  32
TORSDOF 7
ENDMDL
