MODEL 1
REMARK VINA RESULT:      -8.5      0.000      0.000
REMARK  6 active torsions:
REMARK  status: ('A' for Active; 'I' for Inactive)
REMARK    1  A    between atoms: C_2  and  C_3 
REMARK    2  A    between atoms: C_4  and  N_5 
REMARK       I    between atoms: N_5  and  C_6 
REMARK    3  A    between atoms: C_6  and  C_7 
REMARK    4  A    between atoms: C_7  and  N_8 
REMARK       I    between atoms: N_8  and  C_9 
REMARK    5  A    between atoms: C_9  and  C_10 
REMARK    6  A    between atoms: C_11  and  C_12 
ROOT
HETATM    1  N   UNL     1     -42.277  55.391 -56.980  1.00  0.00    -0.348 N 
HETATM    2  C   UNL     1     -43.271  56.160 -57.557  1.00  0.00     0.255 C 
HETATM    3  O   UNL     1     -43.713  57.163 -57.009  1.00  0.00    -0.268 OA
HETATM    4  H   UNL     1     -42.047  54.514 -57.423  1.00  0.00     0.163 HD
ENDROOT
BRANCH   1   5
HETATM    5  C   UNL     1     -42.026  55.505 -55.549  1.00  0.00     0.226 C 
BRANCH   5   6
HETATM    6  C   UNL     1     -40.945  54.586 -54.956  1.00  0.00     0.239 C 
HETATM    7  N   UNL     1     -41.456  53.501 -54.265  1.00  0.00    -0.325 N 
HETATM    8  H   UNL     1     -42.464  53.451 -54.249  1.00  0.00     0.169 HD
HETATM    9  O   UNL     1     -39.763  54.916 -55.030  1.00  0.00    -0.271 OA
BRANCH   7  10
HETATM   10  C   UNL     1     -40.744  52.461 -53.626  1.00  0.00     0.041 A 
HETATM   11  C   UNL     1     -40.423  52.581 -52.255  1.00  0.00    -0.032 A 
HETATM   12  C   UNL     1     -39.732  51.530 -51.617  1.00  0.00     0.009 A 
HETATM   13  C   UNL     1     -39.369  50.379 -52.312  1.00  0.00     0.001 A 
HETATM   14  C   UNL     1     -39.686  50.264 -53.659  1.00  0.00     0.002 A 
HETATM   15  C   UNL     1     -40.366  51.296 -54.308  1.00  0.00     0.030 A 
BRANCH  11  16
HETATM   16  C   UNL     1     -40.751  53.803 -51.424  1.00  0.00     0.036 C 
HETATM   17  C   UNL     1     -39.839  53.949 -50.215  1.00  0.00     0.010 C 
ENDBRANCH  11  16
ENDBRANCH   7  10
ENDBRANCH   5   6
ENDBRANCH   1   5
BRANCH   2  18
HETATM   18  C   UNL     1     -43.728  55.694 -58.854  1.00  0.00     0.080 A 
HETATM   19  C   UNL     1     -43.879  56.431 -60.076  1.00  0.00     0.104 A 
HETATM   20  N   UNL     1     -44.412  55.651 -61.035  1.00  0.00    -0.174 NA
HETATM   21  N   UNL     1     -44.597  54.465 -60.454  1.00  0.00    -0.288 N 
HETATM   22  H   UNL     1     -45.019  53.723 -61.005  1.00  0.00     0.188 HD
HETATM   23  C   UNL     1     -44.188  54.423 -59.157  1.00  0.00     0.128 A 
BRANCH  19  24
HETATM   24  C   UNL     1     -43.516  57.819 -60.382  1.00  0.00    -0.005 A 
HETATM   25  C   UNL     1     -42.182  58.196 -60.580  1.00  0.00     0.014 A 
HETATM   26  C   UNL     1     -41.852  59.515 -60.902  1.00  0.00     0.001 A 
HETATM   27  C   UNL     1     -42.855  60.472 -61.035  1.00  0.00     0.000 A 
HETATM   28  C   UNL     1     -44.188  60.111 -60.848  1.00  0.00     0.001 A 
HETATM   29  C   UNL     1     -44.516  58.792 -60.527  1.00  0.00     0.014 A 
ENDBRANCH  19  24
ENDBRANCH   2  18
TORSDOF 6
ENDMDL
MODEL 2
REMARK VINA RESULT:      -8.4      2.022      9.312
REMARK  6 active torsions:
REMARK  status: ('A' for Active; 'I' for Inactive)
REMARK    1  A    between atoms: C_2  and  C_3 
REMARK    2  A    between atoms: C_4  and  N_5 
REMARK       I    between atoms: N_5  and  C_6 
REMARK    3  A    between atoms: C_6  and  C_7 
REMARK    4  A    between atoms: C_7  and  N_8 
REMARK       I    between atoms: N_8  and  C_9 
REMARK    5  A    between atoms: C_9  and  C_10 
REMARK    6  A    between atoms: C_11  and  C_12 
ROOT
HETATM    1  N   UNL     1     -42.433  54.729 -53.559  1.00  0.00    -0.348 N 
HETATM    2  C   UNL     1     -42.618  54.243 -52.277  1.00  0.00     0.255 C 
HETATM    3  O   UNL     1     -43.685  53.761 -51.917  1.00  0.00    -0.268 OA
HETATM    4  H   UNL     1     -41.574  55.224 -53.752  1.00  0.00     0.163 HD
ENDROOT
BRANCH   1   5
HETATM    5  C   UNL     1     -43.595  55.063 -54.371  1.00  0.00     0.226 C 
BRANCH   5   6
HETATM    6  C   UNL     1     -43.430  56.204 -55.389  1.00  0.00     0.239 C 
HETATM    7  N   UNL     1     -43.136  55.770 -56.669  1.00  0.00    -0.325 N 
HETATM    8  H   UNL     1     -43.078  54.767 -56.768  1.00  0.00     0.169 HD
HETATM    9  O   UNL     1     -43.455  57.370 -54.999  1.00  0.00    -0.271 OA
BRANCH   7  10
HETATM   10  C   UNL     1     -42.949  56.550 -57.833  1.00  0.00     0.041 A 
HETATM   11  C   UNL     1     -43.477  56.095 -59.063  1.00  0.00    -0.032 A 
HETATM   12  C   UNL     1     -43.306  56.888 -60.217  1.00  0.00     0.009 A 
HETATM   13  C   UNL     1     -42.634  58.106 -60.162  1.00  0.00     0.001 A 
HETATM   14  C   UNL     1     -42.117  58.549 -58.953  1.00  0.00     0.002 A 
HETATM   15  C   UNL     1     -42.273  57.777 -57.800  1.00  0.00     0.030 A 
BRANCH  11  16
HETATM   16  C   UNL     1     -44.196  54.774 -59.226  1.00  0.00     0.036 C 
HETATM   17  C   UNL     1     -44.893  54.651 -60.573  1.00  0.00     0.010 C 
ENDBRANCH  11  16
ENDBRANCH   7  10
ENDBRANCH   5   6
ENDBRANCH   1   5
BRANCH   2  18
HETATM   18  C   UNL     1     -41.455  54.337 -51.414  1.00  0.00     0.080 A 
HETATM   19  C   UNL     1     -40.375  53.406 -51.251  1.00  0.00     0.104 A 
HETATM   20  N   UNL     1     -39.532  53.825 -50.288  1.00  0.00    -0.174 NA
HETATM   21  N   UNL     1     -40.050  54.974 -49.850  1.00  0.00    -0.288 N 
HETATM   22  H   UNL     1     -39.574  55.454 -49.093  1.00  0.00     0.188 HD
HETATM   23  C   UNL     1     -41.187  55.342 -50.500  1.00  0.00     0.128 A 
BRANCH  19  24
HETATM   24  C   UNL     1     -40.091  52.166 -51.980  1.00  0.00    -0.005 A 
HETATM   25  C   UNL     1     -39.813  50.971 -51.305  1.00  0.00     0.014 A 
HETATM   26  C   UNL     1     -39.575  49.789 -52.012  1.00  0.00     0.001 A 
HETATM   27  C   UNL     1     -39.617  49.788 -53.404  1.00  0.00     0.000 A 
HETATM   28  C   UNL     1     -39.899  50.968 -54.090  1.00  0.00     0.001 A 
HETATM   29  C   UNL     1     -40.139  52.148 -53.382  1.00  0.00     0.014 A 
ENDBRANCH  19  24
ENDBRANCH   2  18
TORSDOF 6
ENDMDL
MODEL 3
REMARK VINA RESULT:      -8.3      3.888      8.359
REMARK  6 active torsions:
REMARK  status: ('A' for Active; 'I' for Inactive)
REMARK    1  A    between atoms: C_2  and  C_3 
REMARK    2  A    between atoms: C_4  and  N_5 
REMARK       I    between atoms: N_5  and  C_6 
REMARK    3  A    between atoms: C_6  and  C_7 
REMARK    4  A    between atoms: C_7  and  N_8 
REMARK       I    between atoms: N_8  and  C_9 
REMARK    5  A    between atoms: C_9  and  C_10 
REMARK    6  A    between atoms: C_11  and  C_12 
ROOT
HETATM    1  N   UNL     1     -42.070  53.873 -54.775  1.00  0.00    -0.348 N 
HETATM    2  C   UNL     1     -40.708  53.721 -54.590  1.00  0.00     0.255 C 
HETATM    3  O   UNL     1     -39.902  54.538 -55.021  1.00  0.00    -0.268 OA
HETATM    4  H   UNL     1     -42.667  53.104 -54.505  1.00  0.00     0.163 HD
ENDROOT
BRANCH   1   5
HETATM    5  C   UNL     1     -42.554  54.761 -55.823  1.00  0.00     0.226 C 
BRANCH   5   6
HETATM    6  C   UNL     1     -42.933  56.191 -55.405  1.00  0.00     0.239 C 
HETATM    7  N   UNL     1     -43.187  56.326 -54.051  1.00  0.00    -0.325 N 
HETATM    8  H   UNL     1     -43.082  55.474 -53.519  1.00  0.00     0.169 HD
HETATM    9  O   UNL     1     -43.090  57.053 -56.268  1.00  0.00    -0.271 OA
BRANCH   7  10
HETATM   10  C   UNL     1     -43.532  57.498 -53.341  1.00  0.00     0.041 A 
HETATM   11  C   UNL     1     -42.599  58.061 -52.440  1.00  0.00    -0.032 A 
HETATM   12  C   UNL     1     -42.940  59.244 -51.750  1.00  0.00     0.009 A 
HETATM   13  C   UNL     1     -44.172  59.863 -51.946  1.00  0.00     0.001 A 
HETATM   14  C   UNL     1     -45.085  59.307 -52.831  1.00  0.00     0.002 A 
HETATM   15  C   UNL     1     -44.767  58.135 -53.520  1.00  0.00     0.030 A 
BRANCH  11  16
HETATM   16  C   UNL     1     -41.250  57.446 -52.141  1.00  0.00     0.036 C 
HETATM   17  C   UNL     1     -40.550  58.114 -50.967  1.00  0.00     0.010 C 
ENDBRANCH  11  16
ENDBRANCH   7  10
ENDBRANCH   5   6
ENDBRANCH   1   5
BRANCH   2  18
HETATM   18  C   UNL     1     -40.320  52.540 -53.841  1.00  0.00     0.080 A 
HETATM   19  C   UNL     1     -40.223  52.364 -52.420  1.00  0.00     0.104 A 
HETATM   20  N   UNL     1     -39.746  51.140 -52.127  1.00  0.00    -0.174 NA
HETATM   21  N   UNL     1     -39.544  50.555 -53.309  1.00  0.00    -0.288 N 
HETATM   22  H   UNL     1     -39.157  49.616 -53.317  1.00  0.00     0.188 HD
HETATM   23  C   UNL     1     -39.889  51.335 -54.369  1.00  0.00     0.128 A 
BRANCH  19  24
HETATM   24  C   UNL     1     -40.587  53.283 -51.336  1.00  0.00    -0.005 A 
HETATM   25  C   UNL     1     -41.906  53.723 -51.167  1.00  0.00     0.014 A 
HETATM   26  C   UNL     1     -42.245  54.575 -50.112  1.00  0.00     0.001 A 
HETATM   27  C   UNL     1     -41.269  54.991 -49.210  1.00  0.00     0.000 A 
HETATM   28  C   UNL     1     -39.954  54.556 -49.361  1.00  0.00     0.001 A 
HETATM   29  C   UNL     1     -39.616  53.704 -50.415  1.00  0.00     0.014 A 
ENDBRANCH  19  24
ENDBRANCH   2  18
TORSDOF 6
ENDMDL
MODEL 4
REMARK VINA RESULT:      -8.1      1.952      3.482
REMARK  6 active torsions:
REMARK  status: ('A' for Active; 'I' for Inactive)
REMARK    1  A    between atoms: C_2  and  C_3 
REMARK    2  A    between atoms: C_4  and  N_5 
REMARK       I    between atoms: N_5  and  C_6 
REMARK    3  A    between atoms: C_6  and  C_7 
REMARK    4  A    between atoms: C_7  and  N_8 
REMARK       I    between atoms: N_8  and  C_9 
REMARK    5  A    between atoms: C_9  and  C_10 
REMARK    6  A    between atoms: C_11  and  C_12 
ROOT
HETATM    1  N   UNL     1     -42.092  56.268 -57.017  1.00  0.00    -0.348 N 
HETATM    2  C   UNL     1     -42.706  57.486 -56.791  1.00  0.00     0.255 C 
HETATM    3  O   UNL     1     -43.242  57.752 -55.722  1.00  0.00    -0.268 OA
HETATM    4  H   UNL     1     -41.781  56.068 -57.957  1.00  0.00     0.163 HD
ENDROOT
BRANCH   1   5
HETATM    5  C   UNL     1     -42.422  55.133 -56.165  1.00  0.00     0.226 C 
BRANCH   5   6
HETATM    6  C   UNL     1     -41.489  54.864 -54.972  1.00  0.00     0.239 C 
HETATM    7  N   UNL     1     -41.912  53.829 -54.158  1.00  0.00    -0.325 N 
HETATM    8  H   UNL     1     -42.768  53.383 -54.457  1.00  0.00     0.169 HD
HETATM    9  O   UNL     1     -40.540  55.618 -54.764  1.00  0.00    -0.271 OA
BRANCH   7  10
HETATM   10  C   UNL     1     -41.280  53.312 -53.004  1.00  0.00     0.041 A 
HETATM   11  C   UNL     1     -40.365  52.243 -53.136  1.00  0.00    -0.032 A 
HETATM   12  C   UNL     1     -39.720  51.746 -51.984  1.00  0.00     0.009 A 
HETATM   13  C   UNL     1     -39.967  52.293 -50.727  1.00  0.00     0.001 A 
HETATM   14  C   UNL     1     -40.866  53.342 -50.601  1.00  0.00     0.002 A 
HETATM   15  C   UNL     1     -41.517  53.846 -51.730  1.00  0.00     0.030 A 
BRANCH  11  16
HETATM   16  C   UNL     1     -40.054  51.567 -54.453  1.00  0.00     0.036 C 
HETATM   17  C   UNL     1     -40.022  50.050 -54.338  1.00  0.00     0.010 C 
ENDBRANCH  11  16
ENDBRANCH   7  10
ENDBRANCH   5   6
ENDBRANCH   1   5
BRANCH   2  18
HETATM   18  C   UNL     1     -42.649  58.416 -57.905  1.00  0.00     0.080 A 
HETATM   19  C   UNL     1     -43.370  58.384 -59.146  1.00  0.00     0.104 A 
HETATM   20  N   UNL     1     -42.969  59.386 -59.950  1.00  0.00    -0.174 NA
HETATM   21  N   UNL     1     -42.030  60.032 -59.258  1.00  0.00    -0.288 N 
HETATM   22  H   UNL     1     -41.570  60.823 -59.700  1.00  0.00     0.188 HD
HETATM   23  C   UNL     1     -41.810  59.512 -58.020  1.00  0.00     0.128 A 
BRANCH  19  24
HETATM   24  C   UNL     1     -44.434  57.475 -59.586  1.00  0.00    -0.005 A 
HETATM   25  C   UNL     1     -45.773  57.704 -59.247  1.00  0.00     0.014 A 
HETATM   26  C   UNL     1     -46.781  56.847 -59.699  1.00  0.00     0.001 A 
HETATM   27  C   UNL     1     -46.460  55.754 -60.501  1.00  0.00     0.000 A 
HETATM   28  C   UNL     1     -45.132  55.518 -60.852  1.00  0.00     0.001 A 
HETATM   29  C   UNL     1     -44.126  56.375 -60.401  1.00  0.00     0.014 A 
ENDBRANCH  19  24
ENDBRANCH   2  18
TORSDOF 6
ENDMDL
MODEL 5
REMARK VINA RESULT:      -8.0      1.985      3.041
REMARK  6 active torsions:
REMARK  status: ('A' for Active; 'I' for Inactive)
REMARK    1  A    between atoms: C_2  and  C_3 
REMARK    2  A    between atoms: C_4  and  N_5 
REMARK       I    between atoms: N_5  and  C_6 
REMARK    3  A    between atoms: C_6  and  C_7 
REMARK    4  A    between atoms: C_7  and  N_8 
REMARK       I    between atoms: N_8  and  C_9 
REMARK    5  A    between atoms: C_9  and  C_10 
REMARK    6  A    between atoms: C_11  and  C_12 
ROOT
HETATM    1  N   UNL     1     -42.149  56.353 -57.001  1.00  0.00    -0.348 N 
HETATM    2  C   UNL     1     -42.660  57.614 -56.753  1.00  0.00     0.255 C 
HETATM    3  O   UNL     1     -43.109  57.925 -55.657  1.00  0.00    -0.268 OA
HETATM    4  H   UNL     1     -41.910  56.124 -57.955  1.00  0.00     0.163 HD
ENDROOT
BRANCH   1   5
HETATM    5  C   UNL     1     -42.507  55.251 -56.118  1.00  0.00     0.226 C 
BRANCH   5   6
HETATM    6  C   UNL     1     -41.395  54.694 -55.213  1.00  0.00     0.239 C 
HETATM    7  N   UNL     1     -41.738  53.518 -54.570  1.00  0.00    -0.325 N 
HETATM    8  H   UNL     1     -42.664  53.178 -54.786  1.00  0.00     0.169 HD
HETATM    9  O   UNL     1     -40.371  55.352 -55.038  1.00  0.00    -0.271 OA
BRANCH   7  10
HETATM   10  C   UNL     1     -40.947  52.738 -53.698  1.00  0.00     0.041 A 
HETATM   11  C   UNL     1     -40.842  53.111 -52.338  1.00  0.00    -0.032 A 
HETATM   12  C   UNL     1     -40.068  52.316 -51.466  1.00  0.00     0.009 A 
HETATM   13  C   UNL     1     -39.415  51.174 -51.921  1.00  0.00     0.001 A 
HETATM   14  C   UNL     1     -39.519  50.811 -53.256  1.00  0.00     0.002 A 
HETATM   15  C   UNL     1     -40.278  51.587 -54.136  1.00  0.00     0.030 A 
BRANCH  11  16
HETATM   16  C   UNL     1     -41.492  54.348 -51.759  1.00  0.00     0.036 C 
HETATM   17  C   UNL     1     -42.906  54.086 -51.259  1.00  0.00     0.010 C 
ENDBRANCH  11  16
ENDBRANCH   7  10
ENDBRANCH   5   6
ENDBRANCH   1   5
BRANCH   2  18
HETATM   18  C   UNL     1     -42.603  58.529 -57.879  1.00  0.00     0.080 A 
HETATM   19  C   UNL     1     -43.316  58.474 -59.123  1.00  0.00     0.104 A 
HETATM   20  N   UNL     1     -42.918  59.469 -59.939  1.00  0.00    -0.174 NA
HETATM   21  N   UNL     1     -41.990  60.132 -59.249  1.00  0.00    -0.288 N 
HETATM   22  H   UNL     1     -41.534  60.922 -59.698  1.00  0.00     0.188 HD
HETATM   23  C   UNL     1     -41.774  59.631 -58.003  1.00  0.00     0.128 A 
BRANCH  19  24
HETATM   24  C   UNL     1     -44.368  57.550 -59.558  1.00  0.00    -0.005 A 
HETATM   25  C   UNL     1     -45.708  57.755 -59.208  1.00  0.00     0.014 A 
HETATM   26  C   UNL     1     -46.706  56.884 -59.655  1.00  0.00     0.001 A 
HETATM   27  C   UNL     1     -46.374  55.800 -60.464  1.00  0.00     0.000 A 
HETATM   28  C   UNL     1     -45.045  55.586 -60.827  1.00  0.00     0.001 A 
HETATM   29  C   UNL     1     -44.050  56.458 -60.380  1.00  0.00     0.014 A 
ENDBRANCH  19  24
ENDBRANCH   2  18
TORSDOF 6
ENDMDL
MODEL 6
REMARK VINA RESULT:      -8.0      3.489      4.993
REMARK  6 active torsions:
REMARK  status: ('A' for Active; 'I' for Inactive)
REMARK    1  A    between atoms: C_2  and  C_3 
REMARK    2  A    between atoms: C_4  and  N_5 
REMARK       I    between atoms: N_5  and  C_6 
REMARK    3  A    between atoms: C_6  and  C_7 
REMARK    4  A    between atoms: C_7  and  N_8 
REMARK       I    between atoms: N_8  and  C_9 
REMARK    5  A    between atoms: C_9  and  C_10 
REMARK    6  A    between atoms: C_11  and  C_12 
ROOT
HETATM    1  N   UNL     1     -43.267  57.331 -51.507  1.00  0.00    -0.348 N 
HETATM    2  C   UNL     1     -43.817  57.795 -52.688  1.00  0.00     0.255 C 
HETATM    3  O   UNL     1     -44.944  57.475 -53.046  1.00  0.00    -0.268 OA
HETATM    4  H   UNL     1     -42.293  57.532 -51.333  1.00  0.00     0.163 HD
ENDROOT
BRANCH   1   5
HETATM    5  C   UNL     1     -43.828  56.143 -50.876  1.00  0.00     0.226 C 
BRANCH   5   6
HETATM    6  C   UNL     1     -43.270  54.784 -51.330  1.00  0.00     0.239 C 
HETATM    7  N   UNL     1     -41.995  54.856 -51.863  1.00  0.00    -0.325 N 
HETATM    8  H   UNL     1     -41.598  55.785 -51.876  1.00  0.00     0.169 HD
HETATM    9  O   UNL     1     -43.995  53.791 -51.298  1.00  0.00    -0.271 OA
BRANCH   7  10
HETATM   10  C   UNL     1     -41.191  53.800 -52.346  1.00  0.00     0.041 A 
HETATM   11  C   UNL     1     -40.151  53.294 -51.533  1.00  0.00    -0.032 A 
HETATM   12  C   UNL     1     -39.365  52.224 -52.011  1.00  0.00     0.009 A 
HETATM   13  C   UNL     1     -39.601  51.659 -53.262  1.00  0.00     0.001 A 
HETATM   14  C   UNL     1     -40.623  52.158 -54.057  1.00  0.00     0.002 A 
HETATM   15  C   UNL     1     -41.409  53.219 -53.602  1.00  0.00     0.030 A 
BRANCH  11  16
HETATM   16  C   UNL     1     -39.801  53.860 -50.174  1.00  0.00     0.036 C 
HETATM   17  C   UNL     1     -40.611  53.229 -49.052  1.00  0.00     0.010 C 
ENDBRANCH  11  16
ENDBRANCH   7  10
ENDBRANCH   5   6
ENDBRANCH   1   5
BRANCH   2  18
HETATM   18  C   UNL     1     -42.966  58.693 -53.447  1.00  0.00     0.080 A 
HETATM   19  C   UNL     1     -42.453  58.541 -54.779  1.00  0.00     0.104 A 
HETATM   20  N   UNL     1     -41.630  59.560 -55.087  1.00  0.00    -0.174 NA
HETATM   21  N   UNL     1     -41.613  60.333 -54.001  1.00  0.00    -0.288 N 
HETATM   22  H   UNL     1     -41.024  61.161 -54.012  1.00  0.00     0.188 HD
HETATM   23  C   UNL     1     -42.409  59.878 -52.995  1.00  0.00     0.128 A 
BRANCH  19  24
HETATM   24  C   UNL     1     -42.730  57.499 -55.774  1.00  0.00    -0.005 A 
HETATM   25  C   UNL     1     -43.316  57.808 -57.008  1.00  0.00     0.014 A 
HETATM   26  C   UNL     1     -43.546  56.811 -57.959  1.00  0.00     0.001 A 
HETATM   27  C   UNL     1     -43.186  55.492 -57.689  1.00  0.00     0.000 A 
HETATM   28  C   UNL     1     -42.596  55.171 -56.468  1.00  0.00     0.001 A 
HETATM   29  C   UNL     1     -42.365  56.169 -55.519  1.00  0.00     0.014 A 
ENDBRANCH  19  24
ENDBRANCH   2  18
TORSDOF 6
ENDMDL
MODEL 7
REMARK VINA RESULT:      -8.0      3.097      5.451
REMARK  6 active torsions:
REMARK  status: ('A' for Active; 'I' for Inactive)
REMARK    1  A    between atoms: C_2  and  C_3 
REMARK    2  A    between atoms: C_4  and  N_5 
REMARK       I    between atoms: N_5  and  C_6 
REMARK    3  A    between atoms: C_6  and  C_7 
REMARK    4  A    between atoms: C_7  and  N_8 
REMARK       I    between atoms: N_8  and  C_9 
REMARK    5  A    between atoms: C_9  and  C_10 
REMARK    6  A    between atoms: C_11  and  C_12 
ROOT
HETATM    1  N   UNL     1     -43.567  55.978 -55.852  1.00  0.00    -0.348 N 
HETATM    2  C   UNL     1     -43.329  57.276 -56.265  1.00  0.00     0.255 C 
HETATM    3  O   UNL     1     -42.517  57.536 -57.144  1.00  0.00    -0.268 OA
HETATM    4  H   UNL     1     -44.155  55.845 -55.041  1.00  0.00     0.163 HD
ENDROOT
BRANCH   1   5
HETATM    5  C   UNL     1     -42.582  54.944 -56.142  1.00  0.00     0.226 C 
BRANCH   5   6
HETATM    6  C   UNL     1     -41.529  54.662 -55.058  1.00  0.00     0.239 C 
HETATM    7  N   UNL     1     -41.953  53.769 -54.089  1.00  0.00    -0.325 N 
HETATM    8  H   UNL     1     -42.889  53.416 -54.226  1.00  0.00     0.169 HD
HETATM    9  O   UNL     1     -40.477  55.299 -55.056  1.00  0.00    -0.271 OA
BRANCH   7  10
HETATM   10  C   UNL     1     -41.230  53.279 -52.978  1.00  0.00     0.041 A 
HETATM   11  C   UNL     1     -40.366  52.173 -53.147  1.00  0.00    -0.032 A 
HETATM   12  C   UNL     1     -39.630  51.701 -52.040  1.00  0.00     0.009 A 
HETATM   13  C   UNL     1     -39.736  52.310 -50.792  1.00  0.00     0.001 A 
HETATM   14  C   UNL     1     -40.585  53.396 -50.630  1.00  0.00     0.002 A 
HETATM   15  C   UNL     1     -41.325  53.875 -51.714  1.00  0.00     0.030 A 
BRANCH  11  16
HETATM   16  C   UNL     1     -40.206  51.430 -54.456  1.00  0.00     0.036 C 
HETATM   17  C   UNL     1     -39.856  49.963 -54.256  1.00  0.00     0.010 C 
ENDBRANCH  11  16
ENDBRANCH   7  10
ENDBRANCH   5   6
ENDBRANCH   1   5
BRANCH   2  18
HETATM   18  C   UNL     1     -44.123  58.287 -55.590  1.00  0.00     0.080 A 
HETATM   19  C   UNL     1     -43.981  58.809 -54.261  1.00  0.00     0.104 A 
HETATM   20  N   UNL     1     -44.972  59.677 -53.986  1.00  0.00    -0.174 NA
HETATM   21  N   UNL     1     -45.721  59.710 -55.089  1.00  0.00    -0.288 N 
HETATM   22  H   UNL     1     -46.550  60.296 -55.087  1.00  0.00     0.188 HD
HETATM   23  C   UNL     1     -45.251  58.917 -56.090  1.00  0.00     0.128 A 
BRANCH  19  24
HETATM   24  C   UNL     1     -42.939  58.550 -53.261  1.00  0.00    -0.005 A 
HETATM   25  C   UNL     1     -41.711  59.221 -53.297  1.00  0.00     0.014 A 
HETATM   26  C   UNL     1     -40.739  58.987 -52.321  1.00  0.00     0.001 A 
HETATM   27  C   UNL     1     -40.988  58.081 -51.292  1.00  0.00     0.000 A 
HETATM   28  C   UNL     1     -42.209  57.410 -51.239  1.00  0.00     0.001 A 
HETATM   29  C   UNL     1     -43.179  57.646 -52.215  1.00  0.00     0.014 A 
ENDBRANCH  19  24
ENDBRANCH   2  18
TORSDOF 6
ENDMDL
MODEL 8
REMARK VINA RESULT:      -7.9      1.879      2.962
REMARK  6 active torsions:
REMARK  status: ('A' for Active; 'I' for Inactive)
REMARK    1  A    between atoms: C_2  and  C_3 
REMARK    2  A    between atoms: C_4  and  N_5 
REMARK       I    between atoms: N_5  and  C_6 
REMARK    3  A    between atoms: C_6  and  C_7 
REMARK    4  A    between atoms: C_7  and  N_8 
REMARK       I    between atoms: N_8  and  C_9 
REMARK    5  A    between atoms: C_9  and  C_10 
REMARK    6  A    between atoms: C_11  and  C_12 
ROOT
HETATM    1  N   UNL     1     -43.306  55.501 -56.991  1.00  0.00    -0.348 N 
HETATM    2  C   UNL     1     -43.287  56.235 -58.163  1.00  0.00     0.255 C 
HETATM    3  O   UNL     1     -42.560  57.211 -58.303  1.00  0.00    -0.268 OA
HETATM    4  H   UNL     1     -44.014  54.787 -56.897  1.00  0.00     0.163 HD
ENDROOT
BRANCH   1   5
HETATM    5  C   UNL     1     -42.790  56.097 -55.766  1.00  0.00     0.226 C 
BRANCH   5   6
HETATM    6  C   UNL     1     -42.709  55.188 -54.529  1.00  0.00     0.239 C 
HETATM    7  N   UNL     1     -41.430  55.052 -54.020  1.00  0.00    -0.325 N 
HETATM    8  H   UNL     1     -40.723  55.572 -54.520  1.00  0.00     0.169 HD
HETATM    9  O   UNL     1     -43.712  54.581 -54.158  1.00  0.00    -0.271 OA
BRANCH   7  10
HETATM   10  C   UNL     1     -41.015  54.317 -52.887  1.00  0.00     0.041 A 
HETATM   11  C   UNL     1     -40.473  53.024 -53.061  1.00  0.00    -0.032 A 
HETATM   12  C   UNL     1     -40.040  52.303 -51.928  1.00  0.00     0.009 A 
HETATM   13  C   UNL     1     -40.133  52.846 -50.649  1.00  0.00     0.001 A 
HETATM   14  C   UNL     1     -40.666  54.116 -50.482  1.00  0.00     0.002 A 
HETATM   15  C   UNL     1     -41.103  54.844 -51.591  1.00  0.00     0.030 A 
BRANCH  11  16
HETATM   16  C   UNL     1     -40.357  52.340 -54.406  1.00  0.00     0.036 C 
HETATM   17  C   UNL     1     -40.014  50.863 -54.283  1.00  0.00     0.010 C 
ENDBRANCH  11  16
ENDBRANCH   7  10
ENDBRANCH   5   6
ENDBRANCH   1   5
BRANCH   2  18
HETATM   18  C   UNL     1     -44.175  55.749 -59.203  1.00  0.00     0.080 A 
HETATM   19  C   UNL     1     -45.373  56.347 -59.721  1.00  0.00     0.104 A 
HETATM   20  N   UNL     1     -45.953  55.536 -60.625  1.00  0.00    -0.174 NA
HETATM   21  N   UNL     1     -45.164  54.462 -60.685  1.00  0.00    -0.288 N 
HETATM   22  H   UNL     1     -45.436  53.702 -61.301  1.00  0.00     0.188 HD
HETATM   23  C   UNL     1     -44.074  54.541 -59.874  1.00  0.00     0.128 A 
BRANCH  19  24
HETATM   24  C   UNL     1     -45.970  57.653 -59.423  1.00  0.00    -0.005 A 
HETATM   25  C   UNL     1     -45.699  58.775 -60.215  1.00  0.00     0.014 A 
HETATM   26  C   UNL     1     -46.298  60.007 -59.938  1.00  0.00     0.001 A 
HETATM   27  C   UNL     1     -47.181  60.129 -58.868  1.00  0.00     0.000 A 
HETATM   28  C   UNL     1     -47.467  59.019 -58.075  1.00  0.00     0.001 A 
HETATM   29  C   UNL     1     -46.868  57.788 -58.353  1.00  0.00     0.014 A 
ENDBRANCH  19  24
ENDBRANCH   2  18
TORSDOF 6
ENDMDL
MODEL 9
REMARK VINA RESULT:      -7.9      4.654      6.410
REMARK  6 active torsions:
REMARK  status: ('A' for Active; 'I' for Inactive)
REMARK    1  A    between atoms: C_2  and  C_3 
REMARK    2  A    between atoms: C_4  and  N_5 
REMARK       I    between atoms: N_5  and  C_6 
REMARK    3  A    between atoms: C_6  and  C_7 
REMARK    4  A    between atoms: C_7  and  N_8 
REMARK       I    between atoms: N_8  and  C_9 
REMARK    5  A    between atoms: C_9  and  C_10 
REMARK    6  A    between atoms: C_11  and  C_12 
ROOT
HETATM    1  N   UNL     1     -41.951  57.137 -50.637  1.00  0.00    -0.348 N 
HETATM    2  C   UNL     1     -41.251  58.311 -50.845  1.00  0.00     0.255 C 
HETATM    3  O   UNL     1     -40.033  58.368 -50.721  1.00  0.00    -0.268 OA
HETATM    4  H   UNL     1     -42.960  57.188 -50.633  1.00  0.00     0.163 HD
ENDROOT
BRANCH   1   5
HETATM    5  C   UNL     1     -41.332  56.062 -49.872  1.00  0.00     0.226 C 
BRANCH   5   6
HETATM    6  C   UNL     1     -41.442  54.642 -50.452  1.00  0.00     0.239 C 
HETATM    7  N   UNL     1     -40.496  54.361 -51.420  1.00  0.00    -0.325 N 
HETATM    8  H   UNL     1     -39.855  55.118 -51.612  1.00  0.00     0.169 HD
HETATM    9  O   UNL     1     -42.384  53.924 -50.119  1.00  0.00    -0.271 OA
BRANCH   7  10
HETATM   10  C   UNL     1     -40.304  53.154 -52.129  1.00  0.00     0.041 A 
HETATM   11  C   UNL     1     -40.679  53.082 -53.490  1.00  0.00    -0.032 A 
HETATM   12  C   UNL     1     -40.465  51.881 -54.199  1.00  0.00     0.009 A 
HETATM   13  C   UNL     1     -39.888  50.774 -53.582  1.00  0.00     0.001 A 
HETATM   14  C   UNL     1     -39.521  50.847 -52.246  1.00  0.00     0.002 A 
HETATM   15  C   UNL     1     -39.728  52.027 -51.527  1.00  0.00     0.030 A 
BRANCH  11  16
HETATM   16  C   UNL     1     -41.337  54.222 -54.236  1.00  0.00     0.036 C 
HETATM   17  C   UNL     1     -40.326  55.168 -54.869  1.00  0.00     0.010 C 
ENDBRANCH  11  16
ENDBRANCH   7  10
ENDBRANCH   5   6
ENDBRANCH   1   5
BRANCH   2  18
HETATM   18  C   UNL     1     -42.066  59.448 -51.232  1.00  0.00     0.080 A 
HETATM   19  C   UNL     1     -42.815  59.653 -52.439  1.00  0.00     0.104 A 
HETATM   20  N   UNL     1     -43.370  60.879 -52.448  1.00  0.00    -0.174 NA
HETATM   21  N   UNL     1     -42.993  61.439 -51.297  1.00  0.00    -0.288 N 
HETATM   22  H   UNL     1     -43.289  62.392 -51.110  1.00  0.00     0.188 HD
HETATM   23  C   UNL     1     -42.230  60.624 -50.519  1.00  0.00     0.128 A 
BRANCH  19  24
HETATM   24  C   UNL     1     -43.051  58.737 -53.560  1.00  0.00    -0.005 A 
HETATM   25  C   UNL     1     -44.115  57.826 -53.544  1.00  0.00     0.014 A 
HETATM   26  C   UNL     1     -44.348  56.980 -54.631  1.00  0.00     0.001 A 
HETATM   27  C   UNL     1     -43.522  57.040 -55.751  1.00  0.00     0.000 A 
HETATM   28  C   UNL     1     -42.463  57.946 -55.785  1.00  0.00     0.001 A 
HETATM   29  C   UNL     1     -42.232  58.792 -54.698  1.00  0.00     0.014 A 
ENDBRANCH  19  24
ENDBRANCH   2  18
TORSDOF 6
ENDMDL
MODEL 10
REMARK VINA RESULT:      -7.9      2.431      9.040
REMARK  6 active torsions:
REMARK  status: ('A' for Active; 'I' for Inactive)
REMARK    1  A    between atoms: C_2  and  C_3 
REMARK    2  A    between atoms: C_4  and  N_5 
REMARK       I    between atoms: N_5  and  C_6 
REMARK    3  A    between atoms: C_6  and  C_7 
REMARK    4  A    between atoms: C_7  and  N_8 
REMARK       I    between atoms: N_8  and  C_9 
REMARK    5  A    between atoms: C_9  and  C_10 
REMARK    6  A    between atoms: C_11  and  C_12 
ROOT
HETATM    1  N   UNL     1     -42.738  56.324 -54.929  1.00  0.00    -0.348 N 
HETATM    2  C   UNL     1     -42.049  56.444 -53.736  1.00  0.00     0.255 C 
HETATM    3  O   UNL     1     -41.013  57.093 -53.650  1.00  0.00    -0.268 OA
HETATM    4  H   UNL     1     -43.512  55.676 -54.959  1.00  0.00     0.163 HD
ENDROOT
BRANCH   1   5
HETATM    5  C   UNL     1     -42.051  56.605 -56.182  1.00  0.00     0.226 C 
BRANCH   5   6
HETATM    6  C   UNL     1     -42.852  57.348 -57.264  1.00  0.00     0.239 C 
HETATM    7  N   UNL     1     -44.134  56.860 -57.441  1.00  0.00    -0.325 N 
HETATM    8  H   UNL     1     -44.377  56.091 -56.833  1.00  0.00     0.169 HD
HETATM    9  O   UNL     1     -42.295  58.206 -57.946  1.00  0.00    -0.271 OA
BRANCH   7  10
HETATM   10  C   UNL     1     -45.131  57.328 -58.326  1.00  0.00     0.041 A 
HETATM   11  C   UNL     1     -45.248  56.744 -59.608  1.00  0.00    -0.032 A 
HETATM   12  C   UNL     1     -46.259  57.199 -60.480  1.00  0.00     0.009 A 
HETATM   13  C   UNL     1     -47.142  58.206 -60.097  1.00  0.00     0.001 A 
HETATM   14  C   UNL     1     -47.025  58.777 -58.837  1.00  0.00     0.002 A 
HETATM   15  C   UNL     1     -46.027  58.342 -57.962  1.00  0.00     0.030 A 
BRANCH  11  16
HETATM   16  C   UNL     1     -44.319  55.666 -60.123  1.00  0.00     0.036 C 
HETATM   17  C   UNL     1     -44.860  54.264 -59.883  1.00  0.00     0.010 C 
ENDBRANCH  11  16
ENDBRANCH   7  10
ENDBRANCH   5   6
ENDBRANCH   1   5
BRANCH   2  18
HETATM   18  C   UNL     1     -42.655  55.760 -52.608  1.00  0.00     0.080 A 
HETATM   19  C   UNL     1     -42.405  54.436 -52.114  1.00  0.00     0.104 A 
HETATM   20  N   UNL     1     -43.237  54.147 -51.096  1.00  0.00    -0.174 NA
HETATM   21  N   UNL     1     -43.990  55.237 -50.943  1.00  0.00    -0.288 N 
HETATM   22  H   UNL     1     -44.713  55.222 -50.230  1.00  0.00     0.188 HD
HETATM   23  C   UNL     1     -43.674  56.242 -51.803  1.00  0.00     0.128 A 
BRANCH  19  24
HETATM   24  C   UNL     1     -41.403  53.453 -52.539  1.00  0.00    -0.005 A 
HETATM   25  C   UNL     1     -40.477  52.919 -51.634  1.00  0.00     0.014 A 
HETATM   26  C   UNL     1     -39.547  51.960 -52.045  1.00  0.00     0.001 A 
HETATM   27  C   UNL     1     -39.536  51.520 -53.367  1.00  0.00     0.000 A 
HETATM   28  C   UNL     1     -40.455  52.037 -54.277  1.00  0.00     0.001 A 
HETATM   29  C   UNL     1     -41.386  52.994 -53.865  1.00  0.00     0.014 A 
ENDBRANCH  19  24
ENDBRANCH   2  18
TORSDOF 6
ENDMDL
