MODEL 1
REMARK VINA RESULT:      -9.1      0.000      0.000
REMARK  6 active torsions:
REMARK  status: ('A' for Active; 'I' for Inactive)
REMARK    1  A    between atoms: O_2  and  C_3 
REMARK    2  A    between atoms: C_5  and  O_6 
REMARK    3  A    between atoms: C_8  and  N_9 
REMARK       I    between atoms: N_9  and  C_10 
REMARK    4  A    between atoms: C_10  and  C_11 
REMARK    5  A    between atoms: C_11  and  N_12 
REMARK    6  A    between atoms: C_17  and  C_18 
ROOT
HETATM    1  N   UNL     1     -43.257  56.383 -52.785  1.00  0.00    -0.326 N 
HETATM    2  C   UNL     1     -43.845  57.482 -52.166  1.00  0.00     0.255 C 
HETATM    3  O   UNL     1     -45.023  57.780 -52.141  1.00  0.00    -0.267 OA
HETATM    4  C   UNL     1     -42.765  58.302 -51.604  1.00  0.00     0.040 A 
HETATM    5  C   UNL     1     -41.548  57.721 -51.958  1.00  0.00    -0.015 A 
HETATM    6  C   UNL     1     -41.807  56.515 -52.805  1.00  0.00     0.158 C 
HETATM    7  C   UNL     1     -42.850  59.497 -50.914  1.00  0.00     0.017 A 
HETATM    8  C   UNL     1     -41.653  60.120 -50.557  1.00  0.00     0.001 A 
HETATM    9  C   UNL     1     -40.415  59.541 -50.897  1.00  0.00     0.001 A 
HETATM   10  C   UNL     1     -40.356  58.337 -51.607  1.00  0.00     0.011 A 
ENDROOT
BRANCH   1  11
HETATM   11  C   UNL     1     -43.940  55.735 -53.892  1.00  0.00     0.230 C 
BRANCH  11  12
HETATM   12  C   UNL     1     -44.032  56.503 -55.213  1.00  0.00     0.240 C 
HETATM   13  N   UNL     1     -43.088  56.145 -56.158  1.00  0.00    -0.323 N 
HETATM   14  H   UNL     1     -42.492  55.351 -55.938  1.00  0.00     0.169 HD
HETATM   15  O   UNL     1     -44.777  57.481 -55.277  1.00  0.00    -0.271 OA
BRANCH  13  16
HETATM   16  C   UNL     1     -42.778  56.827 -57.362  1.00  0.00     0.068 A 
HETATM   17  C   UNL     1     -43.057  56.187 -58.589  1.00  0.00     0.097 A 
HETATM   18  C   UNL     1     -42.680  56.792 -59.801  1.00  0.00     0.075 A 
HETATM   19  C   UNL     1     -42.057  58.041 -59.805  1.00  0.00     0.070 A 
HETATM   20  C   UNL     1     -41.839  58.697 -58.598  1.00  0.00     0.039 A 
HETATM   21  C   UNL     1     -42.189  58.094 -57.387  1.00  0.00     0.035 A 
BRANCH  17  22
HETATM   22  O   UNL     1     -43.677  54.960 -58.503  1.00  0.00    -0.354 OA
HETATM   23  C   UNL     1     -44.412  54.538 -59.647  1.00  0.00     0.210 C 
ENDBRANCH  17  22
BRANCH  19  24
HETATM   24  O   UNL     1     -41.636  58.727 -60.911  1.00  0.00    -0.356 OA
HETATM   25  C   UNL     1     -42.109  60.059 -61.061  1.00  0.00     0.210 C 
ENDBRANCH  19  24
ENDBRANCH  13  16
ENDBRANCH  11  12
ENDBRANCH   1  11
BRANCH   6  26
HETATM   26  C   UNL     1     -41.180  55.326 -52.161  1.00  0.00    -0.003 A 
HETATM   27  C   UNL     1     -40.720  54.152 -52.847  1.00  0.00     0.001 A 
HETATM   28  C   UNL     1     -40.278  53.245 -51.884  1.00  0.00     0.043 A 
HETATM   29  C   UNL     1     -40.657  53.768 -54.204  1.00  0.00     0.014 A 
HETATM   30  C   UNL     1     -39.792  51.972 -52.204  1.00  0.00     0.030 A 
HETATM   31  N   UNL     1     -40.432  53.848 -50.660  1.00  0.00    -0.365 N 
HETATM   32  C   UNL     1     -39.747  51.617 -53.554  1.00  0.00     0.002 A 
HETATM   33  C   UNL     1     -40.168  52.502 -54.543  1.00  0.00     0.001 A 
HETATM   34  H   UNL     1     -40.197  53.418 -49.777  1.00  0.00     0.165 HD
HETATM   35  C   UNL     1     -40.971  55.095 -50.810  1.00  0.00     0.099 A 
ENDBRANCH   6  26
TORSDOF 6
ENDMDL
MODEL 2
REMARK VINA RESULT:      -9.0      1.571      4.329
REMARK  6 active torsions:
REMARK  status: ('A' for Active; 'I' for Inactive)
REMARK    1  A    between atoms: O_2  and  C_3 
REMARK    2  A    between atoms: C_5  and  O_6 
REMARK    3  A    between atoms: C_8  and  N_9 
REMARK       I    between atoms: N_9  and  C_10 
REMARK    4  A    between atoms: C_10  and  C_11 
REMARK    5  A    between atoms: C_11  and  N_12 
REMARK    6  A    between atoms: C_17  and  C_18 
ROOT
HETATM    1  N   UNL     1     -42.613  54.886 -53.708  1.00  0.00    -0.326 N 
HETATM    2  C   UNL     1     -41.831  54.179 -54.616  1.00  0.00     0.255 C 
HETATM    3  O   UNL     1     -41.891  54.206 -55.830  1.00  0.00    -0.267 OA
HETATM    4  C   UNL     1     -40.948  53.295 -53.844  1.00  0.00     0.040 A 
HETATM    5  C   UNL     1     -41.267  53.433 -52.495  1.00  0.00    -0.015 A 
HETATM    6  C   UNL     1     -42.407  54.392 -52.354  1.00  0.00     0.158 C 
HETATM    7  C   UNL     1     -40.008  52.391 -54.302  1.00  0.00     0.017 A 
HETATM    8  C   UNL     1     -39.355  51.605 -53.351  1.00  0.00     0.001 A 
HETATM    9  C   UNL     1     -39.657  51.740 -51.982  1.00  0.00     0.001 A 
HETATM   10  C   UNL     1     -40.622  52.654 -51.545  1.00  0.00     0.011 A 
ENDROOT
BRANCH   1  11
HETATM   11  C   UNL     1     -43.924  55.364 -54.112  1.00  0.00     0.230 C 
BRANCH  11  12
HETATM   12  C   UNL     1     -43.986  56.677 -54.898  1.00  0.00     0.240 C 
HETATM   13  N   UNL     1     -43.170  56.723 -56.013  1.00  0.00    -0.323 N 
HETATM   14  H   UNL     1     -42.687  55.865 -56.268  1.00  0.00     0.169 HD
HETATM   15  O   UNL     1     -44.579  57.635 -54.401  1.00  0.00    -0.271 OA
BRANCH  13  16
HETATM   16  C   UNL     1     -42.841  57.864 -56.788  1.00  0.00     0.068 A 
HETATM   17  C   UNL     1     -43.075  57.822 -58.180  1.00  0.00     0.097 A 
HETATM   18  C   UNL     1     -42.677  58.897 -58.994  1.00  0.00     0.075 A 
HETATM   19  C   UNL     1     -42.078  60.026 -58.433  1.00  0.00     0.070 A 
HETATM   20  C   UNL     1     -41.904  60.090 -57.054  1.00  0.00     0.039 A 
HETATM   21  C   UNL     1     -42.275  59.018 -56.239  1.00  0.00     0.035 A 
BRANCH  17  22
HETATM   22  O   UNL     1     -43.674  56.678 -58.658  1.00  0.00    -0.354 OA
HETATM   23  C   UNL     1     -42.916  55.899 -59.578  1.00  0.00     0.210 C 
ENDBRANCH  17  22
BRANCH  19  24
HETATM   24  O   UNL     1     -41.639  61.128 -59.114  1.00  0.00    -0.356 OA
HETATM   25  C   UNL     1     -40.761  62.006 -58.422  1.00  0.00     0.210 C 
ENDBRANCH  19  24
ENDBRANCH  13  16
ENDBRANCH  11  12
ENDBRANCH   1  11
BRANCH   6  26
HETATM   26  C   UNL     1     -41.992  55.512 -51.462  1.00  0.00    -0.003 A 
HETATM   27  C   UNL     1     -41.321  56.709 -51.885  1.00  0.00     0.001 A 
HETATM   28  C   UNL     1     -41.037  57.459 -50.744  1.00  0.00     0.043 A 
HETATM   29  C   UNL     1     -40.910  57.216 -53.136  1.00  0.00     0.014 A 
HETATM   30  C   UNL     1     -40.353  58.679 -50.787  1.00  0.00     0.030 A 
HETATM   31  N   UNL     1     -41.539  56.767 -49.669  1.00  0.00    -0.365 N 
HETATM   32  C   UNL     1     -39.952  59.154 -52.039  1.00  0.00     0.002 A 
HETATM   33  C   UNL     1     -40.230  58.437 -53.199  1.00  0.00     0.001 A 
HETATM   34  H   UNL     1     -41.471  57.074 -48.709  1.00  0.00     0.165 HD
HETATM   35  C   UNL     1     -42.113  55.599 -50.084  1.00  0.00     0.099 A 
ENDBRANCH   6  26
TORSDOF 6
ENDMDL
MODEL 3
REMARK VINA RESULT:      -8.9      1.224      2.112
REMARK  6 active torsions:
REMARK  status: ('A' for Active; 'I' for Inactive)
REMARK    1  A    between atoms: O_2  and  C_3 
REMARK    2  A    between atoms: C_5  and  O_6 
REMARK    3  A    between atoms: C_8  and  N_9 
REMARK       I    between atoms: N_9  and  C_10 
REMARK    4  A    between atoms: C_10  and  C_11 
REMARK    5  A    between atoms: C_11  and  N_12 
REMARK    6  A    between atoms: C_17  and  C_18 
ROOT
HETATM    1  N   UNL     1     -43.168  56.638 -52.718  1.00  0.00    -0.326 N 
HETATM    2  C   UNL     1     -43.741  57.737 -52.085  1.00  0.00     0.255 C 
HETATM    3  O   UNL     1     -44.909  58.075 -52.091  1.00  0.00    -0.267 OA
HETATM    4  C   UNL     1     -42.655  58.501 -51.458  1.00  0.00     0.040 A 
HETATM    5  C   UNL     1     -41.447  57.890 -51.788  1.00  0.00    -0.015 A 
HETATM    6  C   UNL     1     -41.715  56.721 -52.682  1.00  0.00     0.158 C 
HETATM    7  C   UNL     1     -42.726  59.676 -50.732  1.00  0.00     0.017 A 
HETATM    8  C   UNL     1     -41.522  60.246 -50.314  1.00  0.00     0.001 A 
HETATM    9  C   UNL     1     -40.293  59.636 -50.629  1.00  0.00     0.001 A 
HETATM   10  C   UNL     1     -40.248  58.453 -51.375  1.00  0.00     0.011 A 
ENDROOT
BRANCH   1  11
HETATM   11  C   UNL     1     -43.831  56.049 -53.869  1.00  0.00     0.230 C 
BRANCH  11  12
HETATM   12  C   UNL     1     -43.927  56.896 -55.140  1.00  0.00     0.240 C 
HETATM   13  N   UNL     1     -42.733  57.060 -55.818  1.00  0.00    -0.323 N 
HETATM   14  H   UNL     1     -41.933  56.532 -55.479  1.00  0.00     0.169 HD
HETATM   15  O   UNL     1     -44.969  57.514 -55.361  1.00  0.00    -0.271 OA
BRANCH  13  16
HETATM   16  C   UNL     1     -42.463  57.967 -56.874  1.00  0.00     0.068 A 
HETATM   17  C   UNL     1     -41.964  59.247 -56.551  1.00  0.00     0.097 A 
HETATM   18  C   UNL     1     -41.771  60.204 -57.563  1.00  0.00     0.075 A 
HETATM   19  C   UNL     1     -42.041  59.890 -58.896  1.00  0.00     0.070 A 
HETATM   20  C   UNL     1     -42.475  58.608 -59.218  1.00  0.00     0.039 A 
HETATM   21  C   UNL     1     -42.690  57.657 -58.218  1.00  0.00     0.035 A 
BRANCH  17  22
HETATM   22  O   UNL     1     -41.717  59.480 -55.216  1.00  0.00    -0.354 OA
HETATM   23  C   UNL     1     -42.507  60.485 -54.590  1.00  0.00     0.210 C 
ENDBRANCH  17  22
BRANCH  19  24
HETATM   24  O   UNL     1     -41.905  60.731 -59.965  1.00  0.00    -0.356 OA
HETATM   25  C   UNL     1     -42.017  60.152 -61.259  1.00  0.00     0.210 C 
ENDBRANCH  19  24
ENDBRANCH  13  16
ENDBRANCH  11  12
ENDBRANCH   1  11
BRANCH   6  26
HETATM   26  C   UNL     1     -41.151  55.492 -52.056  1.00  0.00    -0.003 A 
HETATM   27  C   UNL     1     -40.703  54.325 -52.764  1.00  0.00     0.001 A 
HETATM   28  C   UNL     1     -40.328  53.374 -51.816  1.00  0.00     0.043 A 
HETATM   29  C   UNL     1     -40.601  53.984 -54.130  1.00  0.00     0.014 A 
HETATM   30  C   UNL     1     -39.870  52.097 -52.160  1.00  0.00     0.030 A 
HETATM   31  N   UNL     1     -40.508  53.942 -50.579  1.00  0.00    -0.365 N 
HETATM   32  C   UNL     1     -39.785  51.784 -53.519  1.00  0.00     0.002 A 
HETATM   33  C   UNL     1     -40.139  52.714 -54.492  1.00  0.00     0.001 A 
HETATM   34  H   UNL     1     -40.321  53.475 -49.702  1.00  0.00     0.165 HD
HETATM   35  C   UNL     1     -41.001  55.210 -50.707  1.00  0.00     0.099 A 
ENDBRANCH   6  26
TORSDOF 6
ENDMDL
MODEL 4
REMARK VINA RESULT:      -8.9      1.400      4.555
REMARK  6 active torsions:
REMARK  status: ('A' for Active; 'I' for Inactive)
REMARK    1  A    between atoms: O_2  and  C_3 
REMARK    2  A    between atoms: C_5  and  O_6 
REMARK    3  A    between atoms: C_8  and  N_9 
REMARK       I    between atoms: N_9  and  C_10 
REMARK    4  A    between atoms: C_10  and  C_11 
REMARK    5  A    between atoms: C_11  and  N_12 
REMARK    6  A    between atoms: C_17  and  C_18 
ROOT
HETATM    1  N   UNL     1     -42.725  55.045 -53.478  1.00  0.00    -0.326 N 
HETATM    2  C   UNL     1     -41.830  54.033 -53.810  1.00  0.00     0.255 C 
HETATM    3  O   UNL     1     -41.672  53.504 -54.893  1.00  0.00    -0.267 OA
HETATM    4  C   UNL     1     -41.145  53.628 -52.576  1.00  0.00     0.040 A 
HETATM    5  C   UNL     1     -41.691  54.351 -51.517  1.00  0.00    -0.015 A 
HETATM    6  C   UNL     1     -42.789  55.227 -52.035  1.00  0.00     0.158 C 
HETATM    7  C   UNL     1     -40.184  52.650 -52.397  1.00  0.00     0.017 A 
HETATM    8  C   UNL     1     -39.752  52.405 -51.092  1.00  0.00     0.001 A 
HETATM    9  C   UNL     1     -40.286  53.134 -50.013  1.00  0.00     0.001 A 
HETATM   10  C   UNL     1     -41.266  54.111 -50.219  1.00  0.00     0.011 A 
ENDROOT
BRANCH   1  11
HETATM   11  C   UNL     1     -43.918  55.239 -54.285  1.00  0.00     0.230 C 
BRANCH  11  12
HETATM   12  C   UNL     1     -43.858  56.293 -55.393  1.00  0.00     0.240 C 
HETATM   13  N   UNL     1     -43.358  55.836 -56.600  1.00  0.00    -0.323 N 
HETATM   14  H   UNL     1     -43.174  54.839 -56.676  1.00  0.00     0.169 HD
HETATM   15  O   UNL     1     -44.060  57.472 -55.100  1.00  0.00    -0.271 OA
BRANCH  13  16
HETATM   16  C   UNL     1     -42.968  56.617 -57.717  1.00  0.00     0.068 A 
HETATM   17  C   UNL     1     -43.242  56.123 -59.011  1.00  0.00     0.097 A 
HETATM   18  C   UNL     1     -42.790  56.824 -60.143  1.00  0.00     0.075 A 
HETATM   19  C   UNL     1     -42.096  58.027 -60.001  1.00  0.00     0.070 A 
HETATM   20  C   UNL     1     -41.882  58.541 -58.727  1.00  0.00     0.039 A 
HETATM   21  C   UNL     1     -42.307  57.842 -57.595  1.00  0.00     0.035 A 
BRANCH  17  22
HETATM   22  O   UNL     1     -43.935  54.934 -59.070  1.00  0.00    -0.354 OA
HETATM   23  C   UNL     1     -44.977  54.852 -60.037  1.00  0.00     0.210 C 
ENDBRANCH  17  22
BRANCH  19  24
HETATM   24  O   UNL     1     -41.598  58.794 -61.018  1.00  0.00    -0.356 OA
HETATM   25  C   UNL     1     -42.064  60.135 -61.100  1.00  0.00     0.210 C 
ENDBRANCH  19  24
ENDBRANCH  13  16
ENDBRANCH  11  12
ENDBRANCH   1  11
BRANCH   6  26
HETATM   26  C   UNL     1     -42.484  56.643 -51.687  1.00  0.00    -0.003 A 
HETATM   27  C   UNL     1     -43.456  57.654 -51.377  1.00  0.00     0.001 A 
HETATM   28  C   UNL     1     -42.772  58.855 -51.191  1.00  0.00     0.043 A 
HETATM   29  C   UNL     1     -44.862  57.661 -51.259  1.00  0.00     0.014 A 
HETATM   30  C   UNL     1     -43.420  60.063 -50.907  1.00  0.00     0.030 A 
HETATM   31  N   UNL     1     -41.434  58.588 -51.349  1.00  0.00    -0.365 N 
HETATM   32  C   UNL     1     -44.813  60.041 -50.801  1.00  0.00     0.002 A 
HETATM   33  C   UNL     1     -45.526  58.858 -50.968  1.00  0.00     0.001 A 
HETATM   34  H   UNL     1     -40.700  59.278 -51.275  1.00  0.00     0.165 HD
HETATM   35  C   UNL     1     -41.246  57.267 -51.646  1.00  0.00     0.099 A 
ENDBRANCH   6  26
TORSDOF 6
ENDMDL
MODEL 5
REMARK VINA RESULT:      -8.8      2.291      7.397
REMARK  6 active torsions:
REMARK  status: ('A' for Active; 'I' for Inactive)
REMARK    1  A    between atoms: O_2  and  C_3 
REMARK    2  A    between atoms: C_5  and  O_6 
REMARK    3  A    between atoms: C_8  and  N_9 
REMARK       I    between atoms: N_9  and  C_10 
REMARK    4  A    between atoms: C_10  and  C_11 
REMARK    5  A    between atoms: C_11  and  N_12 
REMARK    6  A    between atoms: C_17  and  C_18 
ROOT
HETATM    1  N   UNL     1     -43.129  56.195 -57.126  1.00  0.00    -0.326 N 
HETATM    2  C   UNL     1     -43.427  56.295 -58.482  1.00  0.00     0.255 C 
HETATM    3  O   UNL     1     -43.878  55.433 -59.211  1.00  0.00    -0.267 OA
HETATM    4  C   UNL     1     -43.009  57.630 -58.928  1.00  0.00     0.040 A 
HETATM    5  C   UNL     1     -42.404  58.278 -57.854  1.00  0.00    -0.015 A 
HETATM    6  C   UNL     1     -42.374  57.356 -56.676  1.00  0.00     0.158 C 
HETATM    7  C   UNL     1     -43.084  58.187 -60.192  1.00  0.00     0.017 A 
HETATM    8  C   UNL     1     -42.534  59.458 -60.368  1.00  0.00     0.001 A 
HETATM    9  C   UNL     1     -41.928  60.131 -59.290  1.00  0.00     0.001 A 
HETATM   10  C   UNL     1     -41.854  59.541 -58.024  1.00  0.00     0.011 A 
ENDROOT
BRANCH   1  11
HETATM   11  C   UNL     1     -42.865  54.890 -56.545  1.00  0.00     0.230 C 
BRANCH  11  12
HETATM   12  C   UNL     1     -42.765  54.802 -55.020  1.00  0.00     0.240 C 
HETATM   13  N   UNL     1     -41.477  54.689 -54.530  1.00  0.00    -0.323 N 
HETATM   14  H   UNL     1     -40.718  54.773 -55.201  1.00  0.00     0.169 HD
HETATM   15  O   UNL     1     -43.798  54.646 -54.368  1.00  0.00    -0.271 OA
BRANCH  13  16
HETATM   16  C   UNL     1     -41.088  54.358 -53.207  1.00  0.00     0.068 A 
HETATM   17  C   UNL     1     -40.479  53.106 -52.978  1.00  0.00     0.097 A 
HETATM   18  C   UNL     1     -40.164  52.705 -51.668  1.00  0.00     0.075 A 
HETATM   19  C   UNL     1     -40.419  53.551 -50.587  1.00  0.00     0.070 A 
HETATM   20  C   UNL     1     -40.963  54.810 -50.823  1.00  0.00     0.039 A 
HETATM   21  C   UNL     1     -41.301  55.208 -52.118  1.00  0.00     0.035 A 
BRANCH  17  22
HETATM   22  O   UNL     1     -40.255  52.329 -54.093  1.00  0.00    -0.354 OA
HETATM   23  C   UNL     1     -39.820  50.994 -53.861  1.00  0.00     0.210 C 
ENDBRANCH  17  22
BRANCH  19  24
HETATM   24  O   UNL     1     -40.169  53.275 -49.271  1.00  0.00    -0.356 OA
HETATM   25  C   UNL     1     -40.553  54.261 -48.322  1.00  0.00     0.210 C 
ENDBRANCH  19  24
ENDBRANCH  13  16
ENDBRANCH  11  12
ENDBRANCH   1  11
BRANCH   6  26
HETATM   26  C   UNL     1     -43.075  58.006 -55.533  1.00  0.00    -0.003 A 
HETATM   27  C   UNL     1     -42.451  58.464 -54.323  1.00  0.00     0.001 A 
HETATM   28  C   UNL     1     -43.458  58.932 -53.480  1.00  0.00     0.043 A 
HETATM   29  C   UNL     1     -41.119  58.503 -53.859  1.00  0.00     0.014 A 
HETATM   30  C   UNL     1     -43.205  59.424 -52.194  1.00  0.00     0.030 A 
HETATM   31  N   UNL     1     -44.647  58.797 -54.154  1.00  0.00    -0.365 N 
HETATM   32  C   UNL     1     -41.878  59.445 -51.758  1.00  0.00     0.002 A 
HETATM   33  C   UNL     1     -40.847  58.997 -52.579  1.00  0.00     0.001 A 
HETATM   34  H   UNL     1     -45.549  59.053 -53.779  1.00  0.00     0.165 HD
HETATM   35  C   UNL     1     -44.433  58.244 -55.385  1.00  0.00     0.099 A 
ENDBRANCH   6  26
TORSDOF 6
ENDMDL
MODEL 6
REMARK VINA RESULT:      -8.5      2.650      7.718
REMARK  6 active torsions:
REMARK  status: ('A' for Active; 'I' for Inactive)
REMARK    1  A    between atoms: O_2  and  C_3 
REMARK    2  A    between atoms: C_5  and  O_6 
REMARK    3  A    between atoms: C_8  and  N_9 
REMARK       I    between atoms: N_9  and  C_10 
REMARK    4  A    between atoms: C_10  and  C_11 
REMARK    5  A    between atoms: C_11  and  N_12 
REMARK    6  A    between atoms: C_17  and  C_18 
ROOT
HETATM    1  N   UNL     1     -43.287  58.825 -56.324  1.00  0.00    -0.326 N 
HETATM    2  C   UNL     1     -42.159  59.638 -56.304  1.00  0.00     0.255 C 
HETATM    3  O   UNL     1     -41.389  59.821 -55.381  1.00  0.00    -0.267 OA
HETATM    4  C   UNL     1     -42.093  60.335 -57.595  1.00  0.00     0.040 A 
HETATM    5  C   UNL     1     -43.221  59.984 -58.336  1.00  0.00    -0.015 A 
HETATM    6  C   UNL     1     -44.081  59.070 -57.520  1.00  0.00     0.158 C 
HETATM    7  C   UNL     1     -41.165  61.258 -58.038  1.00  0.00     0.017 A 
HETATM    8  C   UNL     1     -41.382  61.839 -59.289  1.00  0.00     0.001 A 
HETATM    9  C   UNL     1     -42.510  61.487 -60.055  1.00  0.00     0.001 A 
HETATM   10  C   UNL     1     -43.442  60.559 -59.579  1.00  0.00     0.011 A 
ENDROOT
BRANCH   1  11
HETATM   11  C   UNL     1     -43.948  58.485 -55.075  1.00  0.00     0.230 C 
BRANCH  11  12
HETATM   12  C   UNL     1     -43.641  57.116 -54.463  1.00  0.00     0.240 C 
HETATM   13  N   UNL     1     -42.294  56.830 -54.331  1.00  0.00    -0.323 N 
HETATM   14  H   UNL     1     -41.639  57.576 -54.553  1.00  0.00     0.169 HD
HETATM   15  O   UNL     1     -44.563  56.314 -54.317  1.00  0.00    -0.271 OA
BRANCH  13  16
HETATM   16  C   UNL     1     -41.710  55.575 -54.025  1.00  0.00     0.068 A 
HETATM   17  C   UNL     1     -41.588  55.203 -52.668  1.00  0.00     0.097 A 
HETATM   18  C   UNL     1     -40.932  54.009 -52.321  1.00  0.00     0.075 A 
HETATM   19  C   UNL     1     -40.425  53.166 -53.312  1.00  0.00     0.070 A 
HETATM   20  C   UNL     1     -40.601  53.505 -54.649  1.00  0.00     0.039 A 
HETATM   21  C   UNL     1     -41.231  54.700 -55.004  1.00  0.00     0.035 A 
BRANCH  17  22
HETATM   22  O   UNL     1     -42.116  56.084 -51.750  1.00  0.00    -0.354 OA
HETATM   23  C   UNL     1     -43.105  55.564 -50.868  1.00  0.00     0.210 C 
ENDBRANCH  17  22
BRANCH  19  24
HETATM   24  O   UNL     1     -39.762  51.988 -53.105  1.00  0.00    -0.356 OA
HETATM   25  C   UNL     1     -39.962  50.959 -54.065  1.00  0.00     0.210 C 
ENDBRANCH  19  24
ENDBRANCH  13  16
ENDBRANCH  11  12
ENDBRANCH   1  11
BRANCH   6  26
HETATM   26  C   UNL     1     -44.280  57.797 -58.268  1.00  0.00    -0.003 A 
HETATM   27  C   UNL     1     -45.332  57.540 -59.212  1.00  0.00     0.001 A 
HETATM   28  C   UNL     1     -45.215  56.213 -59.623  1.00  0.00     0.043 A 
HETATM   29  C   UNL     1     -46.388  58.313 -59.740  1.00  0.00     0.014 A 
HETATM   30  C   UNL     1     -46.106  55.614 -60.521  1.00  0.00     0.030 A 
HETATM   31  N   UNL     1     -44.121  55.685 -58.983  1.00  0.00    -0.365 N 
HETATM   32  C   UNL     1     -47.145  56.401 -61.024  1.00  0.00     0.002 A 
HETATM   33  C   UNL     1     -47.283  57.733 -60.645  1.00  0.00     0.001 A 
HETATM   34  H   UNL     1     -43.801  54.732 -59.088  1.00  0.00     0.165 HD
HETATM   35  C   UNL     1     -43.551  56.622 -58.168  1.00  0.00     0.099 A 
ENDBRANCH   6  26
TORSDOF 6
ENDMDL
MODEL 7
REMARK VINA RESULT:      -8.5      2.166      2.888
REMARK  6 active torsions:
REMARK  status: ('A' for Active; 'I' for Inactive)
REMARK    1  A    between atoms: O_2  and  C_3 
REMARK    2  A    between atoms: C_5  and  O_6 
REMARK    3  A    between atoms: C_8  and  N_9 
REMARK       I    between atoms: N_9  and  C_10 
REMARK    4  A    between atoms: C_10  and  C_11 
REMARK    5  A    between atoms: C_11  and  N_12 
REMARK    6  A    between atoms: C_17  and  C_18 
ROOT
HETATM    1  N   UNL     1     -42.338  58.360 -54.198  1.00  0.00    -0.326 N 
HETATM    2  C   UNL     1     -42.958  59.506 -53.711  1.00  0.00     0.255 C 
HETATM    3  O   UNL     1     -43.734  60.239 -54.295  1.00  0.00    -0.267 OA
HETATM    4  C   UNL     1     -42.438  59.750 -52.360  1.00  0.00     0.040 A 
HETATM    5  C   UNL     1     -41.464  58.791 -52.090  1.00  0.00    -0.015 A 
HETATM    6  C   UNL     1     -41.293  57.912 -53.289  1.00  0.00     0.158 C 
HETATM    7  C   UNL     1     -42.741  60.776 -51.484  1.00  0.00     0.017 A 
HETATM    8  C   UNL     1     -42.035  60.823 -50.280  1.00  0.00     0.001 A 
HETATM    9  C   UNL     1     -41.056  59.855 -49.987  1.00  0.00     0.001 A 
HETATM   10  C   UNL     1     -40.759  58.833 -50.895  1.00  0.00     0.011 A 
ENDROOT
BRANCH   1  11
HETATM   11  C   UNL     1     -42.171  58.190 -55.632  1.00  0.00     0.230 C 
BRANCH  11  12
HETATM   12  C   UNL     1     -43.186  57.306 -56.361  1.00  0.00     0.240 C 
HETATM   13  N   UNL     1     -43.583  57.781 -57.598  1.00  0.00    -0.323 N 
HETATM   14  H   UNL     1     -43.102  58.603 -57.954  1.00  0.00     0.169 HD
HETATM   15  O   UNL     1     -43.711  56.378 -55.746  1.00  0.00    -0.271 OA
BRANCH  13  16
HETATM   16  C   UNL     1     -44.664  57.315 -58.389  1.00  0.00     0.068 A 
HETATM   17  C   UNL     1     -44.411  56.315 -59.352  1.00  0.00     0.097 A 
HETATM   18  C   UNL     1     -45.437  55.894 -60.217  1.00  0.00     0.075 A 
HETATM   19  C   UNL     1     -46.719  56.435 -60.111  1.00  0.00     0.070 A 
HETATM   20  C   UNL     1     -46.980  57.376 -59.120  1.00  0.00     0.039 A 
HETATM   21  C   UNL     1     -45.963  57.818 -58.271  1.00  0.00     0.035 A 
BRANCH  17  22
HETATM   22  O   UNL     1     -43.124  55.826 -59.393  1.00  0.00    -0.354 OA
HETATM   23  C   UNL     1     -42.189  56.562 -60.175  1.00  0.00     0.210 C 
ENDBRANCH  17  22
BRANCH  19  24
HETATM   24  O   UNL     1     -47.794  56.119 -60.894  1.00  0.00    -0.356 OA
HETATM   25  C   UNL     1     -48.107  57.016 -61.952  1.00  0.00     0.210 C 
ENDBRANCH  19  24
ENDBRANCH  13  16
ENDBRANCH  11  12
ENDBRANCH   1  11
BRANCH   6  26
HETATM   26  C   UNL     1     -41.538  56.497 -52.891  1.00  0.00    -0.003 A 
HETATM   27  C   UNL     1     -41.062  55.338 -53.594  1.00  0.00     0.001 A 
HETATM   28  C   UNL     1     -41.574  54.213 -52.949  1.00  0.00     0.043 A 
HETATM   29  C   UNL     1     -40.256  55.145 -54.737  1.00  0.00     0.014 A 
HETATM   30  C   UNL     1     -41.336  52.908 -53.394  1.00  0.00     0.030 A 
HETATM   31  N   UNL     1     -42.308  54.659 -51.878  1.00  0.00    -0.365 N 
HETATM   32  C   UNL     1     -40.539  52.746 -54.531  1.00  0.00     0.002 A 
HETATM   33  C   UNL     1     -40.002  53.847 -55.191  1.00  0.00     0.001 A 
HETATM   34  H   UNL     1     -42.802  54.058 -51.233  1.00  0.00     0.165 HD
HETATM   35  C   UNL     1     -42.296  56.024 -51.830  1.00  0.00     0.099 A 
ENDBRANCH   6  26
TORSDOF 6
ENDMDL
MODEL 8
REMARK VINA RESULT:      -8.3      1.156      1.709
REMARK  6 active torsions:
REMARK  status: ('A' for Active; 'I' for Inactive)
REMARK    1  A    between atoms: O_2  and  C_3 
REMARK    2  A    between atoms: C_5  and  O_6 
REMARK    3  A    between atoms: C_8  and  N_9 
REMARK       I    between atoms: N_9  and  C_10 
REMARK    4  A    between atoms: C_10  and  C_11 
REMARK    5  A    between atoms: C_11  and  N_12 
REMARK    6  A    between atoms: C_17  and  C_18 
ROOT
HETATM    1  N   UNL     1     -43.502  56.885 -53.369  1.00  0.00    -0.326 N 
HETATM    2  C   UNL     1     -43.820  57.680 -52.272  1.00  0.00     0.255 C 
HETATM    3  O   UNL     1     -44.924  57.919 -51.821  1.00  0.00    -0.267 OA
HETATM    4  C   UNL     1     -42.571  58.276 -51.782  1.00  0.00     0.040 A 
HETATM    5  C   UNL     1     -41.540  57.890 -52.636  1.00  0.00    -0.015 A 
HETATM    6  C   UNL     1     -42.104  57.053 -53.741  1.00  0.00     0.158 C 
HETATM    7  C   UNL     1     -42.381  59.149 -50.726  1.00  0.00     0.017 A 
HETATM    8  C   UNL     1     -41.089  59.638 -50.522  1.00  0.00     0.001 A 
HETATM    9  C   UNL     1     -40.034  59.248 -51.368  1.00  0.00     0.001 A 
HETATM   10  C   UNL     1     -40.255  58.373 -52.437  1.00  0.00     0.011 A 
ENDROOT
BRANCH   1  11
HETATM   11  C   UNL     1     -44.501  56.651 -54.397  1.00  0.00     0.230 C 
BRANCH  11  12
HETATM   12  C   UNL     1     -44.419  57.499 -55.669  1.00  0.00     0.240 C 
HETATM   13  N   UNL     1     -43.674  56.938 -56.691  1.00  0.00    -0.323 N 
HETATM   14  H   UNL     1     -43.337  55.989 -56.550  1.00  0.00     0.169 HD
HETATM   15  O   UNL     1     -44.834  58.658 -55.635  1.00  0.00    -0.271 OA
BRANCH  13  16
HETATM   16  C   UNL     1     -43.229  57.575 -57.877  1.00  0.00     0.068 A 
HETATM   17  C   UNL     1     -43.696  57.090 -59.117  1.00  0.00     0.097 A 
HETATM   18  C   UNL     1     -43.207  57.635 -60.317  1.00  0.00     0.075 A 
HETATM   19  C   UNL     1     -42.281  58.681 -60.295  1.00  0.00     0.070 A 
HETATM   20  C   UNL     1     -41.870  59.198 -59.070  1.00  0.00     0.039 A 
HETATM   21  C   UNL     1     -42.333  58.648 -57.873  1.00  0.00     0.035 A 
BRANCH  17  22
HETATM   22  O   UNL     1     -44.610  56.061 -59.058  1.00  0.00    -0.354 OA
HETATM   23  C   UNL     1     -44.327  54.912 -59.849  1.00  0.00     0.210 C 
ENDBRANCH  17  22
BRANCH  19  24
HETATM   24  O   UNL     1     -41.725  59.287 -61.386  1.00  0.00    -0.356 OA
HETATM   25  C   UNL     1     -41.908  60.692 -61.505  1.00  0.00     0.210 C 
ENDBRANCH  19  24
ENDBRANCH  13  16
ENDBRANCH  11  12
ENDBRANCH   1  11
BRANCH   6  26
HETATM   26  C   UNL     1     -41.418  55.731 -53.747  1.00  0.00    -0.003 A 
HETATM   27  C   UNL     1     -41.260  54.867 -52.611  1.00  0.00     0.001 A 
HETATM   28  C   UNL     1     -40.494  53.774 -53.013  1.00  0.00     0.043 A 
HETATM   29  C   UNL     1     -41.684  54.927 -51.266  1.00  0.00     0.014 A 
HETATM   30  C   UNL     1     -40.118  52.746 -52.141  1.00  0.00     0.030 A 
HETATM   31  N   UNL     1     -40.219  53.942 -54.348  1.00  0.00    -0.365 N 
HETATM   32  C   UNL     1     -40.546  52.834 -50.814  1.00  0.00     0.002 A 
HETATM   33  C   UNL     1     -41.323  53.905 -50.381  1.00  0.00     0.001 A 
HETATM   34  H   UNL     1     -39.672  53.300 -54.905  1.00  0.00     0.165 HD
HETATM   35  C   UNL     1     -40.765  55.109 -54.802  1.00  0.00     0.099 A 
ENDBRANCH   6  26
TORSDOF 6
ENDMDL
MODEL 9
REMARK VINA RESULT:      -8.2      2.958      5.803
REMARK  6 active torsions:
REMARK  status: ('A' for Active; 'I' for Inactive)
REMARK    1  A    between atoms: O_2  and  C_3 
REMARK    2  A    between atoms: C_5  and  O_6 
REMARK    3  A    between atoms: C_8  and  N_9 
REMARK       I    between atoms: N_9  and  C_10 
REMARK    4  A    between atoms: C_10  and  C_11 
REMARK    5  A    between atoms: C_11  and  N_12 
REMARK    6  A    between atoms: C_17  and  C_18 
ROOT
HETATM    1  N   UNL     1     -41.130  56.735 -52.020  1.00  0.00    -0.326 N 
HETATM    2  C   UNL     1     -41.030  57.183 -53.333  1.00  0.00     0.255 C 
HETATM    3  O   UNL     1     -40.492  58.197 -53.736  1.00  0.00    -0.267 OA
HETATM    4  C   UNL     1     -41.783  56.247 -54.177  1.00  0.00     0.040 A 
HETATM    5  C   UNL     1     -42.381  55.299 -53.349  1.00  0.00    -0.015 A 
HETATM    6  C   UNL     1     -42.062  55.621 -51.923  1.00  0.00     0.158 C 
HETATM    7  C   UNL     1     -41.988  56.282 -55.544  1.00  0.00     0.017 A 
HETATM    8  C   UNL     1     -42.823  55.307 -56.094  1.00  0.00     0.001 A 
HETATM    9  C   UNL     1     -43.425  54.335 -55.273  1.00  0.00     0.001 A 
HETATM   10  C   UNL     1     -43.212  54.329 -53.890  1.00  0.00     0.011 A 
ENDROOT
BRANCH   1  11
HETATM   11  C   UNL     1     -41.026  57.688 -50.928  1.00  0.00     0.230 C 
BRANCH  11  12
HETATM   12  C   UNL     1     -41.983  58.883 -50.940  1.00  0.00     0.240 C 
HETATM   13  N   UNL     1     -43.324  58.550 -51.016  1.00  0.00    -0.323 N 
HETATM   14  H   UNL     1     -43.558  57.562 -50.957  1.00  0.00     0.169 HD
HETATM   15  O   UNL     1     -41.516  60.014 -51.074  1.00  0.00    -0.271 OA
BRANCH  13  16
HETATM   16  C   UNL     1     -44.410  59.422 -51.278  1.00  0.00     0.068 A 
HETATM   17  C   UNL     1     -44.855  59.563 -52.610  1.00  0.00     0.097 A 
HETATM   18  C   UNL     1     -45.868  60.486 -52.922  1.00  0.00     0.075 A 
HETATM   19  C   UNL     1     -46.466  61.247 -51.916  1.00  0.00     0.070 A 
HETATM   20  C   UNL     1     -46.069  61.061 -50.596  1.00  0.00     0.039 A 
HETATM   21  C   UNL     1     -45.047  60.163 -50.279  1.00  0.00     0.035 A 
BRANCH  17  22
HETATM   22  O   UNL     1     -44.220  58.775 -53.546  1.00  0.00    -0.354 OA
HETATM   23  C   UNL     1     -45.056  58.083 -54.467  1.00  0.00     0.210 C 
ENDBRANCH  17  22
BRANCH  19  24
HETATM   24  O   UNL     1     -47.450  62.181 -52.090  1.00  0.00    -0.356 OA
HETATM   25  C   UNL     1     -47.511  63.236 -51.139  1.00  0.00     0.210 C 
ENDBRANCH  19  24
ENDBRANCH  13  16
ENDBRANCH  11  12
ENDBRANCH   1  11
BRANCH   6  26
HETATM   26  C   UNL     1     -41.387  54.447 -51.301  1.00  0.00    -0.003 A 
HETATM   27  C   UNL     1     -40.712  53.398 -52.013  1.00  0.00     0.001 A 
HETATM   28  C   UNL     1     -40.292  52.454 -51.077  1.00  0.00     0.043 A 
HETATM   29  C   UNL     1     -40.437  53.156 -53.376  1.00  0.00     0.014 A 
HETATM   30  C   UNL     1     -39.626  51.275 -51.432  1.00  0.00     0.030 A 
HETATM   31  N   UNL     1     -40.666  52.916 -49.839  1.00  0.00    -0.365 N 
HETATM   32  C   UNL     1     -39.372  51.058 -52.789  1.00  0.00     0.002 A 
HETATM   33  C   UNL     1     -39.766  51.986 -53.748  1.00  0.00     0.001 A 
HETATM   34  H   UNL     1     -40.495  52.429 -48.971  1.00  0.00     0.165 HD
HETATM   35  C   UNL     1     -41.323  54.109 -49.957  1.00  0.00     0.099 A 
ENDBRANCH   6  26
TORSDOF 6
ENDMDL
MODEL 10
REMARK VINA RESULT:      -8.2      1.561      2.762
REMARK  6 active torsions:
REMARK  status: ('A' for Active; 'I' for Inactive)
REMARK    1  A    between atoms: O_2  and  C_3 
REMARK    2  A    between atoms: C_5  and  O_6 
REMARK    3  A    between atoms: C_8  and  N_9 
REMARK       I    between atoms: N_9  and  C_10 
REMARK    4  A    between atoms: C_10  and  C_11 
REMARK    5  A    between atoms: C_11  and  N_12 
REMARK    6  A    between atoms: C_17  and  C_18 
ROOT
HETATM    1  N   UNL     1     -43.332  56.740 -53.140  1.00  0.00    -0.326 N 
HETATM    2  C   UNL     1     -43.829  57.761 -52.336  1.00  0.00     0.255 C 
HETATM    3  O   UNL     1     -44.988  58.105 -52.201  1.00  0.00    -0.267 OA
HETATM    4  C   UNL     1     -42.681  58.439 -51.722  1.00  0.00     0.040 A 
HETATM    5  C   UNL     1     -41.516  57.863 -52.225  1.00  0.00    -0.015 A 
HETATM    6  C   UNL     1     -41.880  56.808 -53.222  1.00  0.00     0.158 C 
HETATM    7  C   UNL     1     -42.669  59.522 -50.863  1.00  0.00     0.017 A 
HETATM    8  C   UNL     1     -41.424  60.031 -50.488  1.00  0.00     0.001 A 
HETATM    9  C   UNL     1     -40.238  59.453 -50.977  1.00  0.00     0.001 A 
HETATM   10  C   UNL     1     -40.277  58.366 -51.856  1.00  0.00     0.011 A 
ENDROOT
BRANCH   1  11
HETATM   11  C   UNL     1     -44.101  56.294 -54.289  1.00  0.00     0.230 C 
BRANCH  11  12
HETATM   12  C   UNL     1     -44.112  57.196 -55.526  1.00  0.00     0.240 C 
HETATM   13  N   UNL     1     -42.915  57.247 -56.216  1.00  0.00    -0.323 N 
HETATM   14  H   UNL     1     -42.177  56.618 -55.908  1.00  0.00     0.169 HD
HETATM   15  O   UNL     1     -45.078  57.937 -55.708  1.00  0.00    -0.271 OA
BRANCH  13  16
HETATM   16  C   UNL     1     -42.554  58.157 -57.241  1.00  0.00     0.068 A 
HETATM   17  C   UNL     1     -41.963  59.385 -56.873  1.00  0.00     0.097 A 
HETATM   18  C   UNL     1     -41.676  60.351 -57.854  1.00  0.00     0.075 A 
HETATM   19  C   UNL     1     -41.941  60.094 -59.200  1.00  0.00     0.070 A 
HETATM   20  C   UNL     1     -42.466  58.858 -59.566  1.00  0.00     0.039 A 
HETATM   21  C   UNL     1     -42.776  57.901 -58.597  1.00  0.00     0.035 A 
BRANCH  17  22
HETATM   22  O   UNL     1     -41.727  59.564 -55.528  1.00  0.00    -0.354 OA
HETATM   23  C   UNL     1     -42.526  60.538 -54.866  1.00  0.00     0.210 C 
ENDBRANCH  17  22
BRANCH  19  24
HETATM   24  O   UNL     1     -41.717  60.950 -60.243  1.00  0.00    -0.356 OA
HETATM   25  C   UNL     1     -42.109  60.505 -61.536  1.00  0.00     0.210 C 
ENDBRANCH  19  24
ENDBRANCH  13  16
ENDBRANCH  11  12
ENDBRANCH   1  11
BRANCH   6  26
HETATM   26  C   UNL     1     -41.285  55.510 -52.794  1.00  0.00    -0.003 A 
HETATM   27  C   UNL     1     -41.176  55.050 -51.438  1.00  0.00     0.001 A 
HETATM   28  C   UNL     1     -40.491  53.836 -51.458  1.00  0.00     0.043 A 
HETATM   29  C   UNL     1     -41.581  55.568 -50.189  1.00  0.00     0.014 A 
HETATM   30  C   UNL     1     -40.177  53.120 -50.297  1.00  0.00     0.030 A 
HETATM   31  N   UNL     1     -40.218  53.546 -52.773  1.00  0.00    -0.365 N 
HETATM   32  C   UNL     1     -40.585  53.659 -49.074  1.00  0.00     0.002 A 
HETATM   33  C   UNL     1     -41.282  54.863 -49.019  1.00  0.00     0.001 A 
HETATM   34  H   UNL     1     -39.721  52.724 -53.086  1.00  0.00     0.165 HD
HETATM   35  C   UNL     1     -40.687  54.540 -53.584  1.00  0.00     0.099 A 
ENDBRANCH   6  26
TORSDOF 6
ENDMDL
