MODEL 1
REMARK VINA RESULT:      -8.6      0.000      0.000
REMARK  6 active torsions:
REMARK  status: ('A' for Active; 'I' for Inactive)
REMARK    1  A    between atoms: O_2  and  C_3 
REMARK    2  A    between atoms: C_6  and  C_7 
REMARK    3  A    between atoms: N_9  and  C_10 
REMARK    4  A    between atoms: C_17  and  C_18 
REMARK       I    between atoms: C_18  and  N_19 
REMARK    5  A    between atoms: N_19  and  N_20 
REMARK       I    between atoms: N_20  and  C_21 
REMARK    6  A    between atoms: C_21  and  C_22 
ROOT
HETATM    1  C   UNL     1     -41.754  55.333 -54.659  1.00  0.00     0.105 A 
HETATM    2  N   UNL     1     -41.309  54.064 -54.740  1.00  0.00    -0.166 NA
HETATM    3  N   UNL     1     -40.946  53.695 -53.497  1.00  0.00    -0.244 N 
HETATM    4  C   UNL     1     -41.150  54.712 -52.603  1.00  0.00     0.138 A 
HETATM    5  C   UNL     1     -41.664  55.790 -53.306  1.00  0.00     0.082 A 
ENDROOT
BRANCH   5   6
HETATM    6  C   UNL     1     -41.990  57.064 -52.692  1.00  0.00     0.274 C 
HETATM    7  N   UNL     1     -43.347  57.259 -52.525  1.00  0.00    -0.263 N 
HETATM    8  H   UNL     1     -44.050  56.618 -52.889  1.00  0.00     0.190 HD
HETATM    9  O   UNL     1     -41.158  57.895 -52.341  1.00  0.00    -0.266 OA
BRANCH   7  10
HETATM   10  N   UNL     1     -43.817  58.469 -52.006  1.00  0.00    -0.262 N 
HETATM   11  C   UNL     1     -44.905  58.437 -51.159  1.00  0.00     0.286 C 
HETATM   12  O   UNL     1     -45.472  57.380 -50.880  1.00  0.00    -0.264 OA
HETATM   13  H   UNL     1     -43.290  59.309 -52.225  1.00  0.00     0.190 HD
BRANCH  11  14
HETATM   14  C   UNL     1     -45.327  59.711 -50.624  1.00  0.00     0.102 A 
HETATM   15  N   UNL     1     -44.932  60.124 -49.368  1.00  0.00    -0.361 N 
HETATM   16  H   UNL     1     -44.338  59.576 -48.757  1.00  0.00     0.165 HD
HETATM   17  C   UNL     1     -45.454  61.358 -49.087  1.00  0.00     0.088 A 
HETATM   18  C   UNL     1     -46.203  61.754 -50.169  1.00  0.00     0.019 A 
HETATM   19  C   UNL     1     -46.127  60.721 -51.136  1.00  0.00     0.036 A 
ENDBRANCH  11  14
ENDBRANCH   7  10
ENDBRANCH   5   6
BRANCH   1  20
HETATM   20  C   UNL     1     -42.276  55.974 -55.886  1.00  0.00    -0.004 A 
HETATM   21  C   UNL     1     -42.195  57.374 -56.025  1.00  0.00     0.016 A 
HETATM   22  C   UNL     1     -42.626  58.032 -57.185  1.00  0.00     0.037 A 
HETATM   23  C   UNL     1     -43.158  57.301 -58.242  1.00  0.00     0.068 A 
HETATM   24  C   UNL     1     -43.264  55.917 -58.114  1.00  0.00     0.037 A 
HETATM   25  C   UNL     1     -42.815  55.259 -56.960  1.00  0.00     0.016 A 
BRANCH  23  26
HETATM   26  O   UNL     1     -43.607  57.810 -59.428  1.00  0.00    -0.356 OA
HETATM   27  C   UNL     1     -44.113  56.873 -60.369  1.00  0.00     0.210 C 
ENDBRANCH  23  26
ENDBRANCH   1  20
BRANCH   3  28
HETATM   28  C   UNL     1     -40.442  52.389 -53.238  1.00  0.00     0.058 A 
HETATM   29  C   UNL     1     -40.450  51.432 -54.264  1.00  0.00     0.031 A 
HETATM   30  C   UNL     1     -39.971  50.141 -54.027  1.00  0.00     0.002 A 
HETATM   31  C   UNL     1     -39.480  49.798 -52.770  1.00  0.00     0.000 A 
HETATM   32  C   UNL     1     -39.467  50.743 -51.746  1.00  0.00     0.002 A 
HETATM   33  C   UNL     1     -39.945  52.037 -51.975  1.00  0.00     0.031 A 
ENDBRANCH   3  28
TORSDOF 6
ENDMDL
MODEL 2
REMARK VINA RESULT:      -8.5      2.763      6.126
REMARK  6 active torsions:
REMARK  status: ('A' for Active; 'I' for Inactive)
REMARK    1  A    between atoms: O_2  and  C_3 
REMARK    2  A    between atoms: C_6  and  C_7 
REMARK    3  A    between atoms: N_9  and  C_10 
REMARK    4  A    between atoms: C_17  and  C_18 
REMARK       I    between atoms: C_18  and  N_19 
REMARK    5  A    between atoms: N_19  and  N_20 
REMARK       I    between atoms: N_20  and  C_21 
REMARK    6  A    between atoms: C_21  and  C_22 
ROOT
HETATM    1  C   UNL     1     -41.503  55.295 -53.149  1.00  0.00     0.105 A 
HETATM    2  N   UNL     1     -40.769  54.254 -52.708  1.00  0.00    -0.166 NA
HETATM    3  N   UNL     1     -41.056  53.207 -53.505  1.00  0.00    -0.244 N 
HETATM    4  C   UNL     1     -41.969  53.554 -54.464  1.00  0.00     0.138 A 
HETATM    5  C   UNL     1     -42.291  54.888 -54.272  1.00  0.00     0.082 A 
ENDROOT
BRANCH   5   6
HETATM    6  C   UNL     1     -43.249  55.607 -55.092  1.00  0.00     0.274 C 
HETATM    7  N   UNL     1     -43.063  55.414 -56.446  1.00  0.00    -0.263 N 
HETATM    8  H   UNL     1     -42.272  54.902 -56.832  1.00  0.00     0.190 HD
HETATM    9  O   UNL     1     -44.147  56.314 -54.645  1.00  0.00    -0.266 OA
BRANCH   7  10
HETATM   10  N   UNL     1     -43.871  56.095 -57.363  1.00  0.00    -0.262 N 
HETATM   11  C   UNL     1     -43.359  57.221 -57.973  1.00  0.00     0.286 C 
HETATM   12  O   UNL     1     -42.232  57.640 -57.708  1.00  0.00    -0.264 OA
HETATM   13  H   UNL     1     -44.774  55.687 -57.585  1.00  0.00     0.190 HD
BRANCH  11  14
HETATM   14  C   UNL     1     -44.222  57.864 -58.936  1.00  0.00     0.102 A 
HETATM   15  N   UNL     1     -45.525  57.446 -59.120  1.00  0.00    -0.361 N 
HETATM   16  H   UNL     1     -45.948  56.683 -58.605  1.00  0.00     0.165 HD
HETATM   17  C   UNL     1     -46.138  58.207 -60.079  1.00  0.00     0.088 A 
HETATM   18  C   UNL     1     -45.224  59.128 -60.532  1.00  0.00     0.019 A 
HETATM   19  C   UNL     1     -44.019  58.915 -59.818  1.00  0.00     0.036 A 
ENDBRANCH  11  14
ENDBRANCH   7  10
ENDBRANCH   5   6
BRANCH   1  20
HETATM   20  C   UNL     1     -41.336  56.604 -52.480  1.00  0.00    -0.004 A 
HETATM   21  C   UNL     1     -40.967  57.730 -53.242  1.00  0.00     0.016 A 
HETATM   22  C   UNL     1     -40.845  59.005 -52.673  1.00  0.00     0.037 A 
HETATM   23  C   UNL     1     -41.084  59.186 -51.315  1.00  0.00     0.068 A 
HETATM   24  C   UNL     1     -41.430  58.080 -50.542  1.00  0.00     0.037 A 
HETATM   25  C   UNL     1     -41.570  56.808 -51.117  1.00  0.00     0.016 A 
BRANCH  23  26
HETATM   26  O   UNL     1     -41.008  60.369 -50.635  1.00  0.00    -0.356 OA
HETATM   27  C   UNL     1     -42.238  61.040 -50.392  1.00  0.00     0.210 C 
ENDBRANCH  23  26
ENDBRANCH   1  20
BRANCH   3  28
HETATM   28  C   UNL     1     -40.427  51.945 -53.311  1.00  0.00     0.058 A 
HETATM   29  C   UNL     1     -40.297  51.066 -54.396  1.00  0.00     0.031 A 
HETATM   30  C   UNL     1     -39.693  49.818 -54.225  1.00  0.00     0.002 A 
HETATM   31  C   UNL     1     -39.215  49.439 -52.972  1.00  0.00     0.000 A 
HETATM   32  C   UNL     1     -39.338  50.307 -51.890  1.00  0.00     0.002 A 
HETATM   33  C   UNL     1     -39.941  51.558 -52.053  1.00  0.00     0.031 A 
ENDBRANCH   3  28
TORSDOF 6
ENDMDL
MODEL 3
REMARK VINA RESULT:      -8.1      1.634      2.158
REMARK  6 active torsions:
REMARK  status: ('A' for Active; 'I' for Inactive)
REMARK    1  A    between atoms: O_2  and  C_3 
REMARK    2  A    between atoms: C_6  and  C_7 
REMARK    3  A    between atoms: N_9  and  C_10 
REMARK    4  A    between atoms: C_17  and  C_18 
REMARK       I    between atoms: C_18  and  N_19 
REMARK    5  A    between atoms: N_19  and  N_20 
REMARK       I    between atoms: N_20  and  C_21 
REMARK    6  A    between atoms: C_21  and  C_22 
ROOT
HETATM    1  C   UNL     1     -42.591  56.399 -53.815  1.00  0.00     0.105 A 
HETATM    2  N   UNL     1     -42.117  55.157 -54.040  1.00  0.00    -0.166 NA
HETATM    3  N   UNL     1     -41.421  54.799 -52.944  1.00  0.00    -0.244 N 
HETATM    4  C   UNL     1     -41.436  55.794 -52.004  1.00  0.00     0.138 A 
HETATM    5  C   UNL     1     -42.173  56.848 -52.522  1.00  0.00     0.082 A 
ENDROOT
BRANCH   5   6
HETATM    6  C   UNL     1     -42.393  58.096 -51.814  1.00  0.00     0.274 C 
HETATM    7  N   UNL     1     -43.625  58.163 -51.196  1.00  0.00    -0.263 N 
HETATM    8  H   UNL     1     -44.345  57.451 -51.310  1.00  0.00     0.190 HD
HETATM    9  O   UNL     1     -41.575  59.008 -51.753  1.00  0.00    -0.266 OA
BRANCH   7  10
HETATM   10  N   UNL     1     -44.006  59.332 -50.529  1.00  0.00    -0.262 N 
HETATM   11  C   UNL     1     -45.330  59.479 -50.173  1.00  0.00     0.286 C 
HETATM   12  O   UNL     1     -46.169  58.622 -50.452  1.00  0.00    -0.264 OA
HETATM   13  H   UNL     1     -43.272  59.988 -50.279  1.00  0.00     0.190 HD
BRANCH  11  14
HETATM   14  C   UNL     1     -45.660  60.689 -49.457  1.00  0.00     0.102 A 
HETATM   15  N   UNL     1     -46.268  61.753 -50.092  1.00  0.00    -0.361 N 
HETATM   16  H   UNL     1     -46.515  61.753 -51.075  1.00  0.00     0.165 HD
HETATM   17  C   UNL     1     -46.481  62.776 -49.208  1.00  0.00     0.088 A 
HETATM   18  C   UNL     1     -46.001  62.380 -47.983  1.00  0.00     0.019 A 
HETATM   19  C   UNL     1     -45.484  61.070 -48.135  1.00  0.00     0.036 A 
ENDBRANCH  11  14
ENDBRANCH   7  10
ENDBRANCH   5   6
BRANCH   1  20
HETATM   20  C   UNL     1     -43.450  57.020 -54.847  1.00  0.00    -0.004 A 
HETATM   21  C   UNL     1     -42.998  57.078 -56.180  1.00  0.00     0.016 A 
HETATM   22  C   UNL     1     -43.788  57.608 -57.210  1.00  0.00     0.037 A 
HETATM   23  C   UNL     1     -45.057  58.102 -56.928  1.00  0.00     0.068 A 
HETATM   24  C   UNL     1     -45.513  58.071 -55.612  1.00  0.00     0.037 A 
HETATM   25  C   UNL     1     -44.728  57.523 -54.586  1.00  0.00     0.016 A 
BRANCH  23  26
HETATM   26  O   UNL     1     -45.932  58.637 -57.832  1.00  0.00    -0.356 OA
HETATM   27  C   UNL     1     -45.424  58.884 -59.137  1.00  0.00     0.210 C 
ENDBRANCH  23  26
ENDBRANCH   1  20
BRANCH   3  28
HETATM   28  C   UNL     1     -40.799  53.522 -52.856  1.00  0.00     0.058 A 
HETATM   29  C   UNL     1     -40.357  53.055 -51.609  1.00  0.00     0.031 A 
HETATM   30  C   UNL     1     -39.734  51.808 -51.503  1.00  0.00     0.002 A 
HETATM   31  C   UNL     1     -39.549  51.021 -52.638  1.00  0.00     0.000 A 
HETATM   32  C   UNL     1     -39.987  51.477 -53.879  1.00  0.00     0.002 A 
HETATM   33  C   UNL     1     -40.611  52.723 -53.994  1.00  0.00     0.031 A 
ENDBRANCH   3  28
TORSDOF 6
ENDMDL
MODEL 4
REMARK VINA RESULT:      -8.1      2.730      5.352
REMARK  6 active torsions:
REMARK  status: ('A' for Active; 'I' for Inactive)
REMARK    1  A    between atoms: O_2  and  C_3 
REMARK    2  A    between atoms: C_6  and  C_7 
REMARK    3  A    between atoms: N_9  and  C_10 
REMARK    4  A    between atoms: C_17  and  C_18 
REMARK       I    between atoms: C_18  and  N_19 
REMARK    5  A    between atoms: N_19  and  N_20 
REMARK       I    between atoms: N_20  and  C_21 
REMARK    6  A    between atoms: C_21  and  C_22 
ROOT
HETATM    1  C   UNL     1     -41.436  55.802 -53.357  1.00  0.00     0.105 A 
HETATM    2  N   UNL     1     -40.886  54.699 -52.812  1.00  0.00    -0.166 NA
HETATM    3  N   UNL     1     -41.000  53.714 -53.723  1.00  0.00    -0.244 N 
HETATM    4  C   UNL     1     -41.618  54.163 -54.859  1.00  0.00     0.138 A 
HETATM    5  C   UNL     1     -41.923  55.501 -54.669  1.00  0.00     0.082 A 
ENDROOT
BRANCH   5   6
HETATM    6  C   UNL     1     -42.605  56.316 -55.657  1.00  0.00     0.274 C 
HETATM    7  N   UNL     1     -43.970  56.390 -55.457  1.00  0.00    -0.263 N 
HETATM    8  H   UNL     1     -44.459  55.845 -54.748  1.00  0.00     0.190 HD
HETATM    9  O   UNL     1     -42.044  56.896 -56.580  1.00  0.00    -0.266 OA
BRANCH   7  10
HETATM   10  N   UNL     1     -44.769  57.087 -56.367  1.00  0.00    -0.262 N 
HETATM   11  C   UNL     1     -45.266  58.317 -55.992  1.00  0.00     0.286 C 
HETATM   12  O   UNL     1     -45.039  58.789 -54.877  1.00  0.00    -0.264 OA
HETATM   13  H   UNL     1     -44.891  56.681 -57.291  1.00  0.00     0.190 HD
BRANCH  11  14
HETATM   14  C   UNL     1     -46.056  59.009 -56.983  1.00  0.00     0.102 A 
HETATM   15  N   UNL     1     -46.755  60.156 -56.667  1.00  0.00    -0.361 N 
HETATM   16  H   UNL     1     -46.757  60.576 -55.745  1.00  0.00     0.165 HD
HETATM   17  C   UNL     1     -47.422  60.626 -57.766  1.00  0.00     0.088 A 
HETATM   18  C   UNL     1     -47.162  59.772 -58.812  1.00  0.00     0.019 A 
HETATM   19  C   UNL     1     -46.306  58.754 -58.323  1.00  0.00     0.036 A 
ENDBRANCH  11  14
ENDBRANCH   7  10
ENDBRANCH   5   6
BRANCH   1  20
HETATM   20  C   UNL     1     -41.395  57.063 -52.583  1.00  0.00    -0.004 A 
HETATM   21  C   UNL     1     -41.589  58.290 -53.246  1.00  0.00     0.016 A 
HETATM   22  C   UNL     1     -41.611  59.511 -52.559  1.00  0.00     0.037 A 
HETATM   23  C   UNL     1     -41.433  59.536 -51.180  1.00  0.00     0.068 A 
HETATM   24  C   UNL     1     -41.219  58.333 -50.509  1.00  0.00     0.037 A 
HETATM   25  C   UNL     1     -41.216  57.111 -51.197  1.00  0.00     0.016 A 
BRANCH  23  26
HETATM   26  O   UNL     1     -41.439  60.649 -50.387  1.00  0.00    -0.356 OA
HETATM   27  C   UNL     1     -42.666  61.363 -50.307  1.00  0.00     0.210 C 
ENDBRANCH  23  26
ENDBRANCH   1  20
BRANCH   3  28
HETATM   28  C   UNL     1     -40.496  52.409 -53.458  1.00  0.00     0.058 A 
HETATM   29  C   UNL     1     -40.546  51.434 -54.465  1.00  0.00     0.031 A 
HETATM   30  C   UNL     1     -40.066  50.144 -54.222  1.00  0.00     0.002 A 
HETATM   31  C   UNL     1     -39.535  49.820 -52.975  1.00  0.00     0.000 A 
HETATM   32  C   UNL     1     -39.479  50.784 -51.970  1.00  0.00     0.002 A 
HETATM   33  C   UNL     1     -39.957  52.077 -52.206  1.00  0.00     0.031 A 
ENDBRANCH   3  28
TORSDOF 6
ENDMDL
MODEL 5
REMARK VINA RESULT:      -8.1      2.074      5.963
REMARK  6 active torsions:
REMARK  status: ('A' for Active; 'I' for Inactive)
REMARK    1  A    between atoms: O_2  and  C_3 
REMARK    2  A    between atoms: C_6  and  C_7 
REMARK    3  A    between atoms: N_9  and  C_10 
REMARK    4  A    between atoms: C_17  and  C_18 
REMARK       I    between atoms: C_18  and  N_19 
REMARK    5  A    between atoms: N_19  and  N_20 
REMARK       I    between atoms: N_20  and  C_21 
REMARK    6  A    between atoms: C_21  and  C_22 
ROOT
HETATM    1  C   UNL     1     -41.808  55.899 -54.078  1.00  0.00     0.105 A 
HETATM    2  N   UNL     1     -41.909  55.664 -55.401  1.00  0.00    -0.166 NA
HETATM    3  N   UNL     1     -42.323  56.811 -55.972  1.00  0.00    -0.244 N 
HETATM    4  C   UNL     1     -42.492  57.794 -55.034  1.00  0.00     0.138 A 
HETATM    5  C   UNL     1     -42.178  57.253 -53.798  1.00  0.00     0.082 A 
ENDROOT
BRANCH   5   6
HETATM    6  C   UNL     1     -42.259  57.995 -52.554  1.00  0.00     0.274 C 
HETATM    7  N   UNL     1     -43.547  58.111 -52.069  1.00  0.00    -0.263 N 
HETATM    8  H   UNL     1     -44.367  57.796 -52.586  1.00  0.00     0.190 HD
HETATM    9  O   UNL     1     -41.292  58.473 -51.971  1.00  0.00    -0.266 OA
BRANCH   7  10
HETATM   10  N   UNL     1     -43.790  58.856 -50.912  1.00  0.00    -0.262 N 
HETATM   11  C   UNL     1     -44.300  60.130 -51.049  1.00  0.00     0.286 C 
HETATM   12  O   UNL     1     -44.517  60.618 -52.158  1.00  0.00    -0.264 OA
HETATM   13  H   UNL     1     -43.641  58.396 -50.018  1.00  0.00     0.190 HD
BRANCH  11  14
HETATM   14  C   UNL     1     -44.565  60.840 -49.820  1.00  0.00     0.102 A 
HETATM   15  N   UNL     1     -45.275  60.252 -48.793  1.00  0.00    -0.361 N 
HETATM   16  H   UNL     1     -45.645  59.310 -48.834  1.00  0.00     0.165 HD
HETATM   17  C   UNL     1     -45.393  61.118 -47.739  1.00  0.00     0.088 A 
HETATM   18  C   UNL     1     -44.759  62.288 -48.083  1.00  0.00     0.019 A 
HETATM   19  C   UNL     1     -44.238  62.118 -49.390  1.00  0.00     0.036 A 
ENDBRANCH  11  14
ENDBRANCH   7  10
ENDBRANCH   5   6
BRANCH   1  20
HETATM   20  C   UNL     1     -41.312  54.810 -53.207  1.00  0.00    -0.004 A 
HETATM   21  C   UNL     1     -41.599  54.839 -51.829  1.00  0.00     0.016 A 
HETATM   22  C   UNL     1     -41.200  53.811 -50.964  1.00  0.00     0.037 A 
HETATM   23  C   UNL     1     -40.492  52.721 -51.460  1.00  0.00     0.068 A 
HETATM   24  C   UNL     1     -40.181  52.685 -52.818  1.00  0.00     0.037 A 
HETATM   25  C   UNL     1     -40.598  53.706 -53.684  1.00  0.00     0.016 A 
BRANCH  23  26
HETATM   26  O   UNL     1     -40.050  51.650 -50.735  1.00  0.00    -0.356 OA
HETATM   27  C   UNL     1     -39.491  50.572 -51.474  1.00  0.00     0.210 C 
ENDBRANCH  23  26
ENDBRANCH   1  20
BRANCH   3  28
HETATM   28  C   UNL     1     -42.514  56.901 -57.379  1.00  0.00     0.058 A 
HETATM   29  C   UNL     1     -42.163  58.083 -58.048  1.00  0.00     0.031 A 
HETATM   30  C   UNL     1     -42.353  58.196 -59.428  1.00  0.00     0.002 A 
HETATM   31  C   UNL     1     -42.893  57.133 -60.148  1.00  0.00     0.000 A 
HETATM   32  C   UNL     1     -43.243  55.955 -59.492  1.00  0.00     0.002 A 
HETATM   33  C   UNL     1     -43.056  55.833 -58.111  1.00  0.00     0.031 A 
ENDBRANCH   3  28
TORSDOF 6
ENDMDL
MODEL 6
REMARK VINA RESULT:      -8.0      2.697      6.332
REMARK  6 active torsions:
REMARK  status: ('A' for Active; 'I' for Inactive)
REMARK    1  A    between atoms: O_2  and  C_3 
REMARK    2  A    between atoms: C_6  and  C_7 
REMARK    3  A    between atoms: N_9  and  C_10 
REMARK    4  A    between atoms: C_17  and  C_18 
REMARK       I    between atoms: C_18  and  N_19 
REMARK    5  A    between atoms: N_19  and  N_20 
REMARK       I    between atoms: N_20  and  C_21 
REMARK    6  A    between atoms: C_21  and  C_22 
ROOT
HETATM    1  C   UNL     1     -41.797  56.047 -53.462  1.00  0.00     0.105 A 
HETATM    2  N   UNL     1     -41.219  54.999 -52.841  1.00  0.00    -0.166 NA
HETATM    3  N   UNL     1     -41.160  53.997 -53.738  1.00  0.00    -0.244 N 
HETATM    4  C   UNL     1     -41.692  54.379 -54.940  1.00  0.00     0.138 A 
HETATM    5  C   UNL     1     -42.122  55.690 -54.809  1.00  0.00     0.082 A 
ENDROOT
BRANCH   5   6
HETATM    6  C   UNL     1     -42.763  56.433 -55.878  1.00  0.00     0.274 C 
HETATM    7  N   UNL     1     -41.975  56.559 -57.005  1.00  0.00    -0.263 N 
HETATM    8  H   UNL     1     -41.005  56.250 -57.044  1.00  0.00     0.190 HD
HETATM    9  O   UNL     1     -43.894  56.903 -55.811  1.00  0.00    -0.266 OA
BRANCH   7  10
HETATM   10  N   UNL     1     -42.433  57.306 -58.094  1.00  0.00    -0.262 N 
HETATM   11  C   UNL     1     -42.130  58.651 -58.139  1.00  0.00     0.286 C 
HETATM   12  O   UNL     1     -41.494  59.195 -57.236  1.00  0.00    -0.264 OA
HETATM   13  H   UNL     1     -42.912  56.806 -58.837  1.00  0.00     0.190 HD
BRANCH  11  14
HETATM   14  C   UNL     1     -42.598  59.366 -59.303  1.00  0.00     0.102 A 
HETATM   15  N   UNL     1     -41.860  60.393 -59.855  1.00  0.00    -0.361 N 
HETATM   16  H   UNL     1     -40.967  60.702 -59.490  1.00  0.00     0.165 HD
HETATM   17  C   UNL     1     -42.506  60.911 -60.945  1.00  0.00     0.088 A 
HETATM   18  C   UNL     1     -43.683  60.219 -61.104  1.00  0.00     0.019 A 
HETATM   19  C   UNL     1     -43.746  59.248 -60.073  1.00  0.00     0.036 A 
ENDBRANCH  11  14
ENDBRANCH   7  10
ENDBRANCH   5   6
BRANCH   1  20
HETATM   20  C   UNL     1     -41.936  57.316 -52.714  1.00  0.00    -0.004 A 
HETATM   21  C   UNL     1     -40.787  58.071 -52.411  1.00  0.00     0.016 A 
HETATM   22  C   UNL     1     -40.861  59.306 -51.751  1.00  0.00     0.037 A 
HETATM   23  C   UNL     1     -42.097  59.816 -51.369  1.00  0.00     0.068 A 
HETATM   24  C   UNL     1     -43.243  59.073 -51.642  1.00  0.00     0.037 A 
HETATM   25  C   UNL     1     -43.168  57.847 -52.320  1.00  0.00     0.016 A 
BRANCH  23  26
HETATM   26  O   UNL     1     -42.314  61.004 -50.729  1.00  0.00    -0.356 OA
HETATM   27  C   UNL     1     -43.577  61.161 -50.096  1.00  0.00     0.210 C 
ENDBRANCH  23  26
ENDBRANCH   1  20
BRANCH   3  28
HETATM   28  C   UNL     1     -40.582  52.741 -53.396  1.00  0.00     0.058 A 
HETATM   29  C   UNL     1     -40.535  51.720 -54.356  1.00  0.00     0.031 A 
HETATM   30  C   UNL     1     -39.983  50.477 -54.038  1.00  0.00     0.002 A 
HETATM   31  C   UNL     1     -39.474  50.245 -52.762  1.00  0.00     0.000 A 
HETATM   32  C   UNL     1     -39.515  51.255 -51.803  1.00  0.00     0.002 A 
HETATM   33  C   UNL     1     -40.066  52.502 -52.114  1.00  0.00     0.031 A 
ENDBRANCH   3  28
TORSDOF 6
ENDMDL
MODEL 7
REMARK VINA RESULT:      -7.9      2.446      6.101
REMARK  6 active torsions:
REMARK  status: ('A' for Active; 'I' for Inactive)
REMARK    1  A    between atoms: O_2  and  C_3 
REMARK    2  A    between atoms: C_6  and  C_7 
REMARK    3  A    between atoms: N_9  and  C_10 
REMARK    4  A    between atoms: C_17  and  C_18 
REMARK       I    between atoms: C_18  and  N_19 
REMARK    5  A    between atoms: N_19  and  N_20 
REMARK       I    between atoms: N_20  and  C_21 
REMARK    6  A    between atoms: C_21  and  C_22 
ROOT
HETATM    1  C   UNL     1     -41.999  56.820 -53.571  1.00  0.00     0.105 A 
HETATM    2  N   UNL     1     -42.029  56.318 -54.821  1.00  0.00    -0.166 NA
HETATM    3  N   UNL     1     -42.421  57.317 -55.635  1.00  0.00    -0.244 N 
HETATM    4  C   UNL     1     -42.645  58.468 -54.929  1.00  0.00     0.138 A 
HETATM    5  C   UNL     1     -42.393  58.196 -53.594  1.00  0.00     0.082 A 
ENDROOT
BRANCH   5   6
HETATM    6  C   UNL     1     -42.544  59.176 -52.534  1.00  0.00     0.274 C 
HETATM    7  N   UNL     1     -43.798  59.165 -51.955  1.00  0.00    -0.263 N 
HETATM    8  H   UNL     1     -44.568  58.598 -52.305  1.00  0.00     0.190 HD
HETATM    9  O   UNL     1     -41.657  59.939 -52.168  1.00  0.00    -0.266 OA
BRANCH   7  10
HETATM   10  N   UNL     1     -44.113  60.098 -50.963  1.00  0.00    -0.262 N 
HETATM   11  C   UNL     1     -45.238  59.881 -50.195  1.00  0.00     0.286 C 
HETATM   12  O   UNL     1     -45.966  58.907 -50.385  1.00  0.00    -0.264 OA
HETATM   13  H   UNL     1     -43.458  60.860 -50.810  1.00  0.00     0.190 HD
BRANCH  11  14
HETATM   14  C   UNL     1     -45.496  60.857 -49.162  1.00  0.00     0.102 A 
HETATM   15  N   UNL     1     -44.995  60.697 -47.886  1.00  0.00    -0.361 N 
HETATM   16  H   UNL     1     -44.429  59.906 -47.600  1.00  0.00     0.165 HD
HETATM   17  C   UNL     1     -45.371  61.746 -47.092  1.00  0.00     0.088 A 
HETATM   18  C   UNL     1     -46.132  62.599 -47.855  1.00  0.00     0.019 A 
HETATM   19  C   UNL     1     -46.214  62.043 -49.156  1.00  0.00     0.036 A 
ENDBRANCH  11  14
ENDBRANCH   7  10
ENDBRANCH   5   6
BRANCH   1  20
HETATM   20  C   UNL     1     -41.542  55.941 -52.472  1.00  0.00    -0.004 A 
HETATM   21  C   UNL     1     -41.073  54.646 -52.770  1.00  0.00     0.016 A 
HETATM   22  C   UNL     1     -40.580  53.788 -51.778  1.00  0.00     0.037 A 
HETATM   23  C   UNL     1     -40.549  54.204 -50.451  1.00  0.00     0.068 A 
HETATM   24  C   UNL     1     -41.027  55.474 -50.135  1.00  0.00     0.037 A 
HETATM   25  C   UNL     1     -41.503  56.338 -51.132  1.00  0.00     0.016 A 
BRANCH  23  26
HETATM   26  O   UNL     1     -40.089  53.476 -49.390  1.00  0.00    -0.356 OA
HETATM   27  C   UNL     1     -40.347  54.008 -48.097  1.00  0.00     0.210 C 
ENDBRANCH  23  26
ENDBRANCH   1  20
BRANCH   3  28
HETATM   28  C   UNL     1     -42.539  57.114 -57.039  1.00  0.00     0.058 A 
HETATM   29  C   UNL     1     -43.013  55.884 -57.520  1.00  0.00     0.031 A 
HETATM   30  C   UNL     1     -43.127  55.660 -58.894  1.00  0.00     0.002 A 
HETATM   31  C   UNL     1     -42.769  56.659 -59.796  1.00  0.00     0.000 A 
HETATM   32  C   UNL     1     -42.298  57.884 -59.327  1.00  0.00     0.002 A 
HETATM   33  C   UNL     1     -42.182  58.116 -57.953  1.00  0.00     0.031 A 
ENDBRANCH   3  28
TORSDOF 6
ENDMDL
MODEL 8
REMARK VINA RESULT:      -7.9      2.561      6.195
REMARK  6 active torsions:
REMARK  status: ('A' for Active; 'I' for Inactive)
REMARK    1  A    between atoms: O_2  and  C_3 
REMARK    2  A    between atoms: C_6  and  C_7 
REMARK    3  A    between atoms: N_9  and  C_10 
REMARK    4  A    between atoms: C_17  and  C_18 
REMARK       I    between atoms: C_18  and  N_19 
REMARK    5  A    between atoms: N_19  and  N_20 
REMARK       I    between atoms: N_20  and  C_21 
REMARK    6  A    between atoms: C_21  and  C_22 
ROOT
HETATM    1  C   UNL     1     -42.553  56.441 -53.709  1.00  0.00     0.105 A 
HETATM    2  N   UNL     1     -42.207  56.154 -54.980  1.00  0.00    -0.166 NA
HETATM    3  N   UNL     1     -42.858  57.028 -55.771  1.00  0.00    -0.244 N 
HETATM    4  C   UNL     1     -43.627  57.884 -55.029  1.00  0.00     0.138 A 
HETATM    5  C   UNL     1     -43.468  57.542 -53.696  1.00  0.00     0.082 A 
ENDROOT
BRANCH   5   6
HETATM    6  C   UNL     1     -44.147  58.220 -52.608  1.00  0.00     0.274 C 
HETATM    7  N   UNL     1     -43.776  59.544 -52.472  1.00  0.00    -0.263 N 
HETATM    8  H   UNL     1     -43.027  59.970 -53.015  1.00  0.00     0.190 HD
HETATM    9  O   UNL     1     -44.978  57.692 -51.876  1.00  0.00    -0.266 OA
BRANCH   7  10
HETATM   10  N   UNL     1     -44.300  60.309 -51.426  1.00  0.00    -0.262 N 
HETATM   11  C   UNL     1     -43.464  60.645 -50.382  1.00  0.00     0.286 C 
HETATM   12  O   UNL     1     -42.293  60.267 -50.349  1.00  0.00    -0.264 OA
HETATM   13  H   UNL     1     -45.256  60.637 -51.518  1.00  0.00     0.190 HD
BRANCH  11  14
HETATM   14  C   UNL     1     -44.047  61.466 -49.346  1.00  0.00     0.102 A 
HETATM   15  N   UNL     1     -44.547  60.906 -48.187  1.00  0.00    -0.361 N 
HETATM   16  H   UNL     1     -44.538  59.911 -47.995  1.00  0.00     0.165 HD
HETATM   17  C   UNL     1     -45.042  61.880 -47.362  1.00  0.00     0.088 A 
HETATM   18  C   UNL     1     -44.869  63.090 -47.991  1.00  0.00     0.019 A 
HETATM   19  C   UNL     1     -44.245  62.834 -49.237  1.00  0.00     0.036 A 
ENDBRANCH  11  14
ENDBRANCH   7  10
ENDBRANCH   5   6
BRANCH   1  20
HETATM   20  C   UNL     1     -41.929  55.661 -52.618  1.00  0.00    -0.004 A 
HETATM   21  C   UNL     1     -41.692  54.284 -52.799  1.00  0.00     0.016 A 
HETATM   22  C   UNL     1     -41.058  53.505 -51.822  1.00  0.00     0.037 A 
HETATM   23  C   UNL     1     -40.647  54.087 -50.627  1.00  0.00     0.068 A 
HETATM   24  C   UNL     1     -40.892  55.443 -50.422  1.00  0.00     0.037 A 
HETATM   25  C   UNL     1     -41.510  56.225 -51.409  1.00  0.00     0.016 A 
BRANCH  23  26
HETATM   26  O   UNL     1     -40.014  53.449 -49.597  1.00  0.00    -0.356 OA
HETATM   27  C   UNL     1     -40.347  53.881 -48.284  1.00  0.00     0.210 C 
ENDBRANCH  23  26
ENDBRANCH   1  20
BRANCH   3  28
HETATM   28  C   UNL     1     -42.693  57.000 -57.184  1.00  0.00     0.058 A 
HETATM   29  C   UNL     1     -43.071  55.854 -57.900  1.00  0.00     0.031 A 
HETATM   30  C   UNL     1     -42.907  55.802 -59.286  1.00  0.00     0.002 A 
HETATM   31  C   UNL     1     -42.366  56.891 -59.967  1.00  0.00     0.000 A 
HETATM   32  C   UNL     1     -41.991  58.034 -59.264  1.00  0.00     0.002 A 
HETATM   33  C   UNL     1     -42.152  58.094 -57.876  1.00  0.00     0.031 A 
ENDBRANCH   3  28
TORSDOF 6
ENDMDL
MODEL 9
REMARK VINA RESULT:      -7.7      2.623      6.741
REMARK  6 active torsions:
REMARK  status: ('A' for Active; 'I' for Inactive)
REMARK    1  A    between atoms: O_2  and  C_3 
REMARK    2  A    between atoms: C_6  and  C_7 
REMARK    3  A    between atoms: N_9  and  C_10 
REMARK    4  A    between atoms: C_17  and  C_18 
REMARK       I    between atoms: C_18  and  N_19 
REMARK    5  A    between atoms: N_19  and  N_20 
REMARK       I    between atoms: N_20  and  C_21 
REMARK    6  A    between atoms: C_21  and  C_22 
ROOT
HETATM    1  C   UNL     1     -42.503  56.929 -52.904  1.00  0.00     0.105 A 
HETATM    2  N   UNL     1     -42.116  55.755 -52.368  1.00  0.00    -0.166 NA
HETATM    3  N   UNL     1     -41.299  55.166 -53.261  1.00  0.00    -0.244 N 
HETATM    4  C   UNL     1     -41.146  55.945 -54.377  1.00  0.00     0.138 A 
HETATM    5  C   UNL     1     -41.908  57.089 -54.196  1.00  0.00     0.082 A 
ENDROOT
BRANCH   5   6
HETATM    6  C   UNL     1     -42.011  58.147 -55.184  1.00  0.00     0.274 C 
HETATM    7  N   UNL     1     -42.669  57.759 -56.334  1.00  0.00    -0.263 N 
HETATM    8  H   UNL     1     -42.960  56.798 -56.511  1.00  0.00     0.190 HD
HETATM    9  O   UNL     1     -41.573  59.282 -55.028  1.00  0.00    -0.266 OA
BRANCH   7  10
HETATM   10  N   UNL     1     -42.789  58.653 -57.402  1.00  0.00    -0.262 N 
HETATM   11  C   UNL     1     -42.715  58.152 -58.685  1.00  0.00     0.286 C 
HETATM   12  O   UNL     1     -42.523  56.954 -58.896  1.00  0.00    -0.264 OA
HETATM   13  H   UNL     1     -42.993  59.623 -57.181  1.00  0.00     0.190 HD
BRANCH  11  14
HETATM   14  C   UNL     1     -42.880  59.114 -59.749  1.00  0.00     0.102 A 
HETATM   15  N   UNL     1     -44.127  59.599 -60.086  1.00  0.00    -0.361 N 
HETATM   16  H   UNL     1     -44.983  59.320 -59.621  1.00  0.00     0.165 HD
HETATM   17  C   UNL     1     -44.027  60.495 -61.117  1.00  0.00     0.088 A 
HETATM   18  C   UNL     1     -42.701  60.591 -61.463  1.00  0.00     0.019 A 
HETATM   19  C   UNL     1     -41.977  59.724 -60.606  1.00  0.00     0.036 A 
ENDBRANCH  11  14
ENDBRANCH   7  10
ENDBRANCH   5   6
BRANCH   1  20
HETATM   20  C   UNL     1     -43.371  57.817 -52.099  1.00  0.00    -0.004 A 
HETATM   21  C   UNL     1     -42.875  59.062 -51.664  1.00  0.00     0.016 A 
HETATM   22  C   UNL     1     -43.667  59.966 -50.942  1.00  0.00     0.037 A 
HETATM   23  C   UNL     1     -44.983  59.642 -50.630  1.00  0.00     0.068 A 
HETATM   24  C   UNL     1     -45.484  58.406 -51.035  1.00  0.00     0.037 A 
HETATM   25  C   UNL     1     -44.695  57.511 -51.773  1.00  0.00     0.016 A 
BRANCH  23  26
HETATM   26  O   UNL     1     -45.864  60.428 -49.942  1.00  0.00    -0.356 OA
HETATM   27  C   UNL     1     -45.302  61.357 -49.024  1.00  0.00     0.210 C 
ENDBRANCH  23  26
ENDBRANCH   1  20
BRANCH   3  28
HETATM   28  C   UNL     1     -40.701  53.904 -52.987  1.00  0.00     0.058 A 
HETATM   29  C   UNL     1     -40.446  53.537 -51.657  1.00  0.00     0.031 A 
HETATM   30  C   UNL     1     -39.850  52.308 -51.366  1.00  0.00     0.002 A 
HETATM   31  C   UNL     1     -39.506  51.437 -52.397  1.00  0.00     0.000 A 
HETATM   32  C   UNL     1     -39.757  51.793 -53.721  1.00  0.00     0.002 A 
HETATM   33  C   UNL     1     -40.354  53.021 -54.020  1.00  0.00     0.031 A 
ENDBRANCH   3  28
TORSDOF 6
ENDMDL
MODEL 10
REMARK VINA RESULT:      -7.6      4.157      7.120
REMARK  6 active torsions:
REMARK  status: ('A' for Active; 'I' for Inactive)
REMARK    1  A    between atoms: O_2  and  C_3 
REMARK    2  A    between atoms: C_6  and  C_7 
REMARK    3  A    between atoms: N_9  and  C_10 
REMARK    4  A    between atoms: C_17  and  C_18 
REMARK       I    between atoms: C_18  and  N_19 
REMARK    5  A    between atoms: N_19  and  N_20 
REMARK       I    between atoms: N_20  and  C_21 
REMARK    6  A    between atoms: C_21  and  C_22 
ROOT
HETATM    1  C   UNL     1     -42.480  57.162 -56.905  1.00  0.00     0.105 A 
HETATM    2  N   UNL     1     -41.908  56.679 -55.784  1.00  0.00    -0.166 NA
HETATM    3  N   UNL     1     -42.153  55.355 -55.759  1.00  0.00    -0.244 N 
HETATM    4  C   UNL     1     -42.877  54.967 -56.854  1.00  0.00     0.138 A 
HETATM    5  C   UNL     1     -43.117  56.098 -57.619  1.00  0.00     0.082 A 
ENDROOT
BRANCH   5   6
HETATM    6  C   UNL     1     -43.878  56.082 -58.854  1.00  0.00     0.274 C 
HETATM    7  N   UNL     1     -45.125  56.664 -58.736  1.00  0.00    -0.263 N 
HETATM    8  H   UNL     1     -45.510  56.979 -57.847  1.00  0.00     0.190 HD
HETATM    9  O   UNL     1     -43.469  55.613 -59.911  1.00  0.00    -0.266 OA
BRANCH   7  10
HETATM   10  N   UNL     1     -45.998  56.666 -59.828  1.00  0.00    -0.262 N 
HETATM   11  C   UNL     1     -46.747  57.799 -60.063  1.00  0.00     0.286 C 
HETATM   12  O   UNL     1     -46.676  58.782 -59.324  1.00  0.00    -0.264 OA
HETATM   13  H   UNL     1     -45.989  55.852 -60.436  1.00  0.00     0.190 HD
BRANCH  11  14
HETATM   14  C   UNL     1     -47.606  57.759 -61.224  1.00  0.00     0.102 A 
HETATM   15  N   UNL     1     -47.686  56.631 -62.015  1.00  0.00    -0.361 N 
HETATM   16  H   UNL     1     -47.162  55.782 -61.837  1.00  0.00     0.165 HD
HETATM   17  C   UNL     1     -48.562  56.834 -63.047  1.00  0.00     0.088 A 
HETATM   18  C   UNL     1     -49.056  58.111 -62.933  1.00  0.00     0.019 A 
HETATM   19  C   UNL     1     -48.457  58.696 -61.790  1.00  0.00     0.036 A 
ENDBRANCH  11  14
ENDBRANCH   7  10
ENDBRANCH   5   6
BRANCH   1  20
HETATM   20  C   UNL     1     -42.314  58.599 -57.214  1.00  0.00    -0.004 A 
HETATM   21  C   UNL     1     -42.422  59.548 -56.178  1.00  0.00     0.016 A 
HETATM   22  C   UNL     1     -42.224  60.918 -56.401  1.00  0.00     0.037 A 
HETATM   23  C   UNL     1     -41.917  61.377 -57.677  1.00  0.00     0.068 A 
HETATM   24  C   UNL     1     -41.826  60.456 -58.718  1.00  0.00     0.037 A 
HETATM   25  C   UNL     1     -42.006  59.083 -58.489  1.00  0.00     0.016 A 
BRANCH  23  26
HETATM   26  O   UNL     1     -41.693  62.678 -58.032  1.00  0.00    -0.356 OA
HETATM   27  C   UNL     1     -40.427  62.967 -58.611  1.00  0.00     0.210 C 
ENDBRANCH  23  26
ENDBRANCH   1  20
BRANCH   3  28
HETATM   28  C   UNL     1     -41.664  54.540 -54.699  1.00  0.00     0.058 A 
HETATM   29  C   UNL     1     -42.255  54.633 -53.430  1.00  0.00     0.031 A 
HETATM   30  C   UNL     1     -41.783  53.850 -52.373  1.00  0.00     0.002 A 
HETATM   31  C   UNL     1     -40.721  52.971 -52.575  1.00  0.00     0.000 A 
HETATM   32  C   UNL     1     -40.130  52.871 -53.833  1.00  0.00     0.002 A 
HETATM   33  C   UNL     1     -40.597  53.651 -54.896  1.00  0.00     0.031 A 
ENDBRANCH   3  28
TORSDOF 6
ENDMDL
