MODEL 1
REMARK VINA RESULT:      -7.9      0.000      0.000
REMARK  6 active torsions:
REMARK  status: ('A' for Active; 'I' for Inactive)
REMARK    1  A    between atoms: C_2  and  N_3 
REMARK    2  A    between atoms: C_2  and  C_17 
REMARK       I    between atoms: N_3  and  C_4 
REMARK    3  A    between atoms: C_4  and  C_5 
REMARK    4  A    between atoms: C_6  and  O_7 
REMARK    5  A    between atoms: O_7  and  C_8 
REMARK    6  A    between atoms: C_8  and  C_9 
ROOT
HETATM    1  N   UNL     1     -41.757  54.029 -53.702  1.00  0.00    -0.346 N 
HETATM    2  C   UNL     1     -40.637  53.414 -54.213  1.00  0.00     0.256 C 
HETATM    3  O   UNL     1     -40.002  53.862 -55.160  1.00  0.00    -0.267 OA
HETATM    4  H   UNL     1     -42.270  53.634 -52.922  1.00  0.00     0.163 HD
ENDROOT
BRANCH   1   5
HETATM    5  C   UNL     1     -42.323  55.211 -54.322  1.00  0.00     0.150 C 
HETATM    6  C   UNL     1     -43.815  55.028 -54.582  1.00  0.00     0.040 C 
BRANCH   5   7
HETATM    7  C   UNL     1     -42.066  56.356 -53.392  1.00  0.00     0.127 A 
HETATM    8  N   UNL     1     -42.481  57.602 -53.526  1.00  0.00    -0.231 NA
HETATM    9  C   UNL     1     -42.001  58.270 -52.425  1.00  0.00     0.085 A 
HETATM   10  C   UNL     1     -41.310  57.407 -51.581  1.00  0.00     0.062 A 
HETATM   11  C   UNL     1     -42.119  59.622 -52.073  1.00  0.00     0.034 A 
HETATM   12  N   UNL     1     -41.373  56.194 -52.215  1.00  0.00    -0.341 N 
HETATM   13  C   UNL     1     -40.727  57.811 -50.379  1.00  0.00     0.032 A 
HETATM   14  H   UNL     1     -40.983  55.326 -51.876  1.00  0.00     0.167 HD
HETATM   15  C   UNL     1     -40.855  59.164 -50.044  1.00  0.00     0.002 A 
HETATM   16  C   UNL     1     -41.536  60.057 -50.875  1.00  0.00     0.002 A 
ENDBRANCH   5   7
ENDBRANCH   1   5
BRANCH   2  17
HETATM   17  C   UNL     1     -40.242  52.148 -53.559  1.00  0.00     0.084 A 
HETATM   18  C   UNL     1     -39.855  52.116 -52.222  1.00  0.00     0.180 A 
HETATM   19  N   UNL     1     -39.471  50.979 -51.589  1.00  0.00    -0.236 NA
HETATM   20  C   UNL     1     -39.445  49.844 -52.321  1.00  0.00     0.119 A 
HETATM   21  C   UNL     1     -39.798  49.782 -53.659  1.00  0.00     0.020 A 
HETATM   22  C   UNL     1     -40.203  50.955 -54.288  1.00  0.00     0.023 A 
BRANCH  18  23
HETATM   23  O   UNL     1     -39.948  53.271 -51.475  1.00  0.00    -0.328 OA
BRANCH  23  24
HETATM   24  C   UNL     1     -40.758  53.130 -50.300  1.00  0.00     0.248 C 
BRANCH  24  25
HETATM   25  C   UNL     1     -40.193  54.013 -49.202  1.00  0.00     0.377 C 
HETATM   26  F   UNL     1     -39.174  54.764 -49.696  1.00  0.00    -0.212 F 
HETATM   27  F   UNL     1     -41.138  54.890 -48.773  1.00  0.00    -0.212 F 
ENDBRANCH  24  25
ENDBRANCH  23  24
ENDBRANCH  18  23
ENDBRANCH   2  17
TORSDOF 6
ENDMDL
MODEL 2
REMARK VINA RESULT:      -7.5      2.473      7.035
REMARK  6 active torsions:
REMARK  status: ('A' for Active; 'I' for Inactive)
REMARK    1  A    between atoms: C_2  and  N_3 
REMARK    2  A    between atoms: C_2  and  C_17 
REMARK       I    between atoms: N_3  and  C_4 
REMARK    3  A    between atoms: C_4  and  C_5 
REMARK    4  A    between atoms: C_6  and  O_7 
REMARK    5  A    between atoms: O_7  and  C_8 
REMARK    6  A    between atoms: C_8  and  C_9 
ROOT
HETATM    1  N   UNL     1     -41.610  55.554 -50.952  1.00  0.00    -0.346 N 
HETATM    2  C   UNL     1     -41.513  56.879 -51.312  1.00  0.00     0.256 C 
HETATM    3  O   UNL     1     -40.520  57.561 -51.089  1.00  0.00    -0.267 OA
HETATM    4  H   UNL     1     -42.444  55.012 -51.141  1.00  0.00     0.163 HD
ENDROOT
BRANCH   1   5
HETATM    5  C   UNL     1     -40.567  54.897 -50.189  1.00  0.00     0.150 C 
HETATM    6  C   UNL     1     -40.990  54.714 -48.735  1.00  0.00     0.040 C 
BRANCH   5   7
HETATM    7  C   UNL     1     -40.304  53.581 -50.851  1.00  0.00     0.127 A 
HETATM    8  N   UNL     1     -40.116  52.414 -50.264  1.00  0.00    -0.231 NA
HETATM    9  C   UNL     1     -39.921  51.515 -51.284  1.00  0.00     0.085 A 
HETATM   10  C   UNL     1     -40.027  52.137 -52.523  1.00  0.00     0.062 A 
HETATM   11  C   UNL     1     -39.648  50.141 -51.230  1.00  0.00     0.034 A 
HETATM   12  N   UNL     1     -40.279  53.450 -52.220  1.00  0.00    -0.341 N 
HETATM   13  C   UNL     1     -39.888  51.462 -53.737  1.00  0.00     0.032 A 
HETATM   14  H   UNL     1     -40.427  54.194 -52.886  1.00  0.00     0.167 HD
HETATM   15  C   UNL     1     -39.619  50.090 -53.664  1.00  0.00     0.002 A 
HETATM   16  C   UNL     1     -39.497  49.439 -52.434  1.00  0.00     0.002 A 
ENDBRANCH   5   7
ENDBRANCH   1   5
BRANCH   2  17
HETATM   17  C   UNL     1     -42.702  57.453 -51.978  1.00  0.00     0.084 A 
HETATM   18  C   UNL     1     -43.186  56.926 -53.172  1.00  0.00     0.180 A 
HETATM   19  N   UNL     1     -44.264  57.433 -53.823  1.00  0.00    -0.236 NA
HETATM   20  C   UNL     1     -44.858  58.518 -53.280  1.00  0.00     0.119 A 
HETATM   21  C   UNL     1     -44.438  59.119 -52.105  1.00  0.00     0.020 A 
HETATM   22  C   UNL     1     -43.341  58.577 -51.443  1.00  0.00     0.023 A 
BRANCH  18  23
HETATM   23  O   UNL     1     -42.606  55.782 -53.678  1.00  0.00    -0.328 OA
BRANCH  23  24
HETATM   24  C   UNL     1     -41.877  55.999 -54.893  1.00  0.00     0.248 C 
BRANCH  24  25
HETATM   25  C   UNL     1     -41.514  54.654 -55.498  1.00  0.00     0.377 C 
HETATM   26  F   UNL     1     -40.189  54.412 -55.318  1.00  0.00    -0.212 F 
HETATM   27  F   UNL     1     -42.174  53.657 -54.853  1.00  0.00    -0.212 F 
ENDBRANCH  24  25
ENDBRANCH  23  24
ENDBRANCH  18  23
ENDBRANCH   2  17
TORSDOF 6
ENDMDL
MODEL 3
REMARK VINA RESULT:      -7.3      2.952      4.673
REMARK  6 active torsions:
REMARK  status: ('A' for Active; 'I' for Inactive)
REMARK    1  A    between atoms: C_2  and  N_3 
REMARK    2  A    between atoms: C_2  and  C_17 
REMARK       I    between atoms: N_3  and  C_4 
REMARK    3  A    between atoms: C_4  and  C_5 
REMARK    4  A    between atoms: C_6  and  O_7 
REMARK    5  A    between atoms: O_7  and  C_8 
REMARK    6  A    between atoms: C_8  and  C_9 
ROOT
HETATM    1  N   UNL     1     -41.500  55.646 -54.158  1.00  0.00    -0.346 N 
HETATM    2  C   UNL     1     -42.098  54.490 -53.710  1.00  0.00     0.256 C 
HETATM    3  O   UNL     1     -43.311  54.369 -53.587  1.00  0.00    -0.267 OA
HETATM    4  H   UNL     1     -40.494  55.724 -54.245  1.00  0.00     0.163 HD
ENDROOT
BRANCH   1   5
HETATM    5  C   UNL     1     -42.272  56.844 -54.423  1.00  0.00     0.150 C 
HETATM    6  C   UNL     1     -41.515  58.089 -53.971  1.00  0.00     0.040 C 
BRANCH   5   7
HETATM    7  C   UNL     1     -42.540  56.873 -55.895  1.00  0.00     0.127 A 
HETATM    8  N   UNL     1     -42.211  57.823 -56.750  1.00  0.00    -0.231 NA
HETATM    9  C   UNL     1     -42.663  57.392 -57.973  1.00  0.00     0.085 A 
HETATM   10  C   UNL     1     -43.250  56.136 -57.873  1.00  0.00     0.062 A 
HETATM   11  C   UNL     1     -42.607  58.023 -59.224  1.00  0.00     0.034 A 
HETATM   12  N   UNL     1     -43.151  55.824 -56.542  1.00  0.00    -0.341 N 
HETATM   13  C   UNL     1     -43.784  55.448 -58.964  1.00  0.00     0.032 A 
HETATM   14  H   UNL     1     -43.468  54.969 -56.108  1.00  0.00     0.167 HD
HETATM   15  C   UNL     1     -43.717  56.091 -60.205  1.00  0.00     0.002 A 
HETATM   16  C   UNL     1     -43.142  57.358 -60.336  1.00  0.00     0.002 A 
ENDBRANCH   5   7
ENDBRANCH   1   5
BRANCH   2  17
HETATM   17  C   UNL     1     -41.180  53.385 -53.360  1.00  0.00     0.084 A 
HETATM   18  C   UNL     1     -40.470  53.387 -52.162  1.00  0.00     0.180 A 
HETATM   19  N   UNL     1     -39.606  52.401 -51.811  1.00  0.00    -0.236 NA
HETATM   20  C   UNL     1     -39.423  51.396 -52.696  1.00  0.00     0.119 A 
HETATM   21  C   UNL     1     -40.074  51.317 -53.917  1.00  0.00     0.020 A 
HETATM   22  C   UNL     1     -40.967  52.329 -54.254  1.00  0.00     0.023 A 
BRANCH  18  23
HETATM   23  O   UNL     1     -40.716  54.387 -51.246  1.00  0.00    -0.328 OA
BRANCH  23  24
HETATM   24  C   UNL     1     -41.326  53.918 -50.037  1.00  0.00     0.248 C 
BRANCH  24  25
HETATM   25  C   UNL     1     -40.484  54.362 -48.853  1.00  0.00     0.377 C 
HETATM   26  F   UNL     1     -40.641  53.487 -47.826  1.00  0.00    -0.212 F 
HETATM   27  F   UNL     1     -39.166  54.334 -49.180  1.00  0.00    -0.212 F 
ENDBRANCH  24  25
ENDBRANCH  23  24
ENDBRANCH  18  23
ENDBRANCH   2  17
TORSDOF 6
ENDMDL
MODEL 4
REMARK VINA RESULT:      -7.3      1.813      2.196
REMARK  6 active torsions:
REMARK  status: ('A' for Active; 'I' for Inactive)
REMARK    1  A    between atoms: C_2  and  N_3 
REMARK    2  A    between atoms: C_2  and  C_17 
REMARK       I    between atoms: N_3  and  C_4 
REMARK    3  A    between atoms: C_4  and  C_5 
REMARK    4  A    between atoms: C_6  and  O_7 
REMARK    5  A    between atoms: O_7  and  C_8 
REMARK    6  A    between atoms: C_8  and  C_9 
ROOT
HETATM    1  N   UNL     1     -41.735  54.071 -54.216  1.00  0.00    -0.346 N 
HETATM    2  C   UNL     1     -40.507  53.498 -54.454  1.00  0.00     0.256 C 
HETATM    3  O   UNL     1     -39.708  53.944 -55.268  1.00  0.00    -0.267 OA
HETATM    4  H   UNL     1     -42.382  53.679 -53.541  1.00  0.00     0.163 HD
ENDROOT
BRANCH   1   5
HETATM    5  C   UNL     1     -42.209  55.198 -54.994  1.00  0.00     0.150 C 
HETATM    6  C   UNL     1     -43.069  54.729 -56.164  1.00  0.00     0.040 C 
BRANCH   5   7
HETATM    7  C   UNL     1     -42.987  56.075 -54.063  1.00  0.00     0.127 A 
HETATM    8  N   UNL     1     -43.213  55.874 -52.777  1.00  0.00    -0.231 NA
HETATM    9  C   UNL     1     -43.961  56.948 -52.363  1.00  0.00     0.085 A 
HETATM   10  C   UNL     1     -44.167  57.845 -53.406  1.00  0.00     0.062 A 
HETATM   11  C   UNL     1     -44.503  57.232 -51.101  1.00  0.00     0.034 A 
HETATM   12  N   UNL     1     -43.530  57.270 -54.474  1.00  0.00    -0.341 N 
HETATM   13  C   UNL     1     -44.884  59.035 -53.267  1.00  0.00     0.032 A 
HETATM   14  H   UNL     1     -43.465  57.657 -55.405  1.00  0.00     0.167 HD
HETATM   15  C   UNL     1     -45.416  59.302 -52.000  1.00  0.00     0.002 A 
HETATM   16  C   UNL     1     -45.234  58.417 -50.935  1.00  0.00     0.002 A 
ENDBRANCH   5   7
ENDBRANCH   1   5
BRANCH   2  17
HETATM   17  C   UNL     1     -40.203  52.279 -53.673  1.00  0.00     0.084 A 
HETATM   18  C   UNL     1     -39.942  52.343 -52.307  1.00  0.00     0.180 A 
HETATM   19  N   UNL     1     -39.643  51.251 -51.558  1.00  0.00    -0.236 NA
HETATM   20  C   UNL     1     -39.576  50.063 -52.198  1.00  0.00     0.119 A 
HETATM   21  C   UNL     1     -39.805  49.906 -53.556  1.00  0.00     0.020 A 
HETATM   22  C   UNL     1     -40.124  51.034 -54.305  1.00  0.00     0.023 A 
BRANCH  18  23
HETATM   23  O   UNL     1     -40.077  53.552 -51.660  1.00  0.00    -0.328 OA
BRANCH  23  24
HETATM   24  C   UNL     1     -41.084  53.547 -50.640  1.00  0.00     0.248 C 
BRANCH  24  25
HETATM   25  C   UNL     1     -40.613  54.401 -49.476  1.00  0.00     0.377 C 
HETATM   26  F   UNL     1     -39.285  54.656 -49.602  1.00  0.00    -0.212 F 
HETATM   27  F   UNL     1     -41.236  55.609 -49.499  1.00  0.00    -0.212 F 
ENDBRANCH  24  25
ENDBRANCH  23  24
ENDBRANCH  18  23
ENDBRANCH   2  17
TORSDOF 6
ENDMDL
MODEL 5
REMARK VINA RESULT:      -6.8      3.357      5.077
REMARK  6 active torsions:
REMARK  status: ('A' for Active; 'I' for Inactive)
REMARK    1  A    between atoms: C_2  and  N_3 
REMARK    2  A    between atoms: C_2  and  C_17 
REMARK       I    between atoms: N_3  and  C_4 
REMARK    3  A    between atoms: C_4  and  C_5 
REMARK    4  A    between atoms: C_6  and  O_7 
REMARK    5  A    between atoms: O_7  and  C_8 
REMARK    6  A    between atoms: C_8  and  C_9 
ROOT
HETATM    1  N   UNL     1     -42.573  56.419 -53.644  1.00  0.00    -0.346 N 
HETATM    2  C   UNL     1     -42.780  55.068 -53.482  1.00  0.00     0.256 C 
HETATM    3  O   UNL     1     -43.749  54.480 -53.948  1.00  0.00    -0.267 OA
HETATM    4  H   UNL     1     -41.767  56.884 -53.243  1.00  0.00     0.163 HD
ENDROOT
BRANCH   1   5
HETATM    5  C   UNL     1     -43.551  57.263 -54.302  1.00  0.00     0.150 C 
HETATM    6  C   UNL     1     -43.541  58.670 -53.711  1.00  0.00     0.040 C 
BRANCH   5   7
HETATM    7  C   UNL     1     -43.205  57.279 -55.758  1.00  0.00     0.127 A 
HETATM    8  N   UNL     1     -42.498  58.190 -56.401  1.00  0.00    -0.231 NA
HETATM    9  C   UNL     1     -42.449  57.764 -57.706  1.00  0.00     0.085 A 
HETATM   10  C   UNL     1     -43.108  56.549 -57.858  1.00  0.00     0.062 A 
HETATM   11  C   UNL     1     -41.855  58.365 -58.825  1.00  0.00     0.034 A 
HETATM   12  N   UNL     1     -43.572  56.258 -56.602  1.00  0.00    -0.341 N 
HETATM   13  C   UNL     1     -43.204  55.874 -59.077  1.00  0.00     0.032 A 
HETATM   14  H   UNL     1     -44.092  55.433 -56.338  1.00  0.00     0.167 HD
HETATM   15  C   UNL     1     -42.602  56.488 -60.182  1.00  0.00     0.002 A 
HETATM   16  C   UNL     1     -41.942  57.712 -60.063  1.00  0.00     0.002 A 
ENDBRANCH   5   7
ENDBRANCH   1   5
BRANCH   2  17
HETATM   17  C   UNL     1     -41.762  54.352 -52.685  1.00  0.00     0.084 A 
HETATM   18  C   UNL     1     -41.356  54.825 -51.439  1.00  0.00     0.180 A 
HETATM   19  N   UNL     1     -40.413  54.206 -50.683  1.00  0.00    -0.236 NA
HETATM   20  C   UNL     1     -39.838  53.098 -51.200  1.00  0.00     0.119 A 
HETATM   21  C   UNL     1     -40.166  52.564 -52.435  1.00  0.00     0.020 A 
HETATM   22  C   UNL     1     -41.145  53.202 -53.190  1.00  0.00     0.023 A 
BRANCH  18  23
HETATM   23  O   UNL     1     -41.998  55.920 -50.902  1.00  0.00    -0.328 OA
BRANCH  23  24
HETATM   24  C   UNL     1     -41.126  56.797 -50.179  1.00  0.00     0.248 C 
BRANCH  24  25
HETATM   25  C   UNL     1     -41.139  58.164 -50.842  1.00  0.00     0.377 C 
HETATM   26  F   UNL     1     -40.483  59.060 -50.058  1.00  0.00    -0.212 F 
HETATM   27  F   UNL     1     -40.460  58.120 -52.018  1.00  0.00    -0.212 F 
ENDBRANCH  24  25
ENDBRANCH  23  24
ENDBRANCH  18  23
ENDBRANCH   2  17
TORSDOF 6
ENDMDL
MODEL 6
REMARK VINA RESULT:      -6.7     14.874     16.231
REMARK  6 active torsions:
REMARK  status: ('A' for Active; 'I' for Inactive)
REMARK    1  A    between atoms: C_2  and  N_3 
REMARK    2  A    between atoms: C_2  and  C_17 
REMARK       I    between atoms: N_3  and  C_4 
REMARK    3  A    between atoms: C_4  and  C_5 
REMARK    4  A    between atoms: C_6  and  O_7 
REMARK    5  A    between atoms: O_7  and  C_8 
REMARK    6  A    between atoms: C_8  and  C_9 
ROOT
HETATM    1  N   UNL     1     -34.589  40.617 -54.199  1.00  0.00    -0.346 N 
HETATM    2  C   UNL     1     -35.480  41.378 -53.476  1.00  0.00     0.256 C 
HETATM    3  O   UNL     1     -35.775  42.528 -53.777  1.00  0.00    -0.267 OA
HETATM    4  H   UNL     1     -34.356  39.670 -53.926  1.00  0.00     0.163 HD
ENDROOT
BRANCH   1   5
HETATM    5  C   UNL     1     -33.858  41.169 -55.323  1.00  0.00     0.150 C 
HETATM    6  C   UNL     1     -32.533  40.439 -55.521  1.00  0.00     0.040 C 
BRANCH   5   7
HETATM    7  C   UNL     1     -34.741  41.036 -56.525  1.00  0.00     0.127 A 
HETATM    8  N   UNL     1     -35.021  39.932 -57.192  1.00  0.00    -0.231 NA
HETATM    9  C   UNL     1     -35.870  40.317 -58.201  1.00  0.00     0.085 A 
HETATM   10  C   UNL     1     -36.146  41.678 -58.128  1.00  0.00     0.062 A 
HETATM   11  C   UNL     1     -36.455  39.555 -59.223  1.00  0.00     0.034 A 
HETATM   12  N   UNL     1     -35.421  42.111 -57.048  1.00  0.00    -0.341 N 
HETATM   13  C   UNL     1     -36.993  42.340 -59.019  1.00  0.00     0.032 A 
HETATM   14  H   UNL     1     -35.394  43.055 -56.692  1.00  0.00     0.167 HD
HETATM   15  C   UNL     1     -37.568  41.563 -60.031  1.00  0.00     0.002 A 
HETATM   16  C   UNL     1     -37.304  40.196 -60.136  1.00  0.00     0.002 A 
ENDBRANCH   5   7
ENDBRANCH   1   5
BRANCH   2  17
HETATM   17  C   UNL     1     -36.060  40.727 -52.282  1.00  0.00     0.084 A 
HETATM   18  C   UNL     1     -35.340  40.624 -51.094  1.00  0.00     0.180 A 
HETATM   19  N   UNL     1     -35.830  40.021 -49.981  1.00  0.00    -0.236 NA
HETATM   20  C   UNL     1     -37.065  39.479 -50.066  1.00  0.00     0.119 A 
HETATM   21  C   UNL     1     -37.847  39.519 -51.208  1.00  0.00     0.020 A 
HETATM   22  C   UNL     1     -37.335  40.154 -52.335  1.00  0.00     0.023 A 
BRANCH  18  23
HETATM   23  O   UNL     1     -34.109  41.237 -51.008  1.00  0.00    -0.328 OA
BRANCH  23  24
HETATM   24  C   UNL     1     -33.113  40.433 -50.364  1.00  0.00     0.248 C 
BRANCH  24  25
HETATM   25  C   UNL     1     -32.006  40.128 -51.359  1.00  0.00     0.377 C 
HETATM   26  F   UNL     1     -32.444  39.216 -52.267  1.00  0.00    -0.212 F 
HETATM   27  F   UNL     1     -31.688  41.245 -52.064  1.00  0.00    -0.212 F 
ENDBRANCH  24  25
ENDBRANCH  23  24
ENDBRANCH  18  23
ENDBRANCH   2  17
TORSDOF 6
ENDMDL
MODEL 7
REMARK VINA RESULT:      -6.6      2.925      7.013
REMARK  6 active torsions:
REMARK  status: ('A' for Active; 'I' for Inactive)
REMARK    1  A    between atoms: C_2  and  N_3 
REMARK    2  A    between atoms: C_2  and  C_17 
REMARK       I    between atoms: N_3  and  C_4 
REMARK    3  A    between atoms: C_4  and  C_5 
REMARK    4  A    between atoms: C_6  and  O_7 
REMARK    5  A    between atoms: O_7  and  C_8 
REMARK    6  A    between atoms: C_8  and  C_9 
ROOT
HETATM    1  N   UNL     1     -43.511  57.321 -52.714  1.00  0.00    -0.346 N 
HETATM    2  C   UNL     1     -44.178  57.844 -51.630  1.00  0.00     0.256 C 
HETATM    3  O   UNL     1     -45.104  57.267 -51.072  1.00  0.00    -0.267 OA
HETATM    4  H   UNL     1     -42.753  57.821 -53.162  1.00  0.00     0.163 HD
ENDROOT
BRANCH   1   5
HETATM    5  C   UNL     1     -43.930  56.080 -53.336  1.00  0.00     0.150 C 
HETATM    6  C   UNL     1     -44.142  56.268 -54.835  1.00  0.00     0.040 C 
BRANCH   5   7
HETATM    7  C   UNL     1     -42.862  55.070 -53.057  1.00  0.00     0.127 A 
HETATM    8  N   UNL     1     -42.275  54.826 -51.900  1.00  0.00    -0.231 NA
HETATM    9  C   UNL     1     -41.376  53.817 -52.148  1.00  0.00     0.085 A 
HETATM   10  C   UNL     1     -41.440  53.410 -53.476  1.00  0.00     0.062 A 
HETATM   11  C   UNL     1     -40.467  53.191 -51.283  1.00  0.00     0.034 A 
HETATM   12  N   UNL     1     -42.398  54.217 -54.031  1.00  0.00    -0.341 N 
HETATM   13  C   UNL     1     -40.647  52.389 -54.005  1.00  0.00     0.032 A 
HETATM   14  H   UNL     1     -42.716  54.188 -54.989  1.00  0.00     0.167 HD
HETATM   15  C   UNL     1     -39.747  51.774 -53.127  1.00  0.00     0.002 A 
HETATM   16  C   UNL     1     -39.654  52.168 -51.790  1.00  0.00     0.002 A 
ENDBRANCH   5   7
ENDBRANCH   1   5
BRANCH   2  17
HETATM   17  C   UNL     1     -43.723  59.175 -51.175  1.00  0.00     0.084 A 
HETATM   18  C   UNL     1     -42.386  59.416 -50.870  1.00  0.00     0.180 A 
HETATM   19  N   UNL     1     -41.930  60.618 -50.434  1.00  0.00    -0.236 NA
HETATM   20  C   UNL     1     -42.842  61.602 -50.271  1.00  0.00     0.119 A 
HETATM   21  C   UNL     1     -44.194  61.450 -50.535  1.00  0.00     0.020 A 
HETATM   22  C   UNL     1     -44.641  60.216 -50.995  1.00  0.00     0.023 A 
BRANCH  18  23
HETATM   23  O   UNL     1     -41.461  58.421 -51.101  1.00  0.00    -0.328 OA
BRANCH  23  24
HETATM   24  C   UNL     1     -40.192  58.911 -51.550  1.00  0.00     0.248 C 
BRANCH  24  25
HETATM   25  C   UNL     1     -40.101  58.742 -53.057  1.00  0.00     0.377 C 
HETATM   26  F   UNL     1     -40.502  57.490 -53.402  1.00  0.00    -0.212 F 
HETATM   27  F   UNL     1     -40.953  59.599 -53.677  1.00  0.00    -0.212 F 
ENDBRANCH  24  25
ENDBRANCH  23  24
ENDBRANCH  18  23
ENDBRANCH   2  17
TORSDOF 6
ENDMDL
MODEL 8
REMARK VINA RESULT:      -6.5      5.278      8.143
REMARK  6 active torsions:
REMARK  status: ('A' for Active; 'I' for Inactive)
REMARK    1  A    between atoms: C_2  and  N_3 
REMARK    2  A    between atoms: C_2  and  C_17 
REMARK       I    between atoms: N_3  and  C_4 
REMARK    3  A    between atoms: C_4  and  C_5 
REMARK    4  A    between atoms: C_6  and  O_7 
REMARK    5  A    between atoms: O_7  and  C_8 
REMARK    6  A    between atoms: C_8  and  C_9 
ROOT
HETATM    1  N   UNL     1     -43.199  58.257 -56.525  1.00  0.00    -0.346 N 
HETATM    2  C   UNL     1     -42.298  59.236 -56.879  1.00  0.00     0.256 C 
HETATM    3  O   UNL     1     -41.607  59.834 -56.063  1.00  0.00    -0.267 OA
HETATM    4  H   UNL     1     -43.765  57.781 -57.218  1.00  0.00     0.163 HD
ENDROOT
BRANCH   1   5
HETATM    5  C   UNL     1     -43.461  57.934 -55.137  1.00  0.00     0.150 C 
HETATM    6  C   UNL     1     -44.955  57.737 -54.897  1.00  0.00     0.040 C 
BRANCH   5   7
HETATM    7  C   UNL     1     -42.689  56.690 -54.825  1.00  0.00     0.127 A 
HETATM    8  N   UNL     1     -41.761  56.117 -55.569  1.00  0.00    -0.231 NA
HETATM    9  C   UNL     1     -41.348  55.016 -54.860  1.00  0.00     0.085 A 
HETATM   10  C   UNL     1     -42.009  54.932 -53.640  1.00  0.00     0.062 A 
HETATM   11  C   UNL     1     -40.403  54.035 -55.195  1.00  0.00     0.034 A 
HETATM   12  N   UNL     1     -42.851  56.014 -53.638  1.00  0.00    -0.341 N 
HETATM   13  C   UNL     1     -41.776  53.920 -52.707  1.00  0.00     0.032 A 
HETATM   14  H   UNL     1     -43.480  56.275 -52.893  1.00  0.00     0.167 HD
HETATM   15  C   UNL     1     -40.828  52.951 -53.057  1.00  0.00     0.002 A 
HETATM   16  C   UNL     1     -40.155  53.003 -54.280  1.00  0.00     0.002 A 
ENDBRANCH   5   7
ENDBRANCH   1   5
BRANCH   2  17
HETATM   17  C   UNL     1     -42.221  59.548 -58.322  1.00  0.00     0.084 A 
HETATM   18  C   UNL     1     -42.040  58.544 -59.270  1.00  0.00     0.180 A 
HETATM   19  N   UNL     1     -41.948  58.791 -60.602  1.00  0.00    -0.236 NA
HETATM   20  C   UNL     1     -42.010  60.082 -60.996  1.00  0.00     0.119 A 
HETATM   21  C   UNL     1     -42.174  61.146 -60.125  1.00  0.00     0.020 A 
HETATM   22  C   UNL     1     -42.281  60.874 -58.765  1.00  0.00     0.023 A 
BRANCH  18  23
HETATM   23  O   UNL     1     -42.042  57.230 -58.855  1.00  0.00    -0.328 OA
BRANCH  23  24
HETATM   24  C   UNL     1     -42.632  56.331 -59.803  1.00  0.00     0.248 C 
BRANCH  24  25
HETATM   25  C   UNL     1     -43.845  55.672 -59.170  1.00  0.00     0.377 C 
HETATM   26  F   UNL     1     -43.482  55.060 -58.012  1.00  0.00    -0.212 F 
HETATM   27  F   UNL     1     -44.766  56.612 -58.831  1.00  0.00    -0.212 F 
ENDBRANCH  24  25
ENDBRANCH  23  24
ENDBRANCH  18  23
ENDBRANCH   2  17
TORSDOF 6
ENDMDL
MODEL 9
REMARK VINA RESULT:      -6.4      5.478      8.196
REMARK  6 active torsions:
REMARK  status: ('A' for Active; 'I' for Inactive)
REMARK    1  A    between atoms: C_2  and  N_3 
REMARK    2  A    between atoms: C_2  and  C_17 
REMARK       I    between atoms: N_3  and  C_4 
REMARK    3  A    between atoms: C_4  and  C_5 
REMARK    4  A    between atoms: C_6  and  O_7 
REMARK    5  A    between atoms: O_7  and  C_8 
REMARK    6  A    between atoms: C_8  and  C_9 
ROOT
HETATM    1  N   UNL     1     -43.633  56.450 -56.460  1.00  0.00    -0.346 N 
HETATM    2  C   UNL     1     -43.239  56.830 -57.723  1.00  0.00     0.256 C 
HETATM    3  O   UNL     1     -42.240  57.507 -57.936  1.00  0.00    -0.267 OA
HETATM    4  H   UNL     1     -44.467  55.896 -56.308  1.00  0.00     0.163 HD
ENDROOT
BRANCH   1   5
HETATM    5  C   UNL     1     -42.936  56.915 -55.277  1.00  0.00     0.150 C 
HETATM    6  C   UNL     1     -43.915  57.497 -54.262  1.00  0.00     0.040 C 
BRANCH   5   7
HETATM    7  C   UNL     1     -42.201  55.739 -54.713  1.00  0.00     0.127 A 
HETATM    8  N   UNL     1     -41.595  54.778 -55.386  1.00  0.00    -0.231 NA
HETATM    9  C   UNL     1     -41.067  53.939 -54.435  1.00  0.00     0.085 A 
HETATM   10  C   UNL     1     -41.322  54.415 -53.154  1.00  0.00     0.062 A 
HETATM   11  C   UNL     1     -40.348  52.745 -54.591  1.00  0.00     0.034 A 
HETATM   12  N   UNL     1     -42.039  55.565 -53.359  1.00  0.00    -0.341 N 
HETATM   13  C   UNL     1     -40.889  53.770 -51.994  1.00  0.00     0.032 A 
HETATM   14  H   UNL     1     -42.385  56.184 -52.640  1.00  0.00     0.167 HD
HETATM   15  C   UNL     1     -40.172  52.581 -52.169  1.00  0.00     0.002 A 
HETATM   16  C   UNL     1     -39.907  52.073 -53.442  1.00  0.00     0.002 A 
ENDBRANCH   5   7
ENDBRANCH   1   5
BRANCH   2  17
HETATM   17  C   UNL     1     -44.112  56.386 -58.830  1.00  0.00     0.084 A 
HETATM   18  C   UNL     1     -45.283  57.071 -59.146  1.00  0.00     0.180 A 
HETATM   19  N   UNL     1     -46.120  56.687 -60.144  1.00  0.00    -0.236 NA
HETATM   20  C   UNL     1     -45.792  55.568 -60.827  1.00  0.00     0.119 A 
HETATM   21  C   UNL     1     -44.658  54.815 -60.574  1.00  0.00     0.020 A 
HETATM   22  C   UNL     1     -43.804  55.231 -59.557  1.00  0.00     0.023 A 
BRANCH  18  23
HETATM   23  O   UNL     1     -45.567  58.244 -58.480  1.00  0.00    -0.328 OA
BRANCH  23  24
HETATM   24  C   UNL     1     -45.987  59.306 -59.346  1.00  0.00     0.248 C 
BRANCH  24  25
HETATM   25  C   UNL     1     -44.768  60.106 -59.773  1.00  0.00     0.377 C 
HETATM   26  F   UNL     1     -43.818  60.046 -58.804  1.00  0.00    -0.212 F 
HETATM   27  F   UNL     1     -44.213  59.555 -60.884  1.00  0.00    -0.212 F 
ENDBRANCH  24  25
ENDBRANCH  23  24
ENDBRANCH  18  23
ENDBRANCH   2  17
TORSDOF 6
ENDMDL
MODEL 10
REMARK VINA RESULT:      -6.3      2.995      6.990
REMARK  6 active torsions:
REMARK  status: ('A' for Active; 'I' for Inactive)
REMARK    1  A    between atoms: C_2  and  N_3 
REMARK    2  A    between atoms: C_2  and  C_17 
REMARK       I    between atoms: N_3  and  C_4 
REMARK    3  A    between atoms: C_4  and  C_5 
REMARK    4  A    between atoms: C_6  and  O_7 
REMARK    5  A    between atoms: O_7  and  C_8 
REMARK    6  A    between atoms: C_8  and  C_9 
ROOT
HETATM    1  N   UNL     1     -42.031  55.996 -52.742  1.00  0.00    -0.346 N 
HETATM    2  C   UNL     1     -41.666  56.989 -53.622  1.00  0.00     0.256 C 
HETATM    3  O   UNL     1     -40.549  57.492 -53.637  1.00  0.00    -0.267 OA
HETATM    4  H   UNL     1     -42.963  55.600 -52.745  1.00  0.00     0.163 HD
ENDROOT
BRANCH   1   5
HETATM    5  C   UNL     1     -41.134  55.542 -51.697  1.00  0.00     0.150 C 
HETATM    6  C   UNL     1     -41.812  55.610 -50.332  1.00  0.00     0.040 C 
BRANCH   5   7
HETATM    7  C   UNL     1     -40.737  54.141 -52.041  1.00  0.00     0.127 A 
HETATM    8  N   UNL     1     -40.281  53.215 -51.218  1.00  0.00    -0.231 NA
HETATM    9  C   UNL     1     -40.066  52.104 -51.997  1.00  0.00     0.085 A 
HETATM   10  C   UNL     1     -40.432  52.342 -53.317  1.00  0.00     0.062 A 
HETATM   11  C   UNL     1     -39.559  50.845 -51.645  1.00  0.00     0.034 A 
HETATM   12  N   UNL     1     -40.864  53.643 -53.317  1.00  0.00    -0.341 N 
HETATM   13  C   UNL     1     -40.335  51.383 -54.326  1.00  0.00     0.032 A 
HETATM   14  H   UNL     1     -41.219  54.150 -54.114  1.00  0.00     0.167 HD
HETATM   15  C   UNL     1     -39.828  50.132 -53.956  1.00  0.00     0.002 A 
HETATM   16  C   UNL     1     -39.443  49.865 -52.641  1.00  0.00     0.002 A 
ENDBRANCH   5   7
ENDBRANCH   1   5
BRANCH   2  17
HETATM   17  C   UNL     1     -42.720  57.441 -54.556  1.00  0.00     0.084 A 
HETATM   18  C   UNL     1     -43.717  58.324 -54.148  1.00  0.00     0.180 A 
HETATM   19  N   UNL     1     -44.711  58.749 -54.968  1.00  0.00    -0.236 NA
HETATM   20  C   UNL     1     -44.727  58.256 -56.226  1.00  0.00     0.119 A 
HETATM   21  C   UNL     1     -43.787  57.363 -56.715  1.00  0.00     0.020 A 
HETATM   22  C   UNL     1     -42.767  56.948 -55.865  1.00  0.00     0.023 A 
BRANCH  18  23
HETATM   23  O   UNL     1     -43.648  58.864 -52.882  1.00  0.00    -0.328 OA
BRANCH  23  24
HETATM   24  C   UNL     1     -44.914  59.316 -52.383  1.00  0.00     0.248 C 
BRANCH  24  25
HETATM   25  C   UNL     1     -45.220  58.591 -51.084  1.00  0.00     0.377 C 
HETATM   26  F   UNL     1     -46.517  58.802 -50.737  1.00  0.00    -0.212 F 
HETATM   27  F   UNL     1     -45.085  57.250 -51.253  1.00  0.00    -0.212 F 
ENDBRANCH  24  25
ENDBRANCH  23  24
ENDBRANCH  18  23
ENDBRANCH   2  17
TORSDOF 6
ENDMDL
