MODEL 1
REMARK VINA RESULT:      -6.5      0.000      0.000
REMARK  10 active torsions:
REMARK  status: ('A' for Active; 'I' for Inactive)
REMARK    1  A    between atoms: O_2  and  C_3 
REMARK    2  A    between atoms: C_6  and  C_7 
REMARK       I    between atoms: C_7  and  N_8 
REMARK    3  A    between atoms: N_8  and  C_9 
REMARK    4  A    between atoms: C_9  and  N_10 
REMARK    5  A    between atoms: N_10  and  C_11 
REMARK    6  A    between atoms: C_12  and  C_13 
REMARK       I    between atoms: C_13  and  N_14 
REMARK    7  A    between atoms: N_14  and  C_15 
REMARK    8  A    between atoms: C_15  and  C_16 
REMARK    9  A    between atoms: C_16  and  C_17 
REMARK   10  A    between atoms: C_17  and  O_18 
ROOT
HETATM    1  N   UNL     1     -44.287  56.738 -52.331  1.00  0.00    -0.332 N 
HETATM    2  H   UNL     1     -45.179  56.497 -51.918  1.00  0.00     0.168 HD
ENDROOT
BRANCH   1   3
HETATM    3  C   UNL     1     -44.406  57.314 -53.580  1.00  0.00     0.179 C 
HETATM    4  S   UNL     1     -44.160  58.921 -53.987  1.00  0.00    -0.040 SA
BRANCH   3   5
HETATM    5  N   UNL     1     -44.606  56.437 -54.635  1.00  0.00    -0.299 N 
HETATM    6  C   UNL     1     -43.694  56.149 -55.627  1.00  0.00     0.257 C 
HETATM    7  O   UNL     1     -43.789  56.614 -56.757  1.00  0.00    -0.267 OA
HETATM    8  H   UNL     1     -45.531  56.611 -55.012  1.00  0.00     0.171 HD
BRANCH   6   9
HETATM    9  C   UNL     1     -42.577  55.242 -55.281  1.00  0.00     0.032 A 
HETATM   10  C   UNL     1     -41.277  55.738 -55.146  1.00  0.00     0.020 A 
HETATM   11  C   UNL     1     -40.259  54.894 -54.690  1.00  0.00     0.038 A 
HETATM   12  C   UNL     1     -40.549  53.562 -54.385  1.00  0.00     0.068 A 
HETATM   13  C   UNL     1     -41.836  53.056 -54.572  1.00  0.00     0.038 A 
HETATM   14  C   UNL     1     -42.861  53.903 -54.991  1.00  0.00     0.020 A 
BRANCH  12  15
HETATM   15  O   UNL     1     -39.598  52.686 -53.936  1.00  0.00    -0.356 OA
HETATM   16  C   UNL     1     -40.067  51.339 -53.947  1.00  0.00     0.210 C 
ENDBRANCH  12  15
ENDBRANCH   6   9
ENDBRANCH   3   5
ENDBRANCH   1   3
BRANCH   1  17
HETATM   17  C   UNL     1     -43.206  55.965 -51.833  1.00  0.00     0.050 A 
HETATM   18  C   UNL     1     -41.902  56.434 -51.594  1.00  0.00     0.058 A 
HETATM   19  C   UNL     1     -40.915  55.545 -51.121  1.00  0.00     0.019 A 
HETATM   20  C   UNL     1     -41.221  54.206 -50.881  1.00  0.00     0.001 A 
HETATM   21  C   UNL     1     -42.519  53.748 -51.076  1.00  0.00     0.002 A 
HETATM   22  C   UNL     1     -43.506  54.625 -51.532  1.00  0.00     0.030 A 
BRANCH  18  23
HETATM   23  C   UNL     1     -41.549  57.878 -51.640  1.00  0.00     0.253 C 
HETATM   24  N   UNL     1     -42.063  58.649 -50.614  1.00  0.00    -0.357 N 
HETATM   25  H   UNL     1     -42.615  58.208 -49.888  1.00  0.00     0.162 HD
HETATM   26  O   UNL     1     -40.869  58.327 -52.555  1.00  0.00    -0.268 OA
BRANCH  24  27
HETATM   27  C   UNL     1     -41.888  60.084 -50.592  1.00  0.00     0.125 C 
BRANCH  27  28
HETATM   28  C   UNL     1     -43.094  60.818 -50.021  1.00  0.00     0.046 C 
BRANCH  28  29
HETATM   29  C   UNL     1     -44.392  60.445 -50.722  1.00  0.00     0.165 C 
BRANCH  29  30
HETATM   30  O   UNL     1     -44.809  59.155 -50.289  1.00  0.00    -0.401 OA
HETATM   31  H   UNL     1     -45.772  59.104 -50.413  1.00  0.00     0.209 HD
ENDBRANCH  29  30
ENDBRANCH  28  29
ENDBRANCH  27  28
ENDBRANCH  24  27
ENDBRANCH  18  23
ENDBRANCH   1  17
TORSDOF 10
ENDMDL
MODEL 2
REMARK VINA RESULT:      -6.5      2.264      4.028
REMARK  10 active torsions:
REMARK  status: ('A' for Active; 'I' for Inactive)
REMARK    1  A    between atoms: O_2  and  C_3 
REMARK    2  A    between atoms: C_6  and  C_7 
REMARK       I    between atoms: C_7  and  N_8 
REMARK    3  A    between atoms: N_8  and  C_9 
REMARK    4  A    between atoms: C_9  and  N_10 
REMARK    5  A    between atoms: N_10  and  C_11 
REMARK    6  A    between atoms: C_12  and  C_13 
REMARK       I    between atoms: C_13  and  N_14 
REMARK    7  A    between atoms: N_14  and  C_15 
REMARK    8  A    between atoms: C_15  and  C_16 
REMARK    9  A    between atoms: C_16  and  C_17 
REMARK   10  A    between atoms: C_17  and  O_18 
ROOT
HETATM    1  N   UNL     1     -43.868  55.937 -52.603  1.00  0.00    -0.332 N 
HETATM    2  H   UNL     1     -44.443  56.761 -52.476  1.00  0.00     0.168 HD
ENDROOT
BRANCH   1   3
HETATM    3  C   UNL     1     -43.301  55.489 -51.427  1.00  0.00     0.179 C 
HETATM    4  S   UNL     1     -44.046  54.613 -50.207  1.00  0.00    -0.040 SA
BRANCH   3   5
HETATM    5  N   UNL     1     -41.929  55.653 -51.315  1.00  0.00    -0.299 N 
HETATM    6  C   UNL     1     -41.066  54.799 -50.662  1.00  0.00     0.257 C 
HETATM    7  O   UNL     1     -40.601  55.058 -49.558  1.00  0.00    -0.267 OA
HETATM    8  H   UNL     1     -41.750  56.622 -51.079  1.00  0.00     0.171 HD
BRANCH   6   9
HETATM    9  C   UNL     1     -40.708  53.538 -51.348  1.00  0.00     0.032 A 
HETATM   10  C   UNL     1     -40.684  53.473 -52.745  1.00  0.00     0.020 A 
HETATM   11  C   UNL     1     -40.216  52.316 -53.374  1.00  0.00     0.038 A 
HETATM   12  C   UNL     1     -39.788  51.233 -52.604  1.00  0.00     0.068 A 
HETATM   13  C   UNL     1     -39.863  51.280 -51.212  1.00  0.00     0.038 A 
HETATM   14  C   UNL     1     -40.295  52.444 -50.579  1.00  0.00     0.020 A 
BRANCH  12  15
HETATM   15  O   UNL     1     -39.320  50.073 -53.160  1.00  0.00    -0.356 OA
HETATM   16  C   UNL     1     -39.628  49.987 -54.550  1.00  0.00     0.210 C 
ENDBRANCH  12  15
ENDBRANCH   6   9
ENDBRANCH   3   5
ENDBRANCH   1   3
BRANCH   1  17
HETATM   17  C   UNL     1     -43.357  55.801 -53.919  1.00  0.00     0.050 A 
HETATM   18  C   UNL     1     -42.606  56.766 -54.613  1.00  0.00     0.058 A 
HETATM   19  C   UNL     1     -42.183  56.506 -55.932  1.00  0.00     0.019 A 
HETATM   20  C   UNL     1     -42.496  55.298 -56.554  1.00  0.00     0.001 A 
HETATM   21  C   UNL     1     -43.203  54.325 -55.857  1.00  0.00     0.002 A 
HETATM   22  C   UNL     1     -43.615  54.568 -54.545  1.00  0.00     0.030 A 
BRANCH  18  23
HETATM   23  C   UNL     1     -42.069  57.988 -53.956  1.00  0.00     0.253 C 
HETATM   24  N   UNL     1     -40.740  57.927 -53.582  1.00  0.00    -0.357 N 
HETATM   25  H   UNL     1     -40.202  57.094 -53.788  1.00  0.00     0.162 HD
HETATM   26  O   UNL     1     -42.792  58.955 -53.750  1.00  0.00    -0.268 OA
BRANCH  24  27
HETATM   27  C   UNL     1     -40.119  59.002 -52.840  1.00  0.00     0.125 C 
BRANCH  27  28
HETATM   28  C   UNL     1     -40.093  58.746 -51.339  1.00  0.00     0.046 C 
BRANCH  28  29
HETATM   29  C   UNL     1     -41.209  59.474 -50.602  1.00  0.00     0.165 C 
BRANCH  29  30
HETATM   30  O   UNL     1     -42.414  58.723 -50.708  1.00  0.00    -0.401 OA
HETATM   31  H   UNL     1     -42.865  58.777 -49.849  1.00  0.00     0.209 HD
ENDBRANCH  29  30
ENDBRANCH  28  29
ENDBRANCH  27  28
ENDBRANCH  24  27
ENDBRANCH  18  23
ENDBRANCH   1  17
TORSDOF 10
ENDMDL
MODEL 3
REMARK VINA RESULT:      -6.4      2.615      6.050
REMARK  10 active torsions:
REMARK  status: ('A' for Active; 'I' for Inactive)
REMARK    1  A    between atoms: O_2  and  C_3 
REMARK    2  A    between atoms: C_6  and  C_7 
REMARK       I    between atoms: C_7  and  N_8 
REMARK    3  A    between atoms: N_8  and  C_9 
REMARK    4  A    between atoms: C_9  and  N_10 
REMARK    5  A    between atoms: N_10  and  C_11 
REMARK    6  A    between atoms: C_12  and  C_13 
REMARK       I    between atoms: C_13  and  N_14 
REMARK    7  A    between atoms: N_14  and  C_15 
REMARK    8  A    between atoms: C_15  and  C_16 
REMARK    9  A    between atoms: C_16  and  C_17 
REMARK   10  A    between atoms: C_17  and  O_18 
ROOT
HETATM    1  N   UNL     1     -40.205  53.582 -51.610  1.00  0.00    -0.332 N 
HETATM    2  H   UNL     1     -39.313  53.987 -51.356  1.00  0.00     0.168 HD
ENDROOT
BRANCH   1   3
HETATM    3  C   UNL     1     -41.215  53.903 -50.725  1.00  0.00     0.179 C 
HETATM    4  S   UNL     1     -41.057  54.317 -49.108  1.00  0.00    -0.040 SA
BRANCH   3   5
HETATM    5  N   UNL     1     -42.481  54.041 -51.274  1.00  0.00    -0.299 N 
HETATM    6  C   UNL     1     -43.491  54.837 -50.777  1.00  0.00     0.257 C 
HETATM    7  O   UNL     1     -44.444  54.375 -50.161  1.00  0.00    -0.267 OA
HETATM    8  H   UNL     1     -42.816  53.117 -51.520  1.00  0.00     0.171 HD
BRANCH   6   9
HETATM    9  C   UNL     1     -43.391  56.293 -51.019  1.00  0.00     0.032 A 
HETATM   10  C   UNL     1     -42.163  56.873 -51.355  1.00  0.00     0.020 A 
HETATM   11  C   UNL     1     -42.112  58.225 -51.709  1.00  0.00     0.038 A 
HETATM   12  C   UNL     1     -43.283  58.985 -51.714  1.00  0.00     0.068 A 
HETATM   13  C   UNL     1     -44.498  58.417 -51.328  1.00  0.00     0.038 A 
HETATM   14  C   UNL     1     -44.560  57.062 -51.008  1.00  0.00     0.020 A 
BRANCH  12  15
HETATM   15  O   UNL     1     -43.299  60.311 -52.050  1.00  0.00    -0.356 OA
HETATM   16  C   UNL     1     -42.718  61.125 -51.033  1.00  0.00     0.210 C 
ENDBRANCH  12  15
ENDBRANCH   6   9
ENDBRANCH   3   5
ENDBRANCH   1   3
BRANCH   1  17
HETATM   17  C   UNL     1     -40.091  52.415 -52.408  1.00  0.00     0.050 A 
HETATM   18  C   UNL     1     -40.388  52.325 -53.780  1.00  0.00     0.058 A 
HETATM   19  C   UNL     1     -40.253  51.089 -54.444  1.00  0.00     0.019 A 
HETATM   20  C   UNL     1     -39.823  49.955 -53.757  1.00  0.00     0.001 A 
HETATM   21  C   UNL     1     -39.489  50.049 -52.411  1.00  0.00     0.002 A 
HETATM   22  C   UNL     1     -39.606  51.273 -51.747  1.00  0.00     0.030 A 
BRANCH  18  23
HETATM   23  C   UNL     1     -40.663  53.521 -54.620  1.00  0.00     0.253 C 
HETATM   24  N   UNL     1     -41.999  53.796 -54.844  1.00  0.00    -0.357 N 
HETATM   25  H   UNL     1     -42.706  53.209 -54.419  1.00  0.00     0.162 HD
HETATM   26  O   UNL     1     -39.743  54.181 -55.089  1.00  0.00    -0.268 OA
BRANCH  24  27
HETATM   27  C   UNL     1     -42.408  54.865 -55.728  1.00  0.00     0.125 C 
BRANCH  27  28
HETATM   28  C   UNL     1     -42.599  56.191 -55.005  1.00  0.00     0.046 C 
BRANCH  28  29
HETATM   29  C   UNL     1     -44.052  56.448 -54.629  1.00  0.00     0.165 C 
BRANCH  29  30
HETATM   30  O   UNL     1     -44.661  55.223 -54.235  1.00  0.00    -0.401 OA
HETATM   31  H   UNL     1     -44.868  54.727 -55.045  1.00  0.00     0.209 HD
ENDBRANCH  29  30
ENDBRANCH  28  29
ENDBRANCH  27  28
ENDBRANCH  24  27
ENDBRANCH  18  23
ENDBRANCH   1  17
TORSDOF 10
ENDMDL
MODEL 4
REMARK VINA RESULT:      -6.2      2.377      6.092
REMARK  10 active torsions:
REMARK  status: ('A' for Active; 'I' for Inactive)
REMARK    1  A    between atoms: O_2  and  C_3 
REMARK    2  A    between atoms: C_6  and  C_7 
REMARK       I    between atoms: C_7  and  N_8 
REMARK    3  A    between atoms: N_8  and  C_9 
REMARK    4  A    between atoms: C_9  and  N_10 
REMARK    5  A    between atoms: N_10  and  C_11 
REMARK    6  A    between atoms: C_12  and  C_13 
REMARK       I    between atoms: C_13  and  N_14 
REMARK    7  A    between atoms: N_14  and  C_15 
REMARK    8  A    between atoms: C_15  and  C_16 
REMARK    9  A    between atoms: C_16  and  C_17 
REMARK   10  A    between atoms: C_17  and  O_18 
ROOT
HETATM    1  N   UNL     1     -43.962  56.213 -55.109  1.00  0.00    -0.332 N 
HETATM    2  H   UNL     1     -44.027  55.308 -55.559  1.00  0.00     0.168 HD
ENDROOT
BRANCH   1   3
HETATM    3  C   UNL     1     -43.740  57.244 -55.999  1.00  0.00     0.179 C 
HETATM    4  S   UNL     1     -44.892  58.136 -56.829  1.00  0.00    -0.040 SA
BRANCH   3   5
HETATM    5  N   UNL     1     -42.430  57.686 -56.102  1.00  0.00    -0.299 N 
HETATM    6  C   UNL     1     -41.992  58.970 -55.861  1.00  0.00     0.257 C 
HETATM    7  O   UNL     1     -41.711  59.745 -56.768  1.00  0.00    -0.267 OA
HETATM    8  H   UNL     1     -42.042  57.309 -56.959  1.00  0.00     0.171 HD
BRANCH   6   9
HETATM    9  C   UNL     1     -41.866  59.393 -54.449  1.00  0.00     0.032 A 
HETATM   10  C   UNL     1     -42.726  60.360 -53.918  1.00  0.00     0.020 A 
HETATM   11  C   UNL     1     -42.680  60.650 -52.551  1.00  0.00     0.038 A 
HETATM   12  C   UNL     1     -41.770  59.980 -51.731  1.00  0.00     0.068 A 
HETATM   13  C   UNL     1     -40.877  59.054 -52.272  1.00  0.00     0.038 A 
HETATM   14  C   UNL     1     -40.943  58.736 -53.628  1.00  0.00     0.020 A 
BRANCH  12  15
HETATM   15  O   UNL     1     -41.675  60.219 -50.387  1.00  0.00    -0.356 OA
HETATM   16  C   UNL     1     -40.687  59.397 -49.768  1.00  0.00     0.210 C 
ENDBRANCH  12  15
ENDBRANCH   6   9
ENDBRANCH   3   5
ENDBRANCH   1   3
BRANCH   1  17
HETATM   17  C   UNL     1     -43.563  56.141 -53.749  1.00  0.00     0.050 A 
HETATM   18  C   UNL     1     -42.592  55.270 -53.223  1.00  0.00     0.058 A 
HETATM   19  C   UNL     1     -42.313  55.288 -51.841  1.00  0.00     0.019 A 
HETATM   20  C   UNL     1     -42.985  56.166 -50.991  1.00  0.00     0.001 A 
HETATM   21  C   UNL     1     -43.915  57.057 -51.514  1.00  0.00     0.002 A 
HETATM   22  C   UNL     1     -44.188  57.056 -52.884  1.00  0.00     0.030 A 
BRANCH  18  23
HETATM   23  C   UNL     1     -41.701  54.448 -54.085  1.00  0.00     0.253 C 
HETATM   24  N   UNL     1     -41.420  53.180 -53.612  1.00  0.00    -0.357 N 
HETATM   25  H   UNL     1     -41.840  52.868 -52.745  1.00  0.00     0.162 HD
HETATM   26  O   UNL     1     -41.242  54.905 -55.125  1.00  0.00    -0.268 OA
BRANCH  24  27
HETATM   27  C   UNL     1     -40.485  52.314 -54.295  1.00  0.00     0.125 C 
BRANCH  27  28
HETATM   28  C   UNL     1     -39.746  51.379 -53.347  1.00  0.00     0.046 C 
BRANCH  28  29
HETATM   29  C   UNL     1     -39.676  49.951 -53.871  1.00  0.00     0.165 C 
BRANCH  29  30
HETATM   30  O   UNL     1     -39.485  49.056 -52.781  1.00  0.00    -0.401 OA
HETATM   31  H   UNL     1     -39.835  49.491 -51.984  1.00  0.00     0.209 HD
ENDBRANCH  29  30
ENDBRANCH  28  29
ENDBRANCH  27  28
ENDBRANCH  24  27
ENDBRANCH  18  23
ENDBRANCH   1  17
TORSDOF 10
ENDMDL
MODEL 5
REMARK VINA RESULT:      -6.1      2.041      3.490
REMARK  10 active torsions:
REMARK  status: ('A' for Active; 'I' for Inactive)
REMARK    1  A    between atoms: O_2  and  C_3 
REMARK    2  A    between atoms: C_6  and  C_7 
REMARK       I    between atoms: C_7  and  N_8 
REMARK    3  A    between atoms: N_8  and  C_9 
REMARK    4  A    between atoms: C_9  and  N_10 
REMARK    5  A    between atoms: N_10  and  C_11 
REMARK    6  A    between atoms: C_12  and  C_13 
REMARK       I    between atoms: C_13  and  N_14 
REMARK    7  A    between atoms: N_14  and  C_15 
REMARK    8  A    between atoms: C_15  and  C_16 
REMARK    9  A    between atoms: C_16  and  C_17 
REMARK   10  A    between atoms: C_17  and  O_18 
ROOT
HETATM    1  N   UNL     1     -44.265  57.562 -52.892  1.00  0.00    -0.332 N 
HETATM    2  H   UNL     1     -44.877  57.113 -52.222  1.00  0.00     0.168 HD
ENDROOT
BRANCH   1   3
HETATM    3  C   UNL     1     -44.333  56.997 -54.150  1.00  0.00     0.179 C 
HETATM    4  S   UNL     1     -44.015  57.741 -55.618  1.00  0.00    -0.040 SA
BRANCH   3   5
HETATM    5  N   UNL     1     -44.542  55.627 -54.188  1.00  0.00    -0.299 N 
HETATM    6  C   UNL     1     -43.572  54.670 -54.399  1.00  0.00     0.257 C 
HETATM    7  O   UNL     1     -43.445  54.094 -55.473  1.00  0.00    -0.267 OA
HETATM    8  H   UNL     1     -45.369  55.455 -54.748  1.00  0.00     0.171 HD
BRANCH   6   9
HETATM    9  C   UNL     1     -42.676  54.350 -53.266  1.00  0.00     0.032 A 
HETATM   10  C   UNL     1     -43.185  54.243 -51.967  1.00  0.00     0.020 A 
HETATM   11  C   UNL     1     -42.351  53.810 -50.932  1.00  0.00     0.038 A 
HETATM   12  C   UNL     1     -41.016  53.499 -51.202  1.00  0.00     0.068 A 
HETATM   13  C   UNL     1     -40.497  53.658 -52.487  1.00  0.00     0.038 A 
HETATM   14  C   UNL     1     -41.334  54.055 -53.530  1.00  0.00     0.020 A 
BRANCH  12  15
HETATM   15  O   UNL     1     -40.149  53.072 -50.233  1.00  0.00    -0.356 OA
HETATM   16  C   UNL     1     -39.819  54.114 -49.317  1.00  0.00     0.210 C 
ENDBRANCH  12  15
ENDBRANCH   6   9
ENDBRANCH   3   5
ENDBRANCH   1   3
BRANCH   1  17
HETATM   17  C   UNL     1     -43.157  58.217 -52.295  1.00  0.00     0.050 A 
HETATM   18  C   UNL     1     -43.222  59.354 -51.470  1.00  0.00     0.058 A 
HETATM   19  C   UNL     1     -42.034  59.919 -50.964  1.00  0.00     0.019 A 
HETATM   20  C   UNL     1     -40.794  59.359 -51.269  1.00  0.00     0.001 A 
HETATM   21  C   UNL     1     -40.728  58.211 -52.050  1.00  0.00     0.002 A 
HETATM   22  C   UNL     1     -41.901  57.636 -52.545  1.00  0.00     0.030 A 
BRANCH  18  23
HETATM   23  C   UNL     1     -44.506  59.890 -50.944  1.00  0.00     0.253 C 
HETATM   24  N   UNL     1     -44.425  60.545 -49.730  1.00  0.00    -0.357 N 
HETATM   25  H   UNL     1     -43.523  60.652 -49.281  1.00  0.00     0.162 HD
HETATM   26  O   UNL     1     -45.553  59.720 -51.559  1.00  0.00    -0.268 OA
BRANCH  24  27
HETATM   27  C   UNL     1     -45.610  61.023 -49.053  1.00  0.00     0.125 C 
BRANCH  27  28
HETATM   28  C   UNL     1     -45.370  61.317 -47.578  1.00  0.00     0.046 C 
BRANCH  28  29
HETATM   29  C   UNL     1     -45.935  60.236 -46.667  1.00  0.00     0.165 C 
BRANCH  29  30
HETATM   30  O   UNL     1     -46.333  59.117 -47.452  1.00  0.00    -0.401 OA
HETATM   31  H   UNL     1     -47.278  59.224 -47.652  1.00  0.00     0.209 HD
ENDBRANCH  29  30
ENDBRANCH  28  29
ENDBRANCH  27  28
ENDBRANCH  24  27
ENDBRANCH  18  23
ENDBRANCH   1  17
TORSDOF 10
ENDMDL
MODEL 6
REMARK VINA RESULT:      -6.0      2.442      5.037
REMARK  10 active torsions:
REMARK  status: ('A' for Active; 'I' for Inactive)
REMARK    1  A    between atoms: O_2  and  C_3 
REMARK    2  A    between atoms: C_6  and  C_7 
REMARK       I    between atoms: C_7  and  N_8 
REMARK    3  A    between atoms: N_8  and  C_9 
REMARK    4  A    between atoms: C_9  and  N_10 
REMARK    5  A    between atoms: N_10  and  C_11 
REMARK    6  A    between atoms: C_12  and  C_13 
REMARK       I    between atoms: C_13  and  N_14 
REMARK    7  A    between atoms: N_14  and  C_15 
REMARK    8  A    between atoms: C_15  and  C_16 
REMARK    9  A    between atoms: C_16  and  C_17 
REMARK   10  A    between atoms: C_17  and  O_18 
ROOT
HETATM    1  N   UNL     1     -40.348  54.050 -54.017  1.00  0.00    -0.332 N 
HETATM    2  H   UNL     1     -39.866  54.768 -53.490  1.00  0.00     0.168 HD
ENDROOT
BRANCH   1   3
HETATM    3  C   UNL     1     -41.452  54.527 -54.695  1.00  0.00     0.179 C 
HETATM    4  S   UNL     1     -43.045  54.032 -54.520  1.00  0.00    -0.040 SA
BRANCH   3   5
HETATM    5  N   UNL     1     -41.239  55.637 -55.497  1.00  0.00    -0.299 N 
HETATM    6  C   UNL     1     -42.038  56.759 -55.548  1.00  0.00     0.257 C 
HETATM    7  O   UNL     1     -42.816  56.966 -56.472  1.00  0.00    -0.267 OA
HETATM    8  H   UNL     1     -40.991  55.308 -56.423  1.00  0.00     0.171 HD
BRANCH   6   9
HETATM    9  C   UNL     1     -41.922  57.728 -54.435  1.00  0.00     0.032 A 
HETATM   10  C   UNL     1     -43.009  58.532 -54.080  1.00  0.00     0.020 A 
HETATM   11  C   UNL     1     -42.926  59.343 -52.944  1.00  0.00     0.038 A 
HETATM   12  C   UNL     1     -41.755  59.352 -52.184  1.00  0.00     0.068 A 
HETATM   13  C   UNL     1     -40.652  58.590 -52.571  1.00  0.00     0.038 A 
HETATM   14  C   UNL     1     -40.744  57.752 -53.681  1.00  0.00     0.020 A 
BRANCH  12  15
HETATM   15  O   UNL     1     -41.610  60.125 -51.064  1.00  0.00    -0.356 OA
HETATM   16  C   UNL     1     -40.854  59.461 -50.052  1.00  0.00     0.210 C 
ENDBRANCH  12  15
ENDBRANCH   6   9
ENDBRANCH   3   5
ENDBRANCH   1   3
BRANCH   1  17
HETATM   17  C   UNL     1     -40.140  52.741 -53.513  1.00  0.00     0.050 A 
HETATM   18  C   UNL     1     -40.032  52.391 -52.155  1.00  0.00     0.058 A 
HETATM   19  C   UNL     1     -39.798  51.048 -51.796  1.00  0.00     0.019 A 
HETATM   20  C   UNL     1     -39.679  50.060 -52.774  1.00  0.00     0.001 A 
HETATM   21  C   UNL     1     -39.826  50.395 -54.115  1.00  0.00     0.002 A 
HETATM   22  C   UNL     1     -40.071  51.722 -54.480  1.00  0.00     0.030 A 
BRANCH  18  23
HETATM   23  C   UNL     1     -40.339  53.344 -51.056  1.00  0.00     0.253 C 
HETATM   24  N   UNL     1     -41.679  53.627 -50.870  1.00  0.00    -0.357 N 
HETATM   25  H   UNL     1     -42.370  53.168 -51.452  1.00  0.00     0.162 HD
HETATM   26  O   UNL     1     -39.439  53.848 -50.395  1.00  0.00    -0.268 OA
BRANCH  24  27
HETATM   27  C   UNL     1     -42.112  54.616 -49.909  1.00  0.00     0.125 C 
BRANCH  27  28
HETATM   28  C   UNL     1     -42.357  55.982 -50.535  1.00  0.00     0.046 C 
BRANCH  28  29
HETATM   29  C   UNL     1     -43.605  56.010 -51.407  1.00  0.00     0.165 C 
BRANCH  29  30
HETATM   30  O   UNL     1     -44.759  56.099 -50.578  1.00  0.00    -0.401 OA
HETATM   31  H   UNL     1     -45.333  56.789 -50.952  1.00  0.00     0.209 HD
ENDBRANCH  29  30
ENDBRANCH  28  29
ENDBRANCH  27  28
ENDBRANCH  24  27
ENDBRANCH  18  23
ENDBRANCH   1  17
TORSDOF 10
ENDMDL
MODEL 7
REMARK VINA RESULT:      -6.0      2.488      6.016
REMARK  10 active torsions:
REMARK  status: ('A' for Active; 'I' for Inactive)
REMARK    1  A    between atoms: O_2  and  C_3 
REMARK    2  A    between atoms: C_6  and  C_7 
REMARK       I    between atoms: C_7  and  N_8 
REMARK    3  A    between atoms: N_8  and  C_9 
REMARK    4  A    between atoms: C_9  and  N_10 
REMARK    5  A    between atoms: N_10  and  C_11 
REMARK    6  A    between atoms: C_12  and  C_13 
REMARK       I    between atoms: C_13  and  N_14 
REMARK    7  A    between atoms: N_14  and  C_15 
REMARK    8  A    between atoms: C_15  and  C_16 
REMARK    9  A    between atoms: C_16  and  C_17 
REMARK   10  A    between atoms: C_17  and  O_18 
ROOT
HETATM    1  N   UNL     1     -42.429  57.711 -54.122  1.00  0.00    -0.332 N 
HETATM    2  H   UNL     1     -41.752  58.391 -53.798  1.00  0.00     0.168 HD
ENDROOT
BRANCH   1   3
HETATM    3  C   UNL     1     -43.675  57.875 -53.550  1.00  0.00     0.179 C 
HETATM    4  S   UNL     1     -45.167  57.667 -54.285  1.00  0.00    -0.040 SA
BRANCH   3   5
HETATM    5  N   UNL     1     -43.690  58.089 -52.180  1.00  0.00    -0.299 N 
HETATM    6  C   UNL     1     -44.027  57.157 -51.223  1.00  0.00     0.257 C 
HETATM    7  O   UNL     1     -45.110  57.171 -50.650  1.00  0.00    -0.267 OA
HETATM    8  H   UNL     1     -44.138  58.983 -52.011  1.00  0.00     0.171 HD
BRANCH   6   9
HETATM    9  C   UNL     1     -43.021  56.121 -50.898  1.00  0.00     0.032 A 
HETATM   10  C   UNL     1     -43.246  54.783 -51.237  1.00  0.00     0.020 A 
HETATM   11  C   UNL     1     -42.231  53.842 -51.044  1.00  0.00     0.038 A 
HETATM   12  C   UNL     1     -41.007  54.243 -50.505  1.00  0.00     0.068 A 
HETATM   13  C   UNL     1     -40.804  55.568 -50.118  1.00  0.00     0.038 A 
HETATM   14  C   UNL     1     -41.800  56.518 -50.342  1.00  0.00     0.020 A 
BRANCH  12  15
HETATM   15  O   UNL     1     -39.975  53.370 -50.290  1.00  0.00    -0.356 OA
HETATM   16  C   UNL     1     -40.405  52.011 -50.354  1.00  0.00     0.210 C 
ENDBRANCH  12  15
ENDBRANCH   6   9
ENDBRANCH   3   5
ENDBRANCH   1   3
BRANCH   1  17
HETATM   17  C   UNL     1     -41.843  56.508 -54.592  1.00  0.00     0.050 A 
HETATM   18  C   UNL     1     -42.092  55.905 -55.838  1.00  0.00     0.058 A 
HETATM   19  C   UNL     1     -41.457  54.690 -56.166  1.00  0.00     0.019 A 
HETATM   20  C   UNL     1     -40.579  54.082 -55.269  1.00  0.00     0.001 A 
HETATM   21  C   UNL     1     -40.298  54.696 -54.054  1.00  0.00     0.002 A 
HETATM   22  C   UNL     1     -40.912  55.907 -53.726  1.00  0.00     0.030 A 
BRANCH  18  23
HETATM   23  C   UNL     1     -42.858  56.583 -56.917  1.00  0.00     0.253 C 
HETATM   24  N   UNL     1     -43.572  55.748 -57.756  1.00  0.00    -0.357 N 
HETATM   25  H   UNL     1     -43.563  54.749 -57.588  1.00  0.00     0.162 HD
HETATM   26  O   UNL     1     -42.816  57.801 -57.043  1.00  0.00    -0.268 OA
BRANCH  24  27
HETATM   27  C   UNL     1     -44.274  56.263 -58.910  1.00  0.00     0.125 C 
BRANCH  27  28
HETATM   28  C   UNL     1     -44.039  55.433 -60.165  1.00  0.00     0.046 C 
BRANCH  28  29
HETATM   29  C   UNL     1     -45.288  55.306 -61.025  1.00  0.00     0.165 C 
BRANCH  29  30
HETATM   30  O   UNL     1     -44.931  54.797 -62.305  1.00  0.00    -0.401 OA
HETATM   31  H   UNL     1     -45.065  53.834 -62.283  1.00  0.00     0.209 HD
ENDBRANCH  29  30
ENDBRANCH  28  29
ENDBRANCH  27  28
ENDBRANCH  24  27
ENDBRANCH  18  23
ENDBRANCH   1  17
TORSDOF 10
ENDMDL
MODEL 8
REMARK VINA RESULT:      -5.8      2.551      6.065
REMARK  10 active torsions:
REMARK  status: ('A' for Active; 'I' for Inactive)
REMARK    1  A    between atoms: O_2  and  C_3 
REMARK    2  A    between atoms: C_6  and  C_7 
REMARK       I    between atoms: C_7  and  N_8 
REMARK    3  A    between atoms: N_8  and  C_9 
REMARK    4  A    between atoms: C_9  and  N_10 
REMARK    5  A    between atoms: N_10  and  C_11 
REMARK    6  A    between atoms: C_12  and  C_13 
REMARK       I    between atoms: C_13  and  N_14 
REMARK    7  A    between atoms: N_14  and  C_15 
REMARK    8  A    between atoms: C_15  and  C_16 
REMARK    9  A    between atoms: C_16  and  C_17 
REMARK   10  A    between atoms: C_17  and  O_18 
ROOT
HETATM    1  N   UNL     1     -44.666  55.934 -54.245  1.00  0.00    -0.332 N 
HETATM    2  H   UNL     1     -45.515  55.483 -53.927  1.00  0.00     0.168 HD
ENDROOT
BRANCH   1   3
HETATM    3  C   UNL     1     -43.643  55.043 -54.498  1.00  0.00     0.179 C 
HETATM    4  S   UNL     1     -42.987  54.643 -55.988  1.00  0.00    -0.040 SA
BRANCH   3   5
HETATM    5  N   UNL     1     -42.990  54.537 -53.385  1.00  0.00    -0.299 N 
HETATM    6  C   UNL     1     -41.656  54.713 -53.085  1.00  0.00     0.257 C 
HETATM    7  O   UNL     1     -40.827  53.826 -53.251  1.00  0.00    -0.267 OA
HETATM    8  H   UNL     1     -43.280  53.573 -53.265  1.00  0.00     0.171 HD
BRANCH   6   9
HETATM    9  C   UNL     1     -41.248  56.027 -52.541  1.00  0.00     0.032 A 
HETATM   10  C   UNL     1     -40.908  57.075 -53.402  1.00  0.00     0.020 A 
HETATM   11  C   UNL     1     -40.654  58.346 -52.877  1.00  0.00     0.038 A 
HETATM   12  C   UNL     1     -40.732  58.554 -51.498  1.00  0.00     0.068 A 
HETATM   13  C   UNL     1     -41.020  57.494 -50.637  1.00  0.00     0.038 A 
HETATM   14  C   UNL     1     -41.309  56.234 -51.159  1.00  0.00     0.020 A 
BRANCH  12  15
HETATM   15  O   UNL     1     -40.495  59.773 -50.923  1.00  0.00    -0.356 OA
HETATM   16  C   UNL     1     -41.654  60.290 -50.273  1.00  0.00     0.210 C 
ENDBRANCH  12  15
ENDBRANCH   6   9
ENDBRANCH   3   5
ENDBRANCH   1   3
BRANCH   1  17
HETATM   17  C   UNL     1     -44.555  57.286 -53.832  1.00  0.00     0.050 A 
HETATM   18  C   UNL     1     -44.362  58.391 -54.680  1.00  0.00     0.058 A 
HETATM   19  C   UNL     1     -44.242  59.683 -54.129  1.00  0.00     0.019 A 
HETATM   20  C   UNL     1     -44.319  59.878 -52.750  1.00  0.00     0.001 A 
HETATM   21  C   UNL     1     -44.552  58.794 -51.912  1.00  0.00     0.002 A 
HETATM   22  C   UNL     1     -44.685  57.512 -52.450  1.00  0.00     0.030 A 
BRANCH  18  23
HETATM   23  C   UNL     1     -44.462  58.292 -56.161  1.00  0.00     0.253 C 
HETATM   24  N   UNL     1     -43.296  58.553 -56.855  1.00  0.00    -0.357 N 
HETATM   25  H   UNL     1     -42.449  58.767 -56.343  1.00  0.00     0.162 HD
HETATM   26  O   UNL     1     -45.530  58.021 -56.698  1.00  0.00    -0.268 OA
BRANCH  24  27
HETATM   27  C   UNL     1     -43.276  58.597 -58.301  1.00  0.00     0.125 C 
BRANCH  27  28
HETATM   28  C   UNL     1     -41.880  58.405 -58.878  1.00  0.00     0.046 C 
BRANCH  28  29
HETATM   29  C   UNL     1     -41.906  57.869 -60.302  1.00  0.00     0.165 C 
BRANCH  29  30
HETATM   30  O   UNL     1     -41.482  56.509 -60.302  1.00  0.00    -0.401 OA
HETATM   31  H   UNL     1     -40.797  56.419 -60.986  1.00  0.00     0.209 HD
ENDBRANCH  29  30
ENDBRANCH  28  29
ENDBRANCH  27  28
ENDBRANCH  24  27
ENDBRANCH  18  23
ENDBRANCH   1  17
TORSDOF 10
ENDMDL
MODEL 9
REMARK VINA RESULT:      -5.8      2.628      4.233
REMARK  10 active torsions:
REMARK  status: ('A' for Active; 'I' for Inactive)
REMARK    1  A    between atoms: O_2  and  C_3 
REMARK    2  A    between atoms: C_6  and  C_7 
REMARK       I    between atoms: C_7  and  N_8 
REMARK    3  A    between atoms: N_8  and  C_9 
REMARK    4  A    between atoms: C_9  and  N_10 
REMARK    5  A    between atoms: N_10  and  C_11 
REMARK    6  A    between atoms: C_12  and  C_13 
REMARK       I    between atoms: C_13  and  N_14 
REMARK    7  A    between atoms: N_14  and  C_15 
REMARK    8  A    between atoms: C_15  and  C_16 
REMARK    9  A    between atoms: C_16  and  C_17 
REMARK   10  A    between atoms: C_17  and  O_18 
ROOT
HETATM    1  N   UNL     1     -43.833  56.005 -52.721  1.00  0.00    -0.332 N 
HETATM    2  H   UNL     1     -44.404  56.827 -52.571  1.00  0.00     0.168 HD
ENDROOT
BRANCH   1   3
HETATM    3  C   UNL     1     -43.186  55.581 -51.577  1.00  0.00     0.179 C 
HETATM    4  S   UNL     1     -43.844  54.722 -50.296  1.00  0.00    -0.040 SA
BRANCH   3   5
HETATM    5  N   UNL     1     -41.811  55.757 -51.557  1.00  0.00    -0.299 N 
HETATM    6  C   UNL     1     -40.903  54.927 -50.936  1.00  0.00     0.257 C 
HETATM    7  O   UNL     1     -40.371  55.221 -49.871  1.00  0.00    -0.267 OA
HETATM    8  H   UNL     1     -41.626  56.734 -51.360  1.00  0.00     0.171 HD
BRANCH   6   9
HETATM    9  C   UNL     1     -40.579  53.649 -51.607  1.00  0.00     0.032 A 
HETATM   10  C   UNL     1     -40.620  53.551 -53.001  1.00  0.00     0.020 A 
HETATM   11  C   UNL     1     -40.183  52.377 -53.624  1.00  0.00     0.038 A 
HETATM   12  C   UNL     1     -39.721  51.312 -52.848  1.00  0.00     0.068 A 
HETATM   13  C   UNL     1     -39.732  51.393 -51.455  1.00  0.00     0.038 A 
HETATM   14  C   UNL     1     -40.132  52.574 -50.831  1.00  0.00     0.020 A 
BRANCH  12  15
HETATM   15  O   UNL     1     -39.282  50.138 -53.396  1.00  0.00    -0.356 OA
HETATM   16  C   UNL     1     -39.845  49.910 -54.687  1.00  0.00     0.210 C 
ENDBRANCH  12  15
ENDBRANCH   6   9
ENDBRANCH   3   5
ENDBRANCH   1   3
BRANCH   1  17
HETATM   17  C   UNL     1     -43.407  55.847 -54.065  1.00  0.00     0.050 A 
HETATM   18  C   UNL     1     -42.832  56.849 -54.867  1.00  0.00     0.058 A 
HETATM   19  C   UNL     1     -42.478  56.559 -56.201  1.00  0.00     0.019 A 
HETATM   20  C   UNL     1     -42.687  55.286 -56.731  1.00  0.00     0.001 A 
HETATM   21  C   UNL     1     -43.217  54.282 -55.929  1.00  0.00     0.002 A 
HETATM   22  C   UNL     1     -43.558  54.557 -54.602  1.00  0.00     0.030 A 
BRANCH  18  23
HETATM   23  C   UNL     1     -42.401  58.164 -54.321  1.00  0.00     0.253 C 
HETATM   24  N   UNL     1     -42.875  59.272 -54.996  1.00  0.00    -0.357 N 
HETATM   25  H   UNL     1     -43.495  59.146 -55.788  1.00  0.00     0.162 HD
HETATM   26  O   UNL     1     -41.653  58.224 -53.353  1.00  0.00    -0.268 OA
BRANCH  24  27
HETATM   27  C   UNL     1     -42.451  60.608 -54.640  1.00  0.00     0.125 C 
BRANCH  27  28
HETATM   28  C   UNL     1     -43.416  61.300 -53.687  1.00  0.00     0.046 C 
BRANCH  28  29
HETATM   29  C   UNL     1     -43.122  62.786 -53.535  1.00  0.00     0.165 C 
BRANCH  29  30
HETATM   30  O   UNL     1     -42.775  63.331 -54.803  1.00  0.00    -0.401 OA
HETATM   31  H   UNL     1     -42.769  62.599 -55.442  1.00  0.00     0.209 HD
ENDBRANCH  29  30
ENDBRANCH  28  29
ENDBRANCH  27  28
ENDBRANCH  24  27
ENDBRANCH  18  23
ENDBRANCH   1  17
TORSDOF 10
ENDMDL
MODEL 10
REMARK VINA RESULT:      -5.7     16.060     18.342
REMARK  10 active torsions:
REMARK  status: ('A' for Active; 'I' for Inactive)
REMARK    1  A    between atoms: O_2  and  C_3 
REMARK    2  A    between atoms: C_6  and  C_7 
REMARK       I    between atoms: C_7  and  N_8 
REMARK    3  A    between atoms: N_8  and  C_9 
REMARK    4  A    between atoms: C_9  and  N_10 
REMARK    5  A    between atoms: N_10  and  C_11 
REMARK    6  A    between atoms: C_12  and  C_13 
REMARK       I    between atoms: C_13  and  N_14 
REMARK    7  A    between atoms: N_14  and  C_15 
REMARK    8  A    between atoms: C_15  and  C_16 
REMARK    9  A    between atoms: C_16  and  C_17 
REMARK   10  A    between atoms: C_17  and  O_18 
ROOT
HETATM    1  N   UNL     1     -36.252  40.115 -53.314  1.00  0.00    -0.332 N 
HETATM    2  H   UNL     1     -36.278  39.376 -54.006  1.00  0.00     0.168 HD
ENDROOT
BRANCH   1   3
HETATM    3  C   UNL     1     -37.232  41.069 -53.506  1.00  0.00     0.179 C 
HETATM    4  S   UNL     1     -38.688  41.209 -52.687  1.00  0.00    -0.040 SA
BRANCH   3   5
HETATM    5  N   UNL     1     -36.908  42.108 -54.364  1.00  0.00    -0.299 N 
HETATM    6  C   UNL     1     -36.143  42.000 -55.506  1.00  0.00     0.257 C 
HETATM    7  O   UNL     1     -34.977  42.374 -55.549  1.00  0.00    -0.267 OA
HETATM    8  H   UNL     1     -36.631  42.903 -53.799  1.00  0.00     0.171 HD
BRANCH   6   9
HETATM    9  C   UNL     1     -36.786  41.412 -56.702  1.00  0.00     0.032 A 
HETATM   10  C   UNL     1     -36.923  42.163 -57.874  1.00  0.00     0.020 A 
HETATM   11  C   UNL     1     -37.411  41.551 -59.033  1.00  0.00     0.038 A 
HETATM   12  C   UNL     1     -37.767  40.201 -59.006  1.00  0.00     0.068 A 
HETATM   13  C   UNL     1     -37.679  39.468 -57.822  1.00  0.00     0.038 A 
HETATM   14  C   UNL     1     -37.160  40.064 -56.674  1.00  0.00     0.020 A 
BRANCH  12  15
HETATM   15  O   UNL     1     -38.251  39.546 -60.106  1.00  0.00    -0.356 OA
HETATM   16  C   UNL     1     -37.235  39.319 -61.081  1.00  0.00     0.210 C 
ENDBRANCH  12  15
ENDBRANCH   6   9
ENDBRANCH   3   5
ENDBRANCH   1   3
BRANCH   1  17
HETATM   17  C   UNL     1     -34.976  40.291 -52.722  1.00  0.00     0.050 A 
HETATM   18  C   UNL     1     -33.752  39.861 -53.264  1.00  0.00     0.058 A 
HETATM   19  C   UNL     1     -32.555  40.081 -52.552  1.00  0.00     0.019 A 
HETATM   20  C   UNL     1     -32.572  40.728 -51.316  1.00  0.00     0.001 A 
HETATM   21  C   UNL     1     -33.775  41.192 -50.797  1.00  0.00     0.002 A 
HETATM   22  C   UNL     1     -34.964  40.990 -51.502  1.00  0.00     0.030 A 
BRANCH  18  23
HETATM   23  C   UNL     1     -33.629  39.342 -54.653  1.00  0.00     0.253 C 
HETATM   24  N   UNL     1     -32.723  40.006 -55.458  1.00  0.00    -0.357 N 
HETATM   25  H   UNL     1     -32.182  40.771 -55.074  1.00  0.00     0.162 HD
HETATM   26  O   UNL     1     -34.320  38.405 -55.034  1.00  0.00    -0.268 OA
BRANCH  24  27
HETATM   27  C   UNL     1     -32.580  39.676 -56.859  1.00  0.00     0.125 C 
BRANCH  27  28
HETATM   28  C   UNL     1     -31.496  38.638 -57.114  1.00  0.00     0.046 C 
BRANCH  28  29
HETATM   29  C   UNL     1     -30.140  39.061 -56.567  1.00  0.00     0.165 C 
BRANCH  29  30
HETATM   30  O   UNL     1     -29.862  40.396 -56.976  1.00  0.00    -0.401 OA
HETATM   31  H   UNL     1     -29.580  40.889 -56.187  1.00  0.00     0.209 HD
ENDBRANCH  29  30
ENDBRANCH  28  29
ENDBRANCH  27  28
ENDBRANCH  24  27
ENDBRANCH  18  23
ENDBRANCH   1  17
TORSDOF 10
ENDMDL
