MODEL 1
REMARK VINA RESULT:      -7.4      0.000      0.000
REMARK  6 active torsions:
REMARK  status: ('A' for Active; 'I' for Inactive)
REMARK    1  A    between atoms: C_2  and  N_3 
REMARK    2  A    between atoms: C_2  and  C_16 
REMARK    3  A    between atoms: N_3  and  C_6 
REMARK    4  A    between atoms: C_16  and  C_17 
REMARK       I    between atoms: C_17  and  N_18 
REMARK    5  A    between atoms: N_18  and  C_19 
REMARK    6  A    between atoms: C_22  and  O_23 
ROOT
HETATM    1  C   UNL     1     -41.076  58.139 -53.061  1.00  0.00     0.040 C 
HETATM    2  C   UNL     1     -41.896  57.806 -51.824  1.00  0.00     0.191 C 
ENDROOT
BRANCH   2   3
HETATM    3  N   UNL     1     -42.070  56.305 -51.665  1.00  0.00    -0.063 N 
HETATM    4  H   UNL     1     -42.711  56.215 -50.852  1.00  0.00     0.278 HD
HETATM    5  H   UNL     1     -42.599  55.920 -52.456  1.00  0.00     0.278 HD
BRANCH   3   6
HETATM    6  C   UNL     1     -40.902  55.389 -51.353  1.00  0.00     0.221 C 
HETATM    7  C   UNL     1     -40.652  54.298 -52.369  1.00  0.00    -0.011 A 
HETATM    8  C   UNL     1     -40.425  52.962 -51.998  1.00  0.00     0.009 A 
HETATM    9  C   UNL     1     -40.559  54.636 -53.737  1.00  0.00     0.011 A 
HETATM   10  C   UNL     1     -40.189  51.992 -52.983  1.00  0.00     0.019 A 
HETATM   11  S   UNL     1     -40.391  52.408 -50.306  1.00  0.00    -0.129 SA
HETATM   12  C   UNL     1     -40.136  52.340 -54.331  1.00  0.00     0.001 A 
HETATM   13  C   UNL     1     -40.312  53.664 -54.707  1.00  0.00     0.001 A 
HETATM   14  C   UNL     1     -39.957  53.959 -49.486  1.00  0.00     0.082 C 
HETATM   15  C   UNL     1     -40.989  55.003 -49.868  1.00  0.00     0.048 C 
ENDBRANCH   3   6
ENDBRANCH   2   3
BRANCH   2  16
HETATM   16  C   UNL     1     -43.293  58.461 -51.923  1.00  0.00     0.135 C 
BRANCH  16  17
HETATM   17  C   UNL     1     -44.386  57.423 -51.963  1.00  0.00     0.224 C 
HETATM   18  N   UNL     1     -44.825  56.860 -53.117  1.00  0.00    -0.327 N 
HETATM   19  H   UNL     1     -45.582  56.203 -52.936  1.00  0.00     0.169 HD
HETATM   20  O   UNL     1     -44.854  57.014 -50.891  1.00  0.00    -0.273 OA
BRANCH  18  21
HETATM   21  C   UNL     1     -44.405  56.911 -54.460  1.00  0.00     0.034 A 
HETATM   22  C   UNL     1     -44.680  57.928 -55.369  1.00  0.00     0.032 A 
HETATM   23  C   UNL     1     -44.134  57.893 -56.660  1.00  0.00     0.039 A 
HETATM   24  C   UNL     1     -43.305  56.848 -57.066  1.00  0.00     0.068 A 
HETATM   25  C   UNL     1     -43.052  55.811 -56.178  1.00  0.00     0.039 A 
HETATM   26  C   UNL     1     -43.599  55.844 -54.888  1.00  0.00     0.032 A 
BRANCH  24  27
HETATM   27  O   UNL     1     -42.820  56.959 -58.338  1.00  0.00    -0.356 OA
HETATM   28  C   UNL     1     -43.133  55.904 -59.240  1.00  0.00     0.210 C 
ENDBRANCH  24  27
ENDBRANCH  18  21
ENDBRANCH  16  17
ENDBRANCH   2  16
TORSDOF 6
ENDMDL
MODEL 2
REMARK VINA RESULT:      -7.1      2.143      3.156
REMARK  6 active torsions:
REMARK  status: ('A' for Active; 'I' for Inactive)
REMARK    1  A    between atoms: C_2  and  N_3 
REMARK    2  A    between atoms: C_2  and  C_16 
REMARK    3  A    between atoms: N_3  and  C_6 
REMARK    4  A    between atoms: C_16  and  C_17 
REMARK       I    between atoms: C_17  and  N_18 
REMARK    5  A    between atoms: N_18  and  C_19 
REMARK    6  A    between atoms: C_22  and  O_23 
ROOT
HETATM    1  C   UNL     1     -41.369  57.595 -53.621  1.00  0.00     0.040 C 
HETATM    2  C   UNL     1     -42.313  56.493 -54.081  1.00  0.00     0.191 C 
ENDROOT
BRANCH   2   3
HETATM    3  N   UNL     1     -42.342  55.344 -53.089  1.00  0.00    -0.063 N 
HETATM    4  H   UNL     1     -43.066  55.630 -52.400  1.00  0.00     0.278 HD
HETATM    5  H   UNL     1     -42.726  54.500 -53.530  1.00  0.00     0.278 HD
BRANCH   3   6
HETATM    6  C   UNL     1     -41.130  54.966 -52.259  1.00  0.00     0.221 C 
HETATM    7  C   UNL     1     -40.599  53.570 -52.496  1.00  0.00    -0.011 A 
HETATM    8  C   UNL     1     -40.268  52.702 -51.442  1.00  0.00     0.009 A 
HETATM    9  C   UNL     1     -40.346  53.142 -53.818  1.00  0.00     0.011 A 
HETATM   10  C   UNL     1     -39.770  51.421 -51.719  1.00  0.00     0.019 A 
HETATM   11  S   UNL     1     -40.418  53.146 -49.723  1.00  0.00    -0.129 SA
HETATM   12  C   UNL     1     -39.560  51.005 -53.032  1.00  0.00     0.001 A 
HETATM   13  C   UNL     1     -39.840  51.869 -54.082  1.00  0.00     0.001 A 
HETATM   14  C   UNL     1     -40.306  54.945 -49.863  1.00  0.00     0.082 C 
HETATM   15  C   UNL     1     -41.389  55.417 -50.813  1.00  0.00     0.048 C 
ENDBRANCH   3   6
ENDBRANCH   2   3
BRANCH   2  16
HETATM   16  C   UNL     1     -41.863  55.953 -55.457  1.00  0.00     0.135 C 
BRANCH  16  17
HETATM   17  C   UNL     1     -42.945  55.123 -56.102  1.00  0.00     0.224 C 
HETATM   18  N   UNL     1     -43.571  55.491 -57.248  1.00  0.00    -0.327 N 
HETATM   19  H   UNL     1     -44.284  54.812 -57.507  1.00  0.00     0.169 HD
HETATM   20  O   UNL     1     -43.226  54.024 -55.602  1.00  0.00    -0.273 OA
BRANCH  18  21
HETATM   21  C   UNL     1     -43.382  56.526 -58.185  1.00  0.00     0.034 A 
HETATM   22  C   UNL     1     -43.869  57.825 -58.083  1.00  0.00     0.032 A 
HETATM   23  C   UNL     1     -43.542  58.784 -59.053  1.00  0.00     0.039 A 
HETATM   24  C   UNL     1     -42.726  58.465 -60.138  1.00  0.00     0.068 A 
HETATM   25  C   UNL     1     -42.262  57.163 -60.267  1.00  0.00     0.039 A 
HETATM   26  C   UNL     1     -42.591  56.203 -59.299  1.00  0.00     0.032 A 
BRANCH  24  27
HETATM   27  O   UNL     1     -42.466  59.503 -60.986  1.00  0.00    -0.356 OA
HETATM   28  C   UNL     1     -41.834  60.649 -60.427  1.00  0.00     0.210 C 
ENDBRANCH  24  27
ENDBRANCH  18  21
ENDBRANCH  16  17
ENDBRANCH   2  16
TORSDOF 6
ENDMDL
MODEL 3
REMARK VINA RESULT:      -6.9      3.207      5.879
REMARK  6 active torsions:
REMARK  status: ('A' for Active; 'I' for Inactive)
REMARK    1  A    between atoms: C_2  and  N_3 
REMARK    2  A    between atoms: C_2  and  C_16 
REMARK    3  A    between atoms: N_3  and  C_6 
REMARK    4  A    between atoms: C_16  and  C_17 
REMARK       I    between atoms: C_17  and  N_18 
REMARK    5  A    between atoms: N_18  and  C_19 
REMARK    6  A    between atoms: C_22  and  O_23 
ROOT
HETATM    1  C   UNL     1     -43.813  53.551 -50.951  1.00  0.00     0.040 C 
HETATM    2  C   UNL     1     -43.468  54.968 -50.522  1.00  0.00     0.191 C 
ENDROOT
BRANCH   2   3
HETATM    3  N   UNL     1     -44.192  55.995 -51.374  1.00  0.00    -0.063 N 
HETATM    4  H   UNL     1     -44.932  55.442 -51.851  1.00  0.00     0.278 HD
HETATM    5  H   UNL     1     -44.706  56.656 -50.781  1.00  0.00     0.278 HD
BRANCH   3   6
HETATM    6  C   UNL     1     -43.492  56.759 -52.482  1.00  0.00     0.221 C 
HETATM    7  C   UNL     1     -42.651  55.914 -53.412  1.00  0.00    -0.011 A 
HETATM    8  C   UNL     1     -41.345  56.277 -53.785  1.00  0.00     0.009 A 
HETATM    9  C   UNL     1     -43.217  54.760 -53.998  1.00  0.00     0.011 A 
HETATM   10  C   UNL     1     -40.614  55.460 -54.659  1.00  0.00     0.019 A 
HETATM   11  S   UNL     1     -40.545  57.766 -53.224  1.00  0.00    -0.129 SA
HETATM   12  C   UNL     1     -41.177  54.306 -55.199  1.00  0.00     0.001 A 
HETATM   13  C   UNL     1     -42.483  53.961 -54.875  1.00  0.00     0.001 A 
HETATM   14  C   UNL     1     -42.000  58.773 -52.855  1.00  0.00     0.082 C 
HETATM   15  C   UNL     1     -42.862  58.017 -51.863  1.00  0.00     0.048 C 
ENDBRANCH   3   6
ENDBRANCH   2   3
BRANCH   2  16
HETATM   16  C   UNL     1     -41.945  55.202 -50.646  1.00  0.00     0.135 C 
BRANCH  16  17
HETATM   17  C   UNL     1     -41.202  54.628 -49.465  1.00  0.00     0.224 C 
HETATM   18  N   UNL     1     -40.596  53.415 -49.495  1.00  0.00    -0.327 N 
HETATM   19  H   UNL     1     -40.172  53.197 -48.596  1.00  0.00     0.169 HD
HETATM   20  O   UNL     1     -41.081  55.324 -48.447  1.00  0.00    -0.273 OA
BRANCH  18  21
HETATM   21  C   UNL     1     -40.346  52.463 -50.504  1.00  0.00     0.034 A 
HETATM   22  C   UNL     1     -40.129  52.731 -51.852  1.00  0.00     0.032 A 
HETATM   23  C   UNL     1     -39.813  51.694 -52.740  1.00  0.00     0.039 A 
HETATM   24  C   UNL     1     -39.706  50.374 -52.302  1.00  0.00     0.068 A 
HETATM   25  C   UNL     1     -39.953  50.091 -50.965  1.00  0.00     0.039 A 
HETATM   26  C   UNL     1     -40.272  51.127 -50.077  1.00  0.00     0.032 A 
BRANCH  24  27
HETATM   27  O   UNL     1     -39.363  49.473 -53.268  1.00  0.00    -0.356 OA
HETATM   28  C   UNL     1     -39.646  49.835 -54.615  1.00  0.00     0.210 C 
ENDBRANCH  24  27
ENDBRANCH  18  21
ENDBRANCH  16  17
ENDBRANCH   2  16
TORSDOF 6
ENDMDL
MODEL 4
REMARK VINA RESULT:      -6.9      1.972      4.349
REMARK  6 active torsions:
REMARK  status: ('A' for Active; 'I' for Inactive)
REMARK    1  A    between atoms: C_2  and  N_3 
REMARK    2  A    between atoms: C_2  and  C_16 
REMARK    3  A    between atoms: N_3  and  C_6 
REMARK    4  A    between atoms: C_16  and  C_17 
REMARK       I    between atoms: C_17  and  N_18 
REMARK    5  A    between atoms: N_18  and  C_19 
REMARK    6  A    between atoms: C_22  and  O_23 
ROOT
HETATM    1  C   UNL     1     -43.283  54.366 -55.570  1.00  0.00     0.040 C 
HETATM    2  C   UNL     1     -43.089  55.433 -54.504  1.00  0.00     0.191 C 
ENDROOT
BRANCH   2   3
HETATM    3  N   UNL     1     -42.967  54.816 -53.122  1.00  0.00    -0.063 N 
HETATM    4  H   UNL     1     -43.618  55.380 -52.540  1.00  0.00     0.278 HD
HETATM    5  H   UNL     1     -43.368  53.871 -53.114  1.00  0.00     0.278 HD
BRANCH   3   6
HETATM    6  C   UNL     1     -41.656  54.808 -52.358  1.00  0.00     0.221 C 
HETATM    7  C   UNL     1     -40.909  53.494 -52.377  1.00  0.00    -0.011 A 
HETATM    8  C   UNL     1     -40.365  52.920 -51.215  1.00  0.00     0.009 A 
HETATM    9  C   UNL     1     -40.672  52.852 -53.613  1.00  0.00     0.011 A 
HETATM   10  C   UNL     1     -39.673  51.703 -51.293  1.00  0.00     0.019 A 
HETATM   11  S   UNL     1     -40.478  53.674 -49.606  1.00  0.00    -0.129 SA
HETATM   12  C   UNL     1     -39.480  51.067 -52.517  1.00  0.00     0.001 A 
HETATM   13  C   UNL     1     -39.972  51.647 -53.679  1.00  0.00     0.001 A 
HETATM   14  C   UNL     1     -40.687  55.402 -50.093  1.00  0.00     0.082 C 
HETATM   15  C   UNL     1     -41.895  55.497 -51.005  1.00  0.00     0.048 C 
ENDBRANCH   3   6
ENDBRANCH   2   3
BRANCH   2  16
HETATM   16  C   UNL     1     -44.288  56.409 -54.509  1.00  0.00     0.135 C 
BRANCH  16  17
HETATM   17  C   UNL     1     -43.980  57.654 -55.304  1.00  0.00     0.224 C 
HETATM   18  N   UNL     1     -43.234  58.675 -54.812  1.00  0.00    -0.327 N 
HETATM   19  H   UNL     1     -43.161  59.431 -55.490  1.00  0.00     0.169 HD
HETATM   20  O   UNL     1     -44.365  57.716 -56.480  1.00  0.00    -0.273 OA
BRANCH  18  21
HETATM   21  C   UNL     1     -42.476  58.867 -53.640  1.00  0.00     0.034 A 
HETATM   22  C   UNL     1     -42.973  59.208 -52.387  1.00  0.00     0.032 A 
HETATM   23  C   UNL     1     -42.114  59.292 -51.281  1.00  0.00     0.039 A 
HETATM   24  C   UNL     1     -40.749  59.037 -51.406  1.00  0.00     0.068 A 
HETATM   25  C   UNL     1     -40.237  58.728 -52.659  1.00  0.00     0.039 A 
HETATM   26  C   UNL     1     -41.095  58.646 -53.765  1.00  0.00     0.032 A 
BRANCH  24  27
HETATM   27  O   UNL     1     -40.039  59.125 -50.243  1.00  0.00    -0.356 OA
HETATM   28  C   UNL     1     -38.818  59.855 -50.288  1.00  0.00     0.210 C 
ENDBRANCH  24  27
ENDBRANCH  18  21
ENDBRANCH  16  17
ENDBRANCH   2  16
TORSDOF 6
ENDMDL
MODEL 5
REMARK VINA RESULT:      -6.9      2.289      3.709
REMARK  6 active torsions:
REMARK  status: ('A' for Active; 'I' for Inactive)
REMARK    1  A    between atoms: C_2  and  N_3 
REMARK    2  A    between atoms: C_2  and  C_16 
REMARK    3  A    between atoms: N_3  and  C_6 
REMARK    4  A    between atoms: C_16  and  C_17 
REMARK       I    between atoms: C_17  and  N_18 
REMARK    5  A    between atoms: N_18  and  C_19 
REMARK    6  A    between atoms: C_22  and  O_23 
ROOT
HETATM    1  C   UNL     1     -44.306  56.664 -54.543  1.00  0.00     0.040 C 
HETATM    2  C   UNL     1     -44.083  55.164 -54.660  1.00  0.00     0.191 C 
ENDROOT
BRANCH   2   3
HETATM    3  N   UNL     1     -43.663  54.563 -53.330  1.00  0.00    -0.063 N 
HETATM    4  H   UNL     1     -44.378  54.915 -52.663  1.00  0.00     0.278 HD
HETATM    5  H   UNL     1     -43.797  53.545 -53.339  1.00  0.00     0.278 HD
BRANCH   3   6
HETATM    6  C   UNL     1     -42.328  54.886 -52.688  1.00  0.00     0.221 C 
HETATM    7  C   UNL     1     -41.356  53.730 -52.610  1.00  0.00    -0.011 A 
HETATM    8  C   UNL     1     -40.644  53.422 -51.438  1.00  0.00     0.009 A 
HETATM    9  C   UNL     1     -41.085  52.976 -53.774  1.00  0.00     0.011 A 
HETATM   10  C   UNL     1     -39.748  52.344 -51.426  1.00  0.00     0.019 A 
HETATM   11  S   UNL     1     -40.790  54.358 -49.930  1.00  0.00    -0.129 SA
HETATM   12  C   UNL     1     -39.521  51.590 -52.575  1.00  0.00     0.001 A 
HETATM   13  C   UNL     1     -40.183  51.912 -53.752  1.00  0.00     0.001 A 
HETATM   14  C   UNL     1     -41.341  55.941 -50.606  1.00  0.00     0.082 C 
HETATM   15  C   UNL     1     -42.601  55.701 -51.414  1.00  0.00     0.048 C 
ENDBRANCH   3   6
ENDBRANCH   2   3
BRANCH   2  16
HETATM   16  C   UNL     1     -42.983  54.874 -55.708  1.00  0.00     0.135 C 
BRANCH  16  17
HETATM   17  C   UNL     1     -42.315  56.145 -56.170  1.00  0.00     0.224 C 
HETATM   18  N   UNL     1     -42.559  56.708 -57.380  1.00  0.00    -0.327 N 
HETATM   19  H   UNL     1     -41.994  57.544 -57.513  1.00  0.00     0.169 HD
HETATM   20  O   UNL     1     -41.564  56.739 -55.382  1.00  0.00    -0.273 OA
BRANCH  18  21
HETATM   21  C   UNL     1     -43.473  56.449 -58.420  1.00  0.00     0.034 A 
HETATM   22  C   UNL     1     -43.353  55.463 -59.393  1.00  0.00     0.032 A 
HETATM   23  C   UNL     1     -44.377  55.261 -60.330  1.00  0.00     0.039 A 
HETATM   24  C   UNL     1     -45.536  56.036 -60.312  1.00  0.00     0.068 A 
HETATM   25  C   UNL     1     -45.652  57.045 -59.365  1.00  0.00     0.039 A 
HETATM   26  C   UNL     1     -44.627  57.249 -58.430  1.00  0.00     0.032 A 
BRANCH  24  27
HETATM   27  O   UNL     1     -46.461  55.709 -61.261  1.00  0.00    -0.356 OA
HETATM   28  C   UNL     1     -47.612  56.542 -61.351  1.00  0.00     0.210 C 
ENDBRANCH  24  27
ENDBRANCH  18  21
ENDBRANCH  16  17
ENDBRANCH   2  16
TORSDOF 6
ENDMDL
MODEL 6
REMARK VINA RESULT:      -6.8     15.215     16.941
REMARK  6 active torsions:
REMARK  status: ('A' for Active; 'I' for Inactive)
REMARK    1  A    between atoms: C_2  and  N_3 
REMARK    2  A    between atoms: C_2  and  C_16 
REMARK    3  A    between atoms: N_3  and  C_6 
REMARK    4  A    between atoms: C_16  and  C_17 
REMARK       I    between atoms: C_17  and  N_18 
REMARK    5  A    between atoms: N_18  and  C_19 
REMARK    6  A    between atoms: C_22  and  O_23 
ROOT
HETATM    1  C   UNL     1     -34.708  39.784 -55.509  1.00  0.00     0.040 C 
HETATM    2  C   UNL     1     -34.032  41.082 -55.095  1.00  0.00     0.191 C 
ENDROOT
BRANCH   2   3
HETATM    3  N   UNL     1     -33.989  41.224 -53.584  1.00  0.00    -0.063 N 
HETATM    4  H   UNL     1     -33.188  41.866 -53.418  1.00  0.00     0.278 HD
HETATM    5  H   UNL     1     -34.808  41.742 -53.249  1.00  0.00     0.278 HD
BRANCH   3   6
HETATM    6  C   UNL     1     -33.741  40.037 -52.672  1.00  0.00     0.221 C 
HETATM    7  C   UNL     1     -34.827  39.773 -51.654  1.00  0.00    -0.011 A 
HETATM    8  C   UNL     1     -34.545  39.519 -50.300  1.00  0.00     0.009 A 
HETATM    9  C   UNL     1     -36.171  39.694 -52.081  1.00  0.00     0.011 A 
HETATM   10  C   UNL     1     -35.591  39.271 -49.401  1.00  0.00     0.019 A 
HETATM   11  S   UNL     1     -32.892  39.465 -49.639  1.00  0.00    -0.129 SA
HETATM   12  C   UNL     1     -36.914  39.232 -49.836  1.00  0.00     0.001 A 
HETATM   13  C   UNL     1     -37.203  39.434 -51.179  1.00  0.00     0.001 A 
HETATM   14  C   UNL     1     -31.976  39.056 -51.142  1.00  0.00     0.082 C 
HETATM   15  C   UNL     1     -32.284  40.108 -52.189  1.00  0.00     0.048 C 
ENDBRANCH   3   6
ENDBRANCH   2   3
BRANCH   2  16
HETATM   16  C   UNL     1     -34.796  42.288 -55.687  1.00  0.00     0.135 C 
BRANCH  16  17
HETATM   17  C   UNL     1     -36.217  42.339 -55.183  1.00  0.00     0.224 C 
HETATM   18  N   UNL     1     -37.288  42.059 -55.968  1.00  0.00    -0.327 N 
HETATM   19  H   UNL     1     -38.158  42.173 -55.451  1.00  0.00     0.169 HD
HETATM   20  O   UNL     1     -36.412  42.579 -53.983  1.00  0.00    -0.273 OA
BRANCH  18  21
HETATM   21  C   UNL     1     -37.447  41.559 -57.276  1.00  0.00     0.034 A 
HETATM   22  C   UNL     1     -37.095  42.212 -58.453  1.00  0.00     0.032 A 
HETATM   23  C   UNL     1     -37.236  41.568 -59.690  1.00  0.00     0.039 A 
HETATM   24  C   UNL     1     -37.727  40.266 -59.776  1.00  0.00     0.068 A 
HETATM   25  C   UNL     1     -38.112  39.617 -58.610  1.00  0.00     0.039 A 
HETATM   26  C   UNL     1     -37.974  40.261 -57.373  1.00  0.00     0.032 A 
BRANCH  24  27
HETATM   27  O   UNL     1     -37.781  39.753 -61.040  1.00  0.00    -0.356 OA
HETATM   28  C   UNL     1     -36.748  38.848 -61.413  1.00  0.00     0.210 C 
ENDBRANCH  24  27
ENDBRANCH  18  21
ENDBRANCH  16  17
ENDBRANCH   2  16
TORSDOF 6
ENDMDL
MODEL 7
REMARK VINA RESULT:      -6.7      2.583      5.784
REMARK  6 active torsions:
REMARK  status: ('A' for Active; 'I' for Inactive)
REMARK    1  A    between atoms: C_2  and  N_3 
REMARK    2  A    between atoms: C_2  and  C_16 
REMARK    3  A    between atoms: N_3  and  C_6 
REMARK    4  A    between atoms: C_16  and  C_17 
REMARK       I    between atoms: C_17  and  N_18 
REMARK    5  A    between atoms: N_18  and  C_19 
REMARK    6  A    between atoms: C_22  and  O_23 
ROOT
HETATM    1  C   UNL     1     -42.528  59.825 -56.833  1.00  0.00     0.040 C 
HETATM    2  C   UNL     1     -43.337  58.547 -56.996  1.00  0.00     0.191 C 
ENDROOT
BRANCH   2   3
HETATM    3  N   UNL     1     -44.100  58.213 -55.726  1.00  0.00    -0.063 N 
HETATM    4  H   UNL     1     -45.096  58.341 -55.996  1.00  0.00     0.278 HD
HETATM    5  H   UNL     1     -44.018  57.213 -55.511  1.00  0.00     0.278 HD
BRANCH   3   6
HETATM    6  C   UNL     1     -43.928  59.014 -54.450  1.00  0.00     0.221 C 
HETATM    7  C   UNL     1     -42.992  58.405 -53.431  1.00  0.00    -0.011 A 
HETATM    8  C   UNL     1     -43.322  58.308 -52.068  1.00  0.00     0.009 A 
HETATM    9  C   UNL     1     -41.704  57.991 -53.837  1.00  0.00     0.011 A 
HETATM   10  C   UNL     1     -42.411  57.743 -51.165  1.00  0.00     0.019 A 
HETATM   11  S   UNL     1     -44.859  58.900 -51.389  1.00  0.00    -0.129 SA
HETATM   12  C   UNL     1     -41.158  57.307 -51.592  1.00  0.00     0.001 A 
HETATM   13  C   UNL     1     -40.801  57.440 -52.927  1.00  0.00     0.001 A 
HETATM   14  C   UNL     1     -45.281  60.144 -52.630  1.00  0.00     0.082 C 
HETATM   15  C   UNL     1     -45.321  59.469 -53.987  1.00  0.00     0.048 C 
ENDBRANCH   3   6
ENDBRANCH   2   3
BRANCH   2  16
HETATM   16  C   UNL     1     -42.398  57.368 -57.339  1.00  0.00     0.135 C 
BRANCH  16  17
HETATM   17  C   UNL     1     -43.181  56.130 -57.702  1.00  0.00     0.224 C 
HETATM   18  N   UNL     1     -43.265  55.047 -56.889  1.00  0.00    -0.327 N 
HETATM   19  H   UNL     1     -43.816  54.309 -57.322  1.00  0.00     0.169 HD
HETATM   20  O   UNL     1     -43.833  56.129 -58.756  1.00  0.00    -0.273 OA
BRANCH  18  21
HETATM   21  C   UNL     1     -42.851  54.770 -55.571  1.00  0.00     0.034 A 
HETATM   22  C   UNL     1     -43.644  54.836 -54.430  1.00  0.00     0.032 A 
HETATM   23  C   UNL     1     -43.126  54.458 -53.183  1.00  0.00     0.039 A 
HETATM   24  C   UNL     1     -41.813  54.008 -53.051  1.00  0.00     0.068 A 
HETATM   25  C   UNL     1     -41.003  53.970 -54.179  1.00  0.00     0.039 A 
HETATM   26  C   UNL     1     -41.519  54.350 -55.425  1.00  0.00     0.032 A 
BRANCH  24  27
HETATM   27  O   UNL     1     -41.453  53.644 -51.786  1.00  0.00    -0.356 OA
HETATM   28  C   UNL     1     -40.129  53.154 -51.609  1.00  0.00     0.210 C 
ENDBRANCH  24  27
ENDBRANCH  18  21
ENDBRANCH  16  17
ENDBRANCH   2  16
TORSDOF 6
ENDMDL
MODEL 8
REMARK VINA RESULT:      -6.7      1.679      2.376
REMARK  6 active torsions:
REMARK  status: ('A' for Active; 'I' for Inactive)
REMARK    1  A    between atoms: C_2  and  N_3 
REMARK    2  A    between atoms: C_2  and  C_16 
REMARK    3  A    between atoms: N_3  and  C_6 
REMARK    4  A    between atoms: C_16  and  C_17 
REMARK       I    between atoms: C_17  and  N_18 
REMARK    5  A    between atoms: N_18  and  C_19 
REMARK    6  A    between atoms: C_22  and  O_23 
ROOT
HETATM    1  C   UNL     1     -41.091  57.649 -53.582  1.00  0.00     0.040 C 
HETATM    2  C   UNL     1     -42.485  57.249 -53.124  1.00  0.00     0.191 C 
ENDROOT
BRANCH   2   3
HETATM    3  N   UNL     1     -42.479  55.879 -52.468  1.00  0.00    -0.063 N 
HETATM    4  H   UNL     1     -43.143  55.981 -51.675  1.00  0.00     0.278 HD
HETATM    5  H   UNL     1     -42.916  55.185 -53.084  1.00  0.00     0.278 HD
BRANCH   3   6
HETATM    6  C   UNL     1     -41.223  55.286 -51.859  1.00  0.00     0.221 C 
HETATM    7  C   UNL     1     -40.737  54.008 -52.506  1.00  0.00    -0.011 A 
HETATM    8  C   UNL     1     -40.355  52.882 -51.757  1.00  0.00     0.009 A 
HETATM    9  C   UNL     1     -40.580  53.961 -53.909  1.00  0.00     0.011 A 
HETATM   10  C   UNL     1     -39.903  51.726 -52.409  1.00  0.00     0.019 A 
HETATM   11  S   UNL     1     -40.383  52.837 -49.976  1.00  0.00    -0.129 SA
HETATM   12  C   UNL     1     -39.789  51.687 -53.797  1.00  0.00     0.001 A 
HETATM   13  C   UNL     1     -40.119  52.808 -54.547  1.00  0.00     0.001 A 
HETATM   14  C   UNL     1     -40.243  54.604 -49.624  1.00  0.00     0.082 C 
HETATM   15  C   UNL     1     -41.376  55.321 -50.331  1.00  0.00     0.048 C 
ENDBRANCH   3   6
ENDBRANCH   2   3
BRANCH   2  16
HETATM   16  C   UNL     1     -43.450  57.219 -54.332  1.00  0.00     0.135 C 
BRANCH  16  17
HETATM   17  C   UNL     1     -43.734  58.609 -54.844  1.00  0.00     0.224 C 
HETATM   18  N   UNL     1     -43.775  58.913 -56.165  1.00  0.00    -0.327 N 
HETATM   19  H   UNL     1     -43.955  59.905 -56.305  1.00  0.00     0.169 HD
HETATM   20  O   UNL     1     -44.010  59.497 -54.024  1.00  0.00    -0.273 OA
BRANCH  18  21
HETATM   21  C   UNL     1     -43.724  58.156 -57.352  1.00  0.00     0.034 A 
HETATM   22  C   UNL     1     -42.581  57.620 -57.937  1.00  0.00     0.032 A 
HETATM   23  C   UNL     1     -42.680  56.817 -59.082  1.00  0.00     0.039 A 
HETATM   24  C   UNL     1     -43.916  56.533 -59.662  1.00  0.00     0.068 A 
HETATM   25  C   UNL     1     -45.060  57.091 -59.106  1.00  0.00     0.039 A 
HETATM   26  C   UNL     1     -44.962  57.896 -57.963  1.00  0.00     0.032 A 
BRANCH  24  27
HETATM   27  O   UNL     1     -43.865  55.715 -60.753  1.00  0.00    -0.356 OA
HETATM   28  C   UNL     1     -45.064  55.030 -61.101  1.00  0.00     0.210 C 
ENDBRANCH  24  27
ENDBRANCH  18  21
ENDBRANCH  16  17
ENDBRANCH   2  16
TORSDOF 6
ENDMDL
MODEL 9
REMARK VINA RESULT:      -6.6      3.238      6.145
REMARK  6 active torsions:
REMARK  status: ('A' for Active; 'I' for Inactive)
REMARK    1  A    between atoms: C_2  and  N_3 
REMARK    2  A    between atoms: C_2  and  C_16 
REMARK    3  A    between atoms: N_3  and  C_6 
REMARK    4  A    between atoms: C_16  and  C_17 
REMARK       I    between atoms: C_17  and  N_18 
REMARK    5  A    between atoms: N_18  and  C_19 
REMARK    6  A    between atoms: C_22  and  O_23 
ROOT
HETATM    1  C   UNL     1     -42.561  57.957 -57.237  1.00  0.00     0.040 C 
HETATM    2  C   UNL     1     -42.993  57.907 -55.779  1.00  0.00     0.191 C 
ENDROOT
BRANCH   2   3
HETATM    3  N   UNL     1     -41.852  58.287 -54.853  1.00  0.00    -0.063 N 
HETATM    4  H   UNL     1     -41.914  57.590 -54.084  1.00  0.00     0.278 HD
HETATM    5  H   UNL     1     -40.948  58.097 -55.301  1.00  0.00     0.278 HD
BRANCH   3   6
HETATM    6  C   UNL     1     -41.793  59.636 -54.161  1.00  0.00     0.221 C 
HETATM    7  C   UNL     1     -41.481  59.586 -52.682  1.00  0.00    -0.011 A 
HETATM    8  C   UNL     1     -42.212  60.321 -51.733  1.00  0.00     0.009 A 
HETATM    9  C   UNL     1     -40.366  58.842 -52.236  1.00  0.00     0.011 A 
HETATM   10  C   UNL     1     -41.872  60.244 -50.375  1.00  0.00     0.019 A 
HETATM   11  S   UNL     1     -43.565  61.397 -52.160  1.00  0.00    -0.129 SA
HETATM   12  C   UNL     1     -40.790  59.477 -49.951  1.00  0.00     0.001 A 
HETATM   13  C   UNL     1     -40.031  58.782 -50.883  1.00  0.00     0.001 A 
HETATM   14  C   UNL     1     -43.130  61.769 -53.874  1.00  0.00     0.082 C 
HETATM   15  C   UNL     1     -43.003  60.459 -54.628  1.00  0.00     0.048 C 
ENDBRANCH   3   6
ENDBRANCH   2   3
BRANCH   2  16
HETATM   16  C   UNL     1     -43.474  56.482 -55.420  1.00  0.00     0.135 C 
BRANCH  16  17
HETATM   17  C   UNL     1     -43.895  56.393 -53.974  1.00  0.00     0.224 C 
HETATM   18  N   UNL     1     -43.447  55.425 -53.135  1.00  0.00    -0.327 N 
HETATM   19  H   UNL     1     -43.864  55.522 -52.211  1.00  0.00     0.169 HD
HETATM   20  O   UNL     1     -44.625  57.282 -53.513  1.00  0.00    -0.273 OA
BRANCH  18  21
HETATM   21  C   UNL     1     -42.479  54.406 -53.234  1.00  0.00     0.034 A 
HETATM   22  C   UNL     1     -42.243  53.602 -54.344  1.00  0.00     0.032 A 
HETATM   23  C   UNL     1     -41.192  52.673 -54.338  1.00  0.00     0.039 A 
HETATM   24  C   UNL     1     -40.361  52.530 -53.227  1.00  0.00     0.068 A 
HETATM   25  C   UNL     1     -40.608  53.304 -52.101  1.00  0.00     0.039 A 
HETATM   26  C   UNL     1     -41.660  54.231 -52.107  1.00  0.00     0.032 A 
BRANCH  24  27
HETATM   27  O   UNL     1     -39.362  51.611 -53.371  1.00  0.00    -0.356 OA
HETATM   28  C   UNL     1     -39.691  50.402 -54.046  1.00  0.00     0.210 C 
ENDBRANCH  24  27
ENDBRANCH  18  21
ENDBRANCH  16  17
ENDBRANCH   2  16
TORSDOF 6
ENDMDL
MODEL 10
REMARK VINA RESULT:      -6.6      3.318      6.063
REMARK  6 active torsions:
REMARK  status: ('A' for Active; 'I' for Inactive)
REMARK    1  A    between atoms: C_2  and  N_3 
REMARK    2  A    between atoms: C_2  and  C_16 
REMARK    3  A    between atoms: N_3  and  C_6 
REMARK    4  A    between atoms: C_16  and  C_17 
REMARK       I    between atoms: C_17  and  N_18 
REMARK    5  A    between atoms: N_18  and  C_19 
REMARK    6  A    between atoms: C_22  and  O_23 
ROOT
HETATM    1  C   UNL     1     -42.412  56.155 -59.653  1.00  0.00     0.040 C 
HETATM    2  C   UNL     1     -43.645  55.770 -58.849  1.00  0.00     0.191 C 
ENDROOT
BRANCH   2   3
HETATM    3  N   UNL     1     -43.264  55.198 -57.495  1.00  0.00    -0.063 N 
HETATM    4  H   UNL     1     -44.156  54.806 -57.132  1.00  0.00     0.278 HD
HETATM    5  H   UNL     1     -42.652  54.382 -57.610  1.00  0.00     0.278 HD
BRANCH   3   6
HETATM    6  C   UNL     1     -42.729  56.071 -56.375  1.00  0.00     0.221 C 
HETATM    7  C   UNL     1     -42.076  55.323 -55.235  1.00  0.00    -0.011 A 
HETATM    8  C   UNL     1     -42.359  55.607 -53.888  1.00  0.00     0.009 A 
HETATM    9  C   UNL     1     -41.083  54.359 -55.520  1.00  0.00     0.011 A 
HETATM   10  C   UNL     1     -41.716  54.889 -52.870  1.00  0.00     0.019 A 
HETATM   11  S   UNL     1     -43.496  56.878 -53.374  1.00  0.00    -0.129 SA
HETATM   12  C   UNL     1     -40.764  53.917 -53.173  1.00  0.00     0.001 A 
HETATM   13  C   UNL     1     -40.441  53.658 -54.498  1.00  0.00     0.001 A 
HETATM   14  C   UNL     1     -43.433  57.950 -54.828  1.00  0.00     0.082 C 
HETATM   15  C   UNL     1     -43.799  57.123 -56.045  1.00  0.00     0.048 C 
ENDBRANCH   3   6
ENDBRANCH   2   3
BRANCH   2  16
HETATM   16  C   UNL     1     -44.470  54.715 -59.622  1.00  0.00     0.135 C 
BRANCH  16  17
HETATM   17  C   UNL     1     -45.081  55.301 -60.870  1.00  0.00     0.224 C 
HETATM   18  N   UNL     1     -45.795  56.454 -60.869  1.00  0.00    -0.327 N 
HETATM   19  H   UNL     1     -46.142  56.668 -61.802  1.00  0.00     0.169 HD
HETATM   20  O   UNL     1     -44.862  54.743 -61.955  1.00  0.00    -0.273 OA
BRANCH  18  21
HETATM   21  C   UNL     1     -46.066  57.444 -59.904  1.00  0.00     0.034 A 
HETATM   22  C   UNL     1     -46.969  57.340 -58.851  1.00  0.00     0.032 A 
HETATM   23  C   UNL     1     -47.086  58.375 -57.912  1.00  0.00     0.039 A 
HETATM   24  C   UNL     1     -46.308  59.528 -58.005  1.00  0.00     0.068 A 
HETATM   25  C   UNL     1     -45.428  59.657 -59.072  1.00  0.00     0.039 A 
HETATM   26  C   UNL     1     -45.311  58.624 -60.012  1.00  0.00     0.032 A 
BRANCH  24  27
HETATM   27  O   UNL     1     -46.505  60.438 -57.007  1.00  0.00    -0.356 OA
HETATM   28  C   UNL     1     -45.355  60.858 -56.282  1.00  0.00     0.210 C 
ENDBRANCH  24  27
ENDBRANCH  18  21
ENDBRANCH  16  17
ENDBRANCH   2  16
TORSDOF 6
ENDMDL
