MODEL 1
REMARK VINA RESULT:      -7.9      0.000      0.000
REMARK  3 active torsions:
REMARK  status: ('A' for Active; 'I' for Inactive)
REMARK    1  A    between atoms: C_3  and  N_4 
REMARK       I    between atoms: N_4  and  C_5 
REMARK    2  A    between atoms: C_5  and  C_6 
REMARK    3  A    between atoms: C_6  and  C_7 
ROOT
HETATM    1  C   UNL     1     -42.513  56.718 -51.748  1.00  0.00     0.286 C 
HETATM    2  N   UNL     1     -42.047  56.424 -53.176  1.00  0.00    -0.056 N 
HETATM    3  H   UNL     1     -41.026  56.482 -53.253  1.00  0.00     0.278 HD
HETATM    4  H   UNL     1     -42.310  55.432 -53.360  1.00  0.00     0.278 HD
HETATM    5  C   UNL     1     -42.731  57.300 -54.182  1.00  0.00     0.209 C 
HETATM    6  C   UNL     1     -44.252  57.051 -54.081  1.00  0.00     0.115 C 
HETATM    7  N   UNL     1     -44.744  57.277 -52.726  1.00  0.00    -0.353 N 
HETATM    8  C   UNL     1     -44.053  56.841 -51.616  1.00  0.00     0.249 C 
HETATM    9  O   UNL     1     -44.639  56.665 -50.554  1.00  0.00    -0.271 OA
HETATM   10  C   UNL     1     -42.203  56.993 -55.577  1.00  0.00     0.035 C 
HETATM   11  C   UNL     1     -42.946  57.832 -56.618  1.00  0.00     0.002 C 
HETATM   12  C   UNL     1     -44.462  57.654 -56.523  1.00  0.00     0.002 C 
HETATM   13  C   UNL     1     -44.992  57.908 -55.109  1.00  0.00     0.027 C 
HETATM   14  H   UNL     1     -45.752  57.277 -52.579  1.00  0.00     0.163 HD
ENDROOT
BRANCH   1  15
HETATM   15  C   UNL     1     -41.948  55.676 -50.775  1.00  0.00     0.146 C 
BRANCH  15  16
HETATM   16  C   UNL     1     -41.855  54.331 -51.457  1.00  0.00     0.224 C 
HETATM   17  N   UNL     1     -40.565  53.916 -51.697  1.00  0.00    -0.327 N 
HETATM   18  H   UNL     1     -39.862  54.640 -51.806  1.00  0.00     0.169 HD
HETATM   19  O   UNL     1     -42.888  53.779 -51.838  1.00  0.00    -0.273 OA
BRANCH  17  20
HETATM   20  C   UNL     1     -40.234  52.666 -52.267  1.00  0.00     0.040 A 
HETATM   21  C   UNL     1     -40.235  52.414 -53.652  1.00  0.00    -0.035 A 
HETATM   22  C   UNL     1     -40.700  53.403 -54.686  1.00  0.00     0.050 C 
HETATM   23  C   UNL     1     -39.839  51.143 -54.107  1.00  0.00     0.009 A 
HETATM   24  C   UNL     1     -39.501  50.130 -53.210  1.00  0.00     0.001 A 
HETATM   25  C   UNL     1     -39.569  50.366 -51.842  1.00  0.00     0.002 A 
HETATM   26  C   UNL     1     -39.948  51.624 -51.373  1.00  0.00     0.030 A 
ENDBRANCH  17  20
ENDBRANCH  15  16
ENDBRANCH   1  15
TORSDOF 3
ENDMDL
MODEL 2
REMARK VINA RESULT:      -7.8      3.080      4.085
REMARK  3 active torsions:
REMARK  status: ('A' for Active; 'I' for Inactive)
REMARK    1  A    between atoms: C_3  and  N_4 
REMARK       I    between atoms: N_4  and  C_5 
REMARK    2  A    between atoms: C_5  and  C_6 
REMARK    3  A    between atoms: C_6  and  C_7 
ROOT
HETATM    1  C   UNL     1     -42.400  56.296 -56.395  1.00  0.00     0.286 C 
HETATM    2  N   UNL     1     -43.269  55.249 -57.095  1.00  0.00    -0.056 N 
HETATM    3  H   UNL     1     -42.886  54.306 -56.974  1.00  0.00     0.278 HD
HETATM    4  H   UNL     1     -44.188  55.269 -56.600  1.00  0.00     0.278 HD
HETATM    5  C   UNL     1     -43.492  55.578 -58.540  1.00  0.00     0.209 C 
HETATM    6  C   UNL     1     -44.188  56.954 -58.619  1.00  0.00     0.115 C 
HETATM    7  N   UNL     1     -43.419  57.985 -57.930  1.00  0.00    -0.353 N 
HETATM    8  C   UNL     1     -42.819  57.755 -56.710  1.00  0.00     0.249 C 
HETATM    9  O   UNL     1     -42.545  58.694 -55.971  1.00  0.00    -0.271 OA
HETATM   10  C   UNL     1     -44.329  54.487 -59.195  1.00  0.00     0.035 C 
HETATM   11  C   UNL     1     -44.619  54.849 -60.652  1.00  0.00     0.002 C 
HETATM   12  C   UNL     1     -45.267  56.228 -60.782  1.00  0.00     0.002 C 
HETATM   13  C   UNL     1     -44.458  57.322 -60.079  1.00  0.00     0.027 C 
HETATM   14  H   UNL     1     -43.716  58.954 -58.038  1.00  0.00     0.163 HD
ENDROOT
BRANCH   1  15
HETATM   15  C   UNL     1     -42.361  56.037 -54.884  1.00  0.00     0.146 C 
BRANCH  15  16
HETATM   16  C   UNL     1     -41.302  55.008 -54.565  1.00  0.00     0.224 C 
HETATM   17  N   UNL     1     -41.759  53.956 -53.803  1.00  0.00    -0.327 N 
HETATM   18  H   UNL     1     -42.552  54.139 -53.197  1.00  0.00     0.169 HD
HETATM   19  O   UNL     1     -40.136  55.227 -54.892  1.00  0.00    -0.273 OA
BRANCH  17  20
HETATM   20  C   UNL     1     -40.963  52.847 -53.437  1.00  0.00     0.040 A 
HETATM   21  C   UNL     1     -40.324  52.723 -52.189  1.00  0.00    -0.035 A 
HETATM   22  C   UNL     1     -40.310  53.802 -51.140  1.00  0.00     0.050 C 
HETATM   23  C   UNL     1     -39.598  51.549 -51.917  1.00  0.00     0.009 A 
HETATM   24  C   UNL     1     -39.465  50.546 -52.876  1.00  0.00     0.001 A 
HETATM   25  C   UNL     1     -40.042  50.707 -54.130  1.00  0.00     0.002 A 
HETATM   26  C   UNL     1     -40.776  51.859 -54.414  1.00  0.00     0.030 A 
ENDBRANCH  17  20
ENDBRANCH  15  16
ENDBRANCH   1  15
TORSDOF 3
ENDMDL
MODEL 3
REMARK VINA RESULT:      -7.8      2.349      3.415
REMARK  3 active torsions:
REMARK  status: ('A' for Active; 'I' for Inactive)
REMARK    1  A    between atoms: C_3  and  N_4 
REMARK       I    between atoms: N_4  and  C_5 
REMARK    2  A    between atoms: C_5  and  C_6 
REMARK    3  A    between atoms: C_6  and  C_7 
ROOT
HETATM    1  C   UNL     1     -43.020  56.686 -55.050  1.00  0.00     0.286 C 
HETATM    2  N   UNL     1     -42.150  57.514 -55.998  1.00  0.00    -0.056 N 
HETATM    3  H   UNL     1     -41.996  58.459 -55.632  1.00  0.00     0.278 HD
HETATM    4  H   UNL     1     -41.221  57.040 -56.014  1.00  0.00     0.278 HD
HETATM    5  C   UNL     1     -42.703  57.540 -57.391  1.00  0.00     0.209 C 
HETATM    6  C   UNL     1     -42.777  56.086 -57.906  1.00  0.00     0.115 C 
HETATM    7  N   UNL     1     -43.564  55.240 -57.014  1.00  0.00    -0.353 N 
HETATM    8  C   UNL     1     -43.449  55.319 -55.643  1.00  0.00     0.249 C 
HETATM    9  O   UNL     1     -43.778  54.370 -54.940  1.00  0.00    -0.271 OA
HETATM   10  C   UNL     1     -41.822  58.407 -58.281  1.00  0.00     0.035 C 
HETATM   11  C   UNL     1     -42.340  58.382 -59.719  1.00  0.00     0.002 C 
HETATM   12  C   UNL     1     -42.475  56.956 -60.255  1.00  0.00     0.002 C 
HETATM   13  C   UNL     1     -43.315  56.065 -59.338  1.00  0.00     0.027 C 
HETATM   14  H   UNL     1     -43.793  54.299 -57.329  1.00  0.00     0.163 HD
ENDROOT
BRANCH   1  15
HETATM   15  C   UNL     1     -42.323  56.515 -53.694  1.00  0.00     0.146 C 
BRANCH  15  16
HETATM   16  C   UNL     1     -41.305  55.402 -53.775  1.00  0.00     0.224 C 
HETATM   17  N   UNL     1     -41.639  54.286 -53.041  1.00  0.00    -0.327 N 
HETATM   18  H   UNL     1     -42.237  54.430 -52.234  1.00  0.00     0.169 HD
HETATM   19  O   UNL     1     -40.244  55.601 -54.367  1.00  0.00    -0.273 OA
BRANCH  17  20
HETATM   20  C   UNL     1     -40.869  53.101 -53.017  1.00  0.00     0.040 A 
HETATM   21  C   UNL     1     -40.074  52.709 -51.924  1.00  0.00    -0.035 A 
HETATM   22  C   UNL     1     -39.852  53.554 -50.699  1.00  0.00     0.050 C 
HETATM   23  C   UNL     1     -39.391  51.481 -51.994  1.00  0.00     0.009 A 
HETATM   24  C   UNL     1     -39.451  50.687 -53.139  1.00  0.00     0.001 A 
HETATM   25  C   UNL     1     -40.183  51.115 -54.239  1.00  0.00     0.002 A 
HETATM   26  C   UNL     1     -40.878  52.324 -54.184  1.00  0.00     0.030 A 
ENDBRANCH  17  20
ENDBRANCH  15  16
ENDBRANCH   1  15
TORSDOF 3
ENDMDL
MODEL 4
REMARK VINA RESULT:      -7.5      2.030      6.713
REMARK  3 active torsions:
REMARK  status: ('A' for Active; 'I' for Inactive)
REMARK    1  A    between atoms: C_3  and  N_4 
REMARK       I    between atoms: N_4  and  C_5 
REMARK    2  A    between atoms: C_5  and  C_6 
REMARK    3  A    between atoms: C_6  and  C_7 
ROOT
HETATM    1  C   UNL     1     -41.441  54.657 -50.376  1.00  0.00     0.286 C 
HETATM    2  N   UNL     1     -41.020  54.645 -51.848  1.00  0.00    -0.056 N 
HETATM    3  H   UNL     1     -41.644  55.225 -52.418  1.00  0.00     0.278 HD
HETATM    4  H   UNL     1     -40.079  55.095 -51.875  1.00  0.00     0.278 HD
HETATM    5  C   UNL     1     -40.906  53.252 -52.388  1.00  0.00     0.209 C 
HETATM    6  C   UNL     1     -39.852  52.495 -51.550  1.00  0.00     0.115 C 
HETATM    7  N   UNL     1     -40.184  52.512 -50.129  1.00  0.00    -0.353 N 
HETATM    8  C   UNL     1     -40.657  53.646 -49.503  1.00  0.00     0.249 C 
HETATM    9  O   UNL     1     -40.541  53.773 -48.289  1.00  0.00    -0.271 OA
HETATM   10  C   UNL     1     -40.522  53.299 -53.862  1.00  0.00     0.035 C 
HETATM   11  C   UNL     1     -40.335  51.882 -54.403  1.00  0.00     0.002 C 
HETATM   12  C   UNL     1     -39.333  51.078 -53.572  1.00  0.00     0.002 C 
HETATM   13  C   UNL     1     -39.683  51.071 -52.082  1.00  0.00     0.027 C 
HETATM   14  H   UNL     1     -39.633  51.926 -49.504  1.00  0.00     0.163 HD
ENDROOT
BRANCH   1  15
HETATM   15  C   UNL     1     -41.353  56.078 -49.806  1.00  0.00     0.146 C 
BRANCH  15  16
HETATM   16  C   UNL     1     -41.858  57.074 -50.823  1.00  0.00     0.224 C 
HETATM   17  N   UNL     1     -43.230  57.141 -50.904  1.00  0.00    -0.327 N 
HETATM   18  H   UNL     1     -43.747  56.307 -50.644  1.00  0.00     0.169 HD
HETATM   19  O   UNL     1     -41.050  57.645 -51.556  1.00  0.00    -0.273 OA
BRANCH  17  20
HETATM   20  C   UNL     1     -43.926  58.044 -51.739  1.00  0.00     0.040 A 
HETATM   21  C   UNL     1     -44.283  57.760 -53.071  1.00  0.00    -0.035 A 
HETATM   22  C   UNL     1     -43.868  56.513 -53.805  1.00  0.00     0.050 C 
HETATM   23  C   UNL     1     -45.020  58.718 -53.791  1.00  0.00     0.009 A 
HETATM   24  C   UNL     1     -45.349  59.949 -53.224  1.00  0.00     0.001 A 
HETATM   25  C   UNL     1     -44.933  60.249 -51.932  1.00  0.00     0.002 A 
HETATM   26  C   UNL     1     -44.213  59.306 -51.198  1.00  0.00     0.030 A 
ENDBRANCH  17  20
ENDBRANCH  15  16
ENDBRANCH   1  15
TORSDOF 3
ENDMDL
MODEL 5
REMARK VINA RESULT:      -7.5     14.525     16.796
REMARK  3 active torsions:
REMARK  status: ('A' for Active; 'I' for Inactive)
REMARK    1  A    between atoms: C_3  and  N_4 
REMARK       I    between atoms: N_4  and  C_5 
REMARK    2  A    between atoms: C_5  and  C_6 
REMARK    3  A    between atoms: C_6  and  C_7 
ROOT
HETATM    1  C   UNL     1     -35.589  41.149 -53.369  1.00  0.00     0.286 C 
HETATM    2  N   UNL     1     -34.113  41.403 -53.053  1.00  0.00    -0.056 N 
HETATM    3  H   UNL     1     -33.545  41.407 -53.906  1.00  0.00     0.278 HD
HETATM    4  H   UNL     1     -34.072  42.366 -52.655  1.00  0.00     0.278 HD
HETATM    5  C   UNL     1     -33.582  40.438 -52.036  1.00  0.00     0.209 C 
HETATM    6  C   UNL     1     -34.414  40.593 -50.744  1.00  0.00     0.115 C 
HETATM    7  N   UNL     1     -35.839  40.402 -50.998  1.00  0.00    -0.353 N 
HETATM    8  C   UNL     1     -36.462  40.935 -52.106  1.00  0.00     0.249 C 
HETATM    9  O   UNL     1     -37.673  41.123 -52.102  1.00  0.00    -0.271 OA
HETATM   10  C   UNL     1     -32.104  40.711 -51.788  1.00  0.00     0.035 C 
HETATM   11  C   UNL     1     -31.572  39.776 -50.701  1.00  0.00     0.002 C 
HETATM   12  C   UNL     1     -32.397  39.862 -49.416  1.00  0.00     0.002 C 
HETATM   13  C   UNL     1     -33.892  39.642 -49.667  1.00  0.00     0.027 C 
HETATM   14  H   UNL     1     -36.462  40.344 -50.194  1.00  0.00     0.163 HD
ENDROOT
BRANCH   1  15
HETATM   15  C   UNL     1     -36.148  42.271 -54.253  1.00  0.00     0.146 C 
BRANCH  15  16
HETATM   16  C   UNL     1     -35.992  41.904 -55.711  1.00  0.00     0.224 C 
HETATM   17  N   UNL     1     -37.167  41.528 -56.320  1.00  0.00    -0.327 N 
HETATM   18  H   UNL     1     -37.886  41.129 -55.724  1.00  0.00     0.169 HD
HETATM   19  O   UNL     1     -34.863  41.857 -56.199  1.00  0.00    -0.273 OA
BRANCH  17  20
HETATM   20  C   UNL     1     -37.273  41.203 -57.691  1.00  0.00     0.040 A 
HETATM   21  C   UNL     1     -37.455  39.892 -58.171  1.00  0.00    -0.035 A 
HETATM   22  C   UNL     1     -37.441  38.667 -57.298  1.00  0.00     0.050 C 
HETATM   23  C   UNL     1     -37.598  39.696 -59.557  1.00  0.00     0.009 A 
HETATM   24  C   UNL     1     -37.510  40.764 -60.449  1.00  0.00     0.001 A 
HETATM   25  C   UNL     1     -37.262  42.045 -59.972  1.00  0.00     0.002 A 
HETATM   26  C   UNL     1     -37.130  42.261 -58.600  1.00  0.00     0.030 A 
ENDBRANCH  17  20
ENDBRANCH  15  16
ENDBRANCH   1  15
TORSDOF 3
ENDMDL
MODEL 6
REMARK VINA RESULT:      -7.4      2.598      6.765
REMARK  3 active torsions:
REMARK  status: ('A' for Active; 'I' for Inactive)
REMARK    1  A    between atoms: C_3  and  N_4 
REMARK       I    between atoms: N_4  and  C_5 
REMARK    2  A    between atoms: C_5  and  C_6 
REMARK    3  A    between atoms: C_6  and  C_7 
ROOT
HETATM    1  C   UNL     1     -41.946  55.575 -53.843  1.00  0.00     0.286 C 
HETATM    2  N   UNL     1     -41.042  54.520 -54.485  1.00  0.00    -0.056 N 
HETATM    3  H   UNL     1     -41.340  54.308 -55.443  1.00  0.00     0.278 HD
HETATM    4  H   UNL     1     -40.099  54.960 -54.551  1.00  0.00     0.278 HD
HETATM    5  C   UNL     1     -40.940  53.282 -53.646  1.00  0.00     0.209 C 
HETATM    6  C   UNL     1     -40.363  53.678 -52.270  1.00  0.00     0.115 C 
HETATM    7  N   UNL     1     -41.167  54.715 -51.630  1.00  0.00    -0.353 N 
HETATM    8  C   UNL     1     -41.667  55.790 -52.334  1.00  0.00     0.249 C 
HETATM    9  O   UNL     1     -41.967  56.824 -51.748  1.00  0.00    -0.271 OA
HETATM   10  C   UNL     1     -40.062  52.254 -54.348  1.00  0.00     0.035 C 
HETATM   11  C   UNL     1     -39.896  51.015 -53.468  1.00  0.00     0.002 C 
HETATM   12  C   UNL     1     -39.371  51.367 -52.075  1.00  0.00     0.002 C 
HETATM   13  C   UNL     1     -40.218  52.439 -51.386  1.00  0.00     0.027 C 
HETATM   14  H   UNL     1     -40.956  54.951 -50.661  1.00  0.00     0.163 HD
ENDROOT
BRANCH   1  15
HETATM   15  C   UNL     1     -41.867  56.894 -54.622  1.00  0.00     0.146 C 
BRANCH  15  16
HETATM   16  C   UNL     1     -42.823  56.860 -55.791  1.00  0.00     0.224 C 
HETATM   17  N   UNL     1     -42.218  56.592 -56.998  1.00  0.00    -0.327 N 
HETATM   18  H   UNL     1     -41.241  56.853 -57.090  1.00  0.00     0.169 HD
HETATM   19  O   UNL     1     -44.000  57.174 -55.613  1.00  0.00    -0.273 OA
BRANCH  17  20
HETATM   20  C   UNL     1     -42.921  56.449 -58.216  1.00  0.00     0.040 A 
HETATM   21  C   UNL     1     -43.082  57.489 -59.151  1.00  0.00    -0.035 A 
HETATM   22  C   UNL     1     -42.630  58.906 -58.919  1.00  0.00     0.050 C 
HETATM   23  C   UNL     1     -43.759  57.216 -60.353  1.00  0.00     0.009 A 
HETATM   24  C   UNL     1     -44.309  55.959 -60.601  1.00  0.00     0.001 A 
HETATM   25  C   UNL     1     -44.205  54.958 -59.643  1.00  0.00     0.002 A 
HETATM   26  C   UNL     1     -43.527  55.206 -58.449  1.00  0.00     0.030 A 
ENDBRANCH  17  20
ENDBRANCH  15  16
ENDBRANCH   1  15
TORSDOF 3
ENDMDL
MODEL 7
REMARK VINA RESULT:      -7.3     14.675     16.777
REMARK  3 active torsions:
REMARK  status: ('A' for Active; 'I' for Inactive)
REMARK    1  A    between atoms: C_3  and  N_4 
REMARK       I    between atoms: N_4  and  C_5 
REMARK    2  A    between atoms: C_5  and  C_6 
REMARK    3  A    between atoms: C_6  and  C_7 
ROOT
HETATM    1  C   UNL     1     -36.451  41.102 -51.609  1.00  0.00     0.286 C 
HETATM    2  N   UNL     1     -35.989  39.674 -51.309  1.00  0.00    -0.056 N 
HETATM    3  H   UNL     1     -36.695  39.159 -50.773  1.00  0.00     0.278 HD
HETATM    4  H   UNL     1     -35.908  39.203 -52.236  1.00  0.00     0.278 HD
HETATM    5  C   UNL     1     -34.650  39.646 -50.635  1.00  0.00     0.209 C 
HETATM    6  C   UNL     1     -33.626  40.327 -51.569  1.00  0.00     0.115 C 
HETATM    7  N   UNL     1     -34.040  41.681 -51.922  1.00  0.00    -0.353 N 
HETATM    8  C   UNL     1     -35.346  41.986 -52.241  1.00  0.00     0.249 C 
HETATM    9  O   UNL     1     -35.601  42.981 -52.912  1.00  0.00    -0.271 OA
HETATM   10  C   UNL     1     -34.257  38.207 -50.326  1.00  0.00     0.035 C 
HETATM   11  C   UNL     1     -32.862  38.164 -49.702  1.00  0.00     0.002 C 
HETATM   12  C   UNL     1     -31.823  38.871 -50.572  1.00  0.00     0.002 C 
HETATM   13  C   UNL     1     -32.237  40.300 -50.932  1.00  0.00     0.027 C 
HETATM   14  H   UNL     1     -33.373  42.269 -52.419  1.00  0.00     0.163 HD
ENDROOT
BRANCH   1  15
HETATM   15  C   UNL     1     -37.718  41.084 -52.472  1.00  0.00     0.146 C 
BRANCH  15  16
HETATM   16  C   UNL     1     -37.384  40.615 -53.869  1.00  0.00     0.224 C 
HETATM   17  N   UNL     1     -37.721  41.514 -54.855  1.00  0.00    -0.327 N 
HETATM   18  H   UNL     1     -38.487  42.149 -54.654  1.00  0.00     0.169 HD
HETATM   19  O   UNL     1     -36.961  39.470 -54.031  1.00  0.00    -0.273 OA
BRANCH  17  20
HETATM   20  C   UNL     1     -37.446  41.316 -56.227  1.00  0.00     0.040 A 
HETATM   21  C   UNL     1     -36.249  41.717 -56.849  1.00  0.00    -0.035 A 
HETATM   22  C   UNL     1     -35.168  42.507 -56.163  1.00  0.00     0.050 C 
HETATM   23  C   UNL     1     -36.066  41.421 -58.213  1.00  0.00     0.009 A 
HETATM   24  C   UNL     1     -37.065  40.792 -58.954  1.00  0.00     0.001 A 
HETATM   25  C   UNL     1     -38.271  40.461 -58.348  1.00  0.00     0.002 A 
HETATM   26  C   UNL     1     -38.466  40.734 -56.994  1.00  0.00     0.030 A 
ENDBRANCH  17  20
ENDBRANCH  15  16
ENDBRANCH   1  15
TORSDOF 3
ENDMDL
MODEL 8
REMARK VINA RESULT:      -7.3     14.639     16.980
REMARK  3 active torsions:
REMARK  status: ('A' for Active; 'I' for Inactive)
REMARK    1  A    between atoms: C_3  and  N_4 
REMARK       I    between atoms: N_4  and  C_5 
REMARK    2  A    between atoms: C_5  and  C_6 
REMARK    3  A    between atoms: C_6  and  C_7 
ROOT
HETATM    1  C   UNL     1     -35.283  41.266 -54.167  1.00  0.00     0.286 C 
HETATM    2  N   UNL     1     -33.806  40.894 -54.015  1.00  0.00    -0.056 N 
HETATM    3  H   UNL     1     -33.472  40.358 -54.823  1.00  0.00     0.278 HD
HETATM    4  H   UNL     1     -33.286  41.798 -54.014  1.00  0.00     0.278 HD
HETATM    5  C   UNL     1     -33.536  40.181 -52.724  1.00  0.00     0.209 C 
HETATM    6  C   UNL     1     -33.950  41.112 -51.564  1.00  0.00     0.115 C 
HETATM    7  N   UNL     1     -35.342  41.532 -51.683  1.00  0.00    -0.353 N 
HETATM    8  C   UNL     1     -35.893  41.902 -52.892  1.00  0.00     0.249 C 
HETATM    9  O   UNL     1     -36.886  42.620 -52.924  1.00  0.00    -0.271 OA
HETATM   10  C   UNL     1     -32.063  39.801 -52.642  1.00  0.00     0.035 C 
HETATM   11  C   UNL     1     -31.766  39.135 -51.298  1.00  0.00     0.002 C 
HETATM   12  C   UNL     1     -32.204  40.004 -50.118  1.00  0.00     0.002 C 
HETATM   13  C   UNL     1     -33.669  40.434 -50.222  1.00  0.00     0.027 C 
HETATM   14  H   UNL     1     -35.758  42.034 -50.900  1.00  0.00     0.163 HD
ENDROOT
BRANCH   1  15
HETATM   15  C   UNL     1     -35.485  42.164 -55.394  1.00  0.00     0.146 C 
BRANCH  15  16
HETATM   16  C   UNL     1     -35.642  41.315 -56.634  1.00  0.00     0.224 C 
HETATM   17  N   UNL     1     -36.951  41.113 -57.008  1.00  0.00    -0.327 N 
HETATM   18  H   UNL     1     -37.650  41.152 -56.273  1.00  0.00     0.169 HD
HETATM   19  O   UNL     1     -34.646  40.792 -57.133  1.00  0.00    -0.273 OA
BRANCH  17  20
HETATM   20  C   UNL     1     -37.337  40.404 -58.169  1.00  0.00     0.040 A 
HETATM   21  C   UNL     1     -37.415  40.985 -59.448  1.00  0.00    -0.035 A 
HETATM   22  C   UNL     1     -37.214  42.451 -59.720  1.00  0.00     0.050 C 
HETATM   23  C   UNL     1     -37.762  40.168 -60.540  1.00  0.00     0.009 A 
HETATM   24  C   UNL     1     -38.076  38.821 -60.360  1.00  0.00     0.001 A 
HETATM   25  C   UNL     1     -38.063  38.272 -59.084  1.00  0.00     0.002 A 
HETATM   26  C   UNL     1     -37.709  39.064 -57.991  1.00  0.00     0.030 A 
ENDBRANCH  17  20
ENDBRANCH  15  16
ENDBRANCH   1  15
TORSDOF 3
ENDMDL
MODEL 9
REMARK VINA RESULT:      -7.3      2.275      3.102
REMARK  3 active torsions:
REMARK  status: ('A' for Active; 'I' for Inactive)
REMARK    1  A    between atoms: C_3  and  N_4 
REMARK       I    between atoms: N_4  and  C_5 
REMARK    2  A    between atoms: C_5  and  C_6 
REMARK    3  A    between atoms: C_6  and  C_7 
ROOT
HETATM    1  C   UNL     1     -42.067  57.262 -54.772  1.00  0.00     0.286 C 
HETATM    2  N   UNL     1     -42.791  56.358 -55.772  1.00  0.00    -0.056 N 
HETATM    3  H   UNL     1     -42.626  55.368 -55.567  1.00  0.00     0.278 HD
HETATM    4  H   UNL     1     -43.809  56.533 -55.624  1.00  0.00     0.278 HD
HETATM    5  C   UNL     1     -42.445  56.698 -57.191  1.00  0.00     0.209 C 
HETATM    6  C   UNL     1     -42.847  58.166 -57.447  1.00  0.00     0.115 C 
HETATM    7  N   UNL     1     -42.214  59.070 -56.491  1.00  0.00    -0.353 N 
HETATM    8  C   UNL     1     -42.118  58.764 -55.150  1.00  0.00     0.249 C 
HETATM    9  O   UNL     1     -41.975  59.658 -54.323  1.00  0.00    -0.271 OA
HETATM   10  C   UNL     1     -43.161  55.746 -58.140  1.00  0.00     0.035 C 
HETATM   11  C   UNL     1     -42.868  56.129 -59.590  1.00  0.00     0.002 C 
HETATM   12  C   UNL     1     -43.207  57.592 -59.877  1.00  0.00     0.002 C 
HETATM   13  C   UNL     1     -42.533  58.551 -58.893  1.00  0.00     0.027 C 
HETATM   14  H   UNL     1     -42.300  60.072 -56.654  1.00  0.00     0.163 HD
ENDROOT
BRANCH   1  15
HETATM   15  C   UNL     1     -42.595  57.022 -53.353  1.00  0.00     0.146 C 
BRANCH  15  16
HETATM   16  C   UNL     1     -42.396  55.575 -52.966  1.00  0.00     0.224 C 
HETATM   17  N   UNL     1     -41.084  55.239 -52.723  1.00  0.00    -0.327 N 
HETATM   18  H   UNL     1     -40.374  55.787 -53.199  1.00  0.00     0.169 HD
HETATM   19  O   UNL     1     -43.356  54.806 -53.007  1.00  0.00    -0.273 OA
BRANCH  17  20
HETATM   20  C   UNL     1     -40.667  53.961 -52.288  1.00  0.00     0.040 A 
HETATM   21  C   UNL     1     -40.232  52.943 -53.157  1.00  0.00    -0.035 A 
HETATM   22  C   UNL     1     -40.267  53.047 -54.658  1.00  0.00     0.050 C 
HETATM   23  C   UNL     1     -39.792  51.726 -52.605  1.00  0.00     0.009 A 
HETATM   24  C   UNL     1     -39.833  51.503 -51.229  1.00  0.00     0.001 A 
HETATM   25  C   UNL     1     -40.328  52.488 -50.383  1.00  0.00     0.002 A 
HETATM   26  C   UNL     1     -40.757  53.706 -50.912  1.00  0.00     0.030 A 
ENDBRANCH  17  20
ENDBRANCH  15  16
ENDBRANCH   1  15
TORSDOF 3
ENDMDL
MODEL 10
REMARK VINA RESULT:      -7.2      2.320      3.748
REMARK  3 active torsions:
REMARK  status: ('A' for Active; 'I' for Inactive)
REMARK    1  A    between atoms: C_3  and  N_4 
REMARK       I    between atoms: N_4  and  C_5 
REMARK    2  A    between atoms: C_5  and  C_6 
REMARK    3  A    between atoms: C_6  and  C_7 
ROOT
HETATM    1  C   UNL     1     -42.427  56.006 -54.847  1.00  0.00     0.286 C 
HETATM    2  N   UNL     1     -41.527  56.127 -53.615  1.00  0.00    -0.056 N 
HETATM    3  H   UNL     1     -41.482  55.243 -53.099  1.00  0.00     0.278 HD
HETATM    4  H   UNL     1     -40.569  56.313 -53.983  1.00  0.00     0.278 HD
HETATM    5  C   UNL     1     -41.934  57.268 -52.732  1.00  0.00     0.209 C 
HETATM    6  C   UNL     1     -41.847  58.570 -53.556  1.00  0.00     0.115 C 
HETATM    7  N   UNL     1     -42.657  58.493 -54.768  1.00  0.00    -0.353 N 
HETATM    8  C   UNL     1     -42.691  57.360 -55.553  1.00  0.00     0.249 C 
HETATM    9  O   UNL     1     -43.019  57.437 -56.732  1.00  0.00    -0.271 OA
HETATM   10  C   UNL     1     -41.031  57.318 -51.506  1.00  0.00     0.035 C 
HETATM   11  C   UNL     1     -41.395  58.521 -50.634  1.00  0.00     0.002 C 
HETATM   12  C   UNL     1     -41.369  59.830 -51.423  1.00  0.00     0.002 C 
HETATM   13  C   UNL     1     -42.231  59.768 -52.686  1.00  0.00     0.027 C 
HETATM   14  H   UNL     1     -42.782  59.345 -55.313  1.00  0.00     0.163 HD
ENDROOT
BRANCH   1  15
HETATM   15  C   UNL     1     -41.863  54.965 -55.822  1.00  0.00     0.146 C 
BRANCH  15  16
HETATM   16  C   UNL     1     -40.874  54.074 -55.109  1.00  0.00     0.224 C 
HETATM   17  N   UNL     1     -41.459  53.074 -54.366  1.00  0.00    -0.327 N 
HETATM   18  H   UNL     1     -42.396  53.250 -54.017  1.00  0.00     0.169 HD
HETATM   19  O   UNL     1     -39.677  54.358 -55.144  1.00  0.00    -0.273 OA
BRANCH  17  20
HETATM   20  C   UNL     1     -40.731  52.085 -53.666  1.00  0.00     0.040 A 
HETATM   21  C   UNL     1     -40.215  52.267 -52.369  1.00  0.00    -0.035 A 
HETATM   22  C   UNL     1     -40.271  53.569 -51.617  1.00  0.00     0.050 C 
HETATM   23  C   UNL     1     -39.550  51.193 -51.751  1.00  0.00     0.009 A 
HETATM   24  C   UNL     1     -39.353  49.986 -52.421  1.00  0.00     0.001 A 
HETATM   25  C   UNL     1     -39.806  49.838 -53.726  1.00  0.00     0.002 A 
HETATM   26  C   UNL     1     -40.479  50.888 -54.351  1.00  0.00     0.030 A 
ENDBRANCH  17  20
ENDBRANCH  15  16
ENDBRANCH   1  15
TORSDOF 3
ENDMDL
