MODEL 1
REMARK VINA RESULT:      -8.4      0.000      0.000
REMARK  4 active torsions:
REMARK  status: ('A' for Active; 'I' for Inactive)
REMARK    1  A    between atoms: C_6  and  C_7 
REMARK    2  A    between atoms: C_7  and  C_8 
REMARK    3  A    between atoms: C_18  and  N_19 
REMARK    4  A    between atoms: C_21  and  C_22 
ROOT
HETATM    1  C   UNL     1     -40.253  52.946 -49.678  1.00  0.00     0.049 C 
HETATM    2  C   UNL     1     -40.326  52.879 -51.179  1.00  0.00    -0.044 A 
HETATM    3  C   UNL     1     -40.666  53.980 -52.013  1.00  0.00     0.033 A 
HETATM    4  C   UNL     1     -40.705  53.734 -53.382  1.00  0.00     0.112 A 
HETATM    5  S   UNL     1     -41.140  55.096 -54.301  1.00  0.00    -0.063 SA
HETATM    6  C   UNL     1     -41.333  56.066 -52.908  1.00  0.00     0.085 A 
HETATM    7  C   UNL     1     -40.995  55.362 -51.764  1.00  0.00     0.060 A 
HETATM    8  N   UNL     1     -40.437  52.574 -54.014  1.00  0.00    -0.236 NA
HETATM    9  C   UNL     1     -40.093  51.546 -53.203  1.00  0.00     0.142 A 
HETATM   10  C   UNL     1     -40.027  51.661 -51.814  1.00  0.00     0.044 A 
ENDROOT
BRANCH   6  11
HETATM   11  C   UNL     1     -41.703  57.473 -52.997  1.00  0.00     0.201 C 
HETATM   12  O   UNL     1     -41.040  58.292 -53.636  1.00  0.00    -0.286 OA
BRANCH  11  13
HETATM   13  C   UNL     1     -42.898  58.006 -52.285  1.00  0.00     0.018 A 
HETATM   14  C   UNL     1     -42.816  59.289 -51.723  1.00  0.00     0.055 A 
HETATM   15  C   UNL     1     -43.913  59.757 -51.032  1.00  0.00     0.106 A 
HETATM   16  C   UNL     1     -45.053  59.002 -50.882  1.00  0.00     0.105 A 
HETATM   17  O   UNL     1     -44.012  60.971 -50.428  1.00  0.00    -0.323 OA
HETATM   18  O   UNL     1     -46.011  59.647 -50.165  1.00  0.00    -0.323 OA
HETATM   19  C   UNL     1     -45.160  57.731 -51.407  1.00  0.00     0.040 A 
HETATM   20  C   UNL     1     -45.341  60.891 -49.872  1.00  0.00     0.352 A 
HETATM   21  C   UNL     1     -44.061  57.223 -52.109  1.00  0.00     0.018 A 
ENDBRANCH  11  13
ENDBRANCH   6  11
BRANCH   7  22
HETATM   22  N   UNL     1     -40.994  55.941 -50.537  1.00  0.00    -0.397 N 
HETATM   23  H   UNL     1     -41.756  55.707 -49.892  1.00  0.00     0.156 HD
HETATM   24  H   UNL     1     -40.694  56.902 -50.414  1.00  0.00     0.156 HD
ENDBRANCH   7  22
BRANCH   9  25
HETATM   25  C   UNL     1     -39.761  50.196 -53.828  1.00  0.00     0.434 C 
HETATM   26  F   UNL     1     -38.649  50.193 -54.615  1.00  0.00    -0.165 F 
HETATM   27  F   UNL     1     -39.555  49.226 -52.888  1.00  0.00    -0.165 F 
HETATM   28  F   UNL     1     -40.774  49.725 -54.615  1.00  0.00    -0.165 F 
ENDBRANCH   9  25
TORSDOF 4
ENDMDL
MODEL 2
REMARK VINA RESULT:      -8.4      2.767      3.884
REMARK  4 active torsions:
REMARK  status: ('A' for Active; 'I' for Inactive)
REMARK    1  A    between atoms: C_6  and  C_7 
REMARK    2  A    between atoms: C_7  and  C_8 
REMARK    3  A    between atoms: C_18  and  N_19 
REMARK    4  A    between atoms: C_21  and  C_22 
ROOT
HETATM    1  C   UNL     1     -39.859  53.599 -50.351  1.00  0.00     0.049 C 
HETATM    2  C   UNL     1     -40.278  53.186 -51.735  1.00  0.00    -0.044 A 
HETATM    3  C   UNL     1     -41.064  53.990 -52.606  1.00  0.00     0.033 A 
HETATM    4  C   UNL     1     -41.376  53.442 -53.847  1.00  0.00     0.112 A 
HETATM    5  S   UNL     1     -42.335  54.460 -54.813  1.00  0.00    -0.063 SA
HETATM    6  C   UNL     1     -42.409  55.663 -53.601  1.00  0.00     0.085 A 
HETATM    7  C   UNL     1     -41.644  55.307 -52.504  1.00  0.00     0.060 A 
HETATM    8  N   UNL     1     -41.000  52.242 -54.329  1.00  0.00    -0.236 NA
HETATM    9  C   UNL     1     -40.233  51.503 -53.494  1.00  0.00     0.142 A 
HETATM   10  C   UNL     1     -39.860  51.935 -52.220  1.00  0.00     0.044 A 
ENDROOT
BRANCH   6  11
HETATM   11  C   UNL     1     -43.115  56.920 -53.811  1.00  0.00     0.201 C 
HETATM   12  O   UNL     1     -43.774  57.465 -52.922  1.00  0.00    -0.286 OA
BRANCH  11  13
HETATM   13  C   UNL     1     -43.106  57.604 -55.134  1.00  0.00     0.018 A 
HETATM   14  C   UNL     1     -42.166  58.624 -55.346  1.00  0.00     0.055 A 
HETATM   15  C   UNL     1     -42.192  59.276 -56.560  1.00  0.00     0.106 A 
HETATM   16  C   UNL     1     -43.105  58.956 -57.537  1.00  0.00     0.105 A 
HETATM   17  O   UNL     1     -41.359  60.283 -56.938  1.00  0.00    -0.323 OA
HETATM   18  O   UNL     1     -42.961  59.721 -58.652  1.00  0.00    -0.323 OA
HETATM   19  C   UNL     1     -44.052  57.971 -57.355  1.00  0.00     0.040 A 
HETATM   20  C   UNL     1     -41.859  60.567 -58.262  1.00  0.00     0.352 A 
HETATM   21  C   UNL     1     -44.058  57.292 -56.131  1.00  0.00     0.018 A 
ENDBRANCH  11  13
ENDBRANCH   6  11
BRANCH   7  22
HETATM   22  N   UNL     1     -41.482  56.135 -51.440  1.00  0.00    -0.397 N 
HETATM   23  H   UNL     1     -42.079  56.967 -51.381  1.00  0.00     0.156 HD
HETATM   24  H   UNL     1     -40.562  56.320 -51.058  1.00  0.00     0.156 HD
ENDBRANCH   7  22
BRANCH   9  25
HETATM   25  C   UNL     1     -39.750  50.133 -53.957  1.00  0.00     0.434 C 
HETATM   26  F   UNL     1     -38.615  50.157 -54.711  1.00  0.00    -0.165 F 
HETATM   27  F   UNL     1     -39.484  49.296 -52.911  1.00  0.00    -0.165 F 
HETATM   28  F   UNL     1     -40.684  49.481 -54.712  1.00  0.00    -0.165 F 
ENDBRANCH   9  25
TORSDOF 4
ENDMDL
MODEL 3
REMARK VINA RESULT:      -8.3      1.760      2.318
REMARK  4 active torsions:
REMARK  status: ('A' for Active; 'I' for Inactive)
REMARK    1  A    between atoms: C_6  and  C_7 
REMARK    2  A    between atoms: C_7  and  C_8 
REMARK    3  A    between atoms: C_18  and  N_19 
REMARK    4  A    between atoms: C_21  and  C_22 
ROOT
HETATM    1  C   UNL     1     -40.341  53.189 -55.098  1.00  0.00     0.049 C 
HETATM    2  C   UNL     1     -40.290  52.921 -53.620  1.00  0.00    -0.044 A 
HETATM    3  C   UNL     1     -40.525  53.906 -52.620  1.00  0.00     0.033 A 
HETATM    4  C   UNL     1     -40.418  53.488 -51.297  1.00  0.00     0.112 A 
HETATM    5  S   UNL     1     -40.693  54.732 -50.171  1.00  0.00    -0.063 SA
HETATM    6  C   UNL     1     -40.930  55.893 -51.402  1.00  0.00     0.085 A 
HETATM    7  C   UNL     1     -40.868  55.307 -52.655  1.00  0.00     0.060 A 
HETATM    8  N   UNL     1     -40.136  52.248 -50.851  1.00  0.00    -0.236 NA
HETATM    9  C   UNL     1     -39.940  51.322 -51.817  1.00  0.00     0.142 A 
HETATM   10  C   UNL     1     -40.009  51.616 -53.180  1.00  0.00     0.044 A 
ENDROOT
BRANCH   6  11
HETATM   11  C   UNL     1     -41.258  57.280 -51.095  1.00  0.00     0.201 C 
HETATM   12  O   UNL     1     -40.400  58.109 -50.784  1.00  0.00    -0.286 OA
BRANCH  11  13
HETATM   13  C   UNL     1     -42.666  57.764 -51.109  1.00  0.00     0.018 A 
HETATM   14  C   UNL     1     -42.890  59.149 -51.107  1.00  0.00     0.055 A 
HETATM   15  C   UNL     1     -44.197  59.586 -51.081  1.00  0.00     0.106 A 
HETATM   16  C   UNL     1     -45.256  58.709 -51.048  1.00  0.00     0.105 A 
HETATM   17  O   UNL     1     -44.600  60.885 -51.078  1.00  0.00    -0.323 OA
HETATM   18  O   UNL     1     -46.456  59.347 -51.021  1.00  0.00    -0.323 OA
HETATM   19  C   UNL     1     -45.070  57.343 -51.032  1.00  0.00     0.040 A 
HETATM   20  C   UNL     1     -46.033  60.726 -51.030  1.00  0.00     0.352 A 
HETATM   21  C   UNL     1     -43.755  56.865 -51.052  1.00  0.00     0.018 A 
ENDBRANCH  11  13
ENDBRANCH   6  11
BRANCH   7  22
HETATM   22  N   UNL     1     -41.101  56.012 -53.791  1.00  0.00    -0.397 N 
HETATM   23  H   UNL     1     -41.836  56.725 -53.774  1.00  0.00     0.156 HD
HETATM   24  H   UNL     1     -41.044  55.568 -54.701  1.00  0.00     0.156 HD
ENDBRANCH   7  22
BRANCH   9  25
HETATM   25  C   UNL     1     -39.626  49.887 -51.409  1.00  0.00     0.434 C 
HETATM   26  F   UNL     1     -38.464  49.737 -50.714  1.00  0.00    -0.165 F 
HETATM   27  F   UNL     1     -40.603  49.346 -50.623  1.00  0.00    -0.165 F 
HETATM   28  F   UNL     1     -39.525  49.051 -52.485  1.00  0.00    -0.165 F 
ENDBRANCH   9  25
TORSDOF 4
ENDMDL
MODEL 4
REMARK VINA RESULT:      -8.1      5.019      7.856
REMARK  4 active torsions:
REMARK  status: ('A' for Active; 'I' for Inactive)
REMARK    1  A    between atoms: C_6  and  C_7 
REMARK    2  A    between atoms: C_7  and  C_8 
REMARK    3  A    between atoms: C_18  and  N_19 
REMARK    4  A    between atoms: C_21  and  C_22 
ROOT
HETATM    1  C   UNL     1     -42.121  59.399 -56.586  1.00  0.00     0.049 C 
HETATM    2  C   UNL     1     -42.527  57.984 -56.893  1.00  0.00    -0.044 A 
HETATM    3  C   UNL     1     -42.311  56.883 -56.018  1.00  0.00     0.033 A 
HETATM    4  C   UNL     1     -42.734  55.637 -56.470  1.00  0.00     0.112 A 
HETATM    5  S   UNL     1     -42.417  54.377 -55.374  1.00  0.00    -0.063 SA
HETATM    6  C   UNL     1     -41.666  55.435 -54.262  1.00  0.00     0.085 A 
HETATM    7  C   UNL     1     -41.729  56.745 -54.705  1.00  0.00     0.060 A 
HETATM    8  N   UNL     1     -43.346  55.354 -57.637  1.00  0.00    -0.236 NA
HETATM    9  C   UNL     1     -43.564  56.418 -58.443  1.00  0.00     0.142 A 
HETATM   10  C   UNL     1     -43.178  57.718 -58.110  1.00  0.00     0.044 A 
ENDROOT
BRANCH   6  11
HETATM   11  C   UNL     1     -41.147  54.962 -52.985  1.00  0.00     0.201 C 
HETATM   12  O   UNL     1     -41.057  55.694 -51.996  1.00  0.00    -0.286 OA
BRANCH  11  13
HETATM   13  C   UNL     1     -40.661  53.565 -52.815  1.00  0.00     0.018 A 
HETATM   14  C   UNL     1     -40.715  52.995 -51.534  1.00  0.00     0.055 A 
HETATM   15  C   UNL     1     -40.227  51.715 -51.381  1.00  0.00     0.106 A 
HETATM   16  C   UNL     1     -39.692  51.011 -52.434  1.00  0.00     0.105 A 
HETATM   17  O   UNL     1     -40.202  51.009 -50.220  1.00  0.00    -0.323 OA
HETATM   18  O   UNL     1     -39.266  49.774 -52.067  1.00  0.00    -0.323 OA
HETATM   19  C   UNL     1     -39.608  51.548 -53.702  1.00  0.00     0.040 A 
HETATM   20  C   UNL     1     -39.582  49.782 -50.660  1.00  0.00     0.352 A 
HETATM   21  C   UNL     1     -40.090  52.848 -53.891  1.00  0.00     0.018 A 
ENDBRANCH  11  13
ENDBRANCH   6  11
BRANCH   7  22
HETATM   22  N   UNL     1     -41.267  57.780 -53.959  1.00  0.00    -0.397 N 
HETATM   23  H   UNL     1     -41.238  58.710 -54.389  1.00  0.00     0.156 HD
HETATM   24  H   UNL     1     -40.496  57.653 -53.312  1.00  0.00     0.156 HD
ENDBRANCH   7  22
BRANCH   9  25
HETATM   25  C   UNL     1     -44.261  56.199 -59.781  1.00  0.00     0.434 C 
HETATM   26  F   UNL     1     -43.997  57.149 -60.720  1.00  0.00    -0.165 F 
HETATM   27  F   UNL     1     -43.922  55.005 -60.353  1.00  0.00    -0.165 F 
HETATM   28  F   UNL     1     -45.621  56.166 -59.658  1.00  0.00    -0.165 F 
ENDBRANCH   9  25
TORSDOF 4
ENDMDL
MODEL 5
REMARK VINA RESULT:      -8.0      4.123      5.680
REMARK  4 active torsions:
REMARK  status: ('A' for Active; 'I' for Inactive)
REMARK    1  A    between atoms: C_6  and  C_7 
REMARK    2  A    between atoms: C_7  and  C_8 
REMARK    3  A    between atoms: C_18  and  N_19 
REMARK    4  A    between atoms: C_21  and  C_22 
ROOT
HETATM    1  C   UNL     1     -43.550  54.681 -50.681  1.00  0.00     0.049 C 
HETATM    2  C   UNL     1     -42.404  54.285 -51.571  1.00  0.00    -0.044 A 
HETATM    3  C   UNL     1     -42.047  54.969 -52.766  1.00  0.00     0.033 A 
HETATM    4  C   UNL     1     -40.969  54.453 -53.479  1.00  0.00     0.112 A 
HETATM    5  S   UNL     1     -40.626  55.317 -54.903  1.00  0.00    -0.063 SA
HETATM    6  C   UNL     1     -41.927  56.396 -54.649  1.00  0.00     0.085 A 
HETATM    7  C   UNL     1     -42.563  56.130 -53.448  1.00  0.00     0.060 A 
HETATM    8  N   UNL     1     -40.208  53.389 -53.157  1.00  0.00    -0.236 NA
HETATM    9  C   UNL     1     -40.550  52.768 -52.005  1.00  0.00     0.142 A 
HETATM   10  C   UNL     1     -41.616  53.180 -51.204  1.00  0.00     0.044 A 
ENDROOT
BRANCH   6  11
HETATM   11  C   UNL     1     -42.202  57.494 -55.567  1.00  0.00     0.201 C 
HETATM   12  O   UNL     1     -42.164  58.675 -55.215  1.00  0.00    -0.286 OA
BRANCH  11  13
HETATM   13  C   UNL     1     -42.582  57.242 -56.985  1.00  0.00     0.018 A 
HETATM   14  C   UNL     1     -43.297  56.072 -57.281  1.00  0.00     0.055 A 
HETATM   15  C   UNL     1     -43.609  55.829 -58.602  1.00  0.00     0.106 A 
HETATM   16  C   UNL     1     -43.231  56.688 -59.607  1.00  0.00     0.105 A 
HETATM   17  O   UNL     1     -44.295  54.753 -59.070  1.00  0.00    -0.323 OA
HETATM   18  O   UNL     1     -43.634  56.260 -60.833  1.00  0.00    -0.323 OA
HETATM   19  C   UNL     1     -42.514  57.837 -59.352  1.00  0.00     0.040 A 
HETATM   20  C   UNL     1     -44.300  55.028 -60.487  1.00  0.00     0.352 A 
HETATM   21  C   UNL     1     -42.175  58.111 -58.022  1.00  0.00     0.018 A 
ENDBRANCH  11  13
ENDBRANCH   6  11
BRANCH   7  22
HETATM   22  N   UNL     1     -43.581  56.901 -52.988  1.00  0.00    -0.397 N 
HETATM   23  H   UNL     1     -44.282  56.463 -52.382  1.00  0.00     0.156 HD
HETATM   24  H   UNL     1     -43.999  57.616 -53.572  1.00  0.00     0.156 HD
ENDBRANCH   7  22
BRANCH   9  25
HETATM   25  C   UNL     1     -39.739  51.559 -51.551  1.00  0.00     0.434 C 
HETATM   26  F   UNL     1     -39.929  50.436 -52.299  1.00  0.00    -0.165 F 
HETATM   27  F   UNL     1     -38.394  51.798 -51.574  1.00  0.00    -0.165 F 
HETATM   28  F   UNL     1     -40.019  51.199 -50.263  1.00  0.00    -0.165 F 
ENDBRANCH   9  25
TORSDOF 4
ENDMDL
MODEL 6
REMARK VINA RESULT:      -7.9      6.262      8.722
REMARK  4 active torsions:
REMARK  status: ('A' for Active; 'I' for Inactive)
REMARK    1  A    between atoms: C_6  and  C_7 
REMARK    2  A    between atoms: C_7  and  C_8 
REMARK    3  A    between atoms: C_18  and  N_19 
REMARK    4  A    between atoms: C_21  and  C_22 
ROOT
HETATM    1  C   UNL     1     -43.098  57.187 -60.240  1.00  0.00     0.049 C 
HETATM    2  C   UNL     1     -42.633  58.095 -59.136  1.00  0.00    -0.044 A 
HETATM    3  C   UNL     1     -42.656  57.752 -57.755  1.00  0.00     0.033 A 
HETATM    4  C   UNL     1     -42.205  58.723 -56.866  1.00  0.00     0.112 A 
HETATM    5  S   UNL     1     -42.286  58.238 -55.238  1.00  0.00    -0.063 SA
HETATM    6  C   UNL     1     -42.963  56.723 -55.647  1.00  0.00     0.085 A 
HETATM    7  C   UNL     1     -43.053  56.576 -57.021  1.00  0.00     0.060 A 
HETATM    8  N   UNL     1     -41.729  59.948 -57.163  1.00  0.00    -0.236 NA
HETATM    9  C   UNL     1     -41.694  60.245 -58.482  1.00  0.00     0.142 A 
HETATM   10  C   UNL     1     -42.126  59.362 -59.474  1.00  0.00     0.044 A 
ENDROOT
BRANCH   6  11
HETATM   11  C   UNL     1     -43.279  55.725 -54.633  1.00  0.00     0.201 C 
HETATM   12  O   UNL     1     -44.382  55.663 -54.087  1.00  0.00    -0.286 OA
BRANCH  11  13
HETATM   13  C   UNL     1     -42.262  54.737 -54.176  1.00  0.00     0.018 A 
HETATM   14  C   UNL     1     -42.254  54.374 -52.821  1.00  0.00     0.055 A 
HETATM   15  C   UNL     1     -41.285  53.489 -52.400  1.00  0.00     0.106 A 
HETATM   16  C   UNL     1     -40.344  52.978 -53.264  1.00  0.00     0.105 A 
HETATM   17  O   UNL     1     -41.128  53.027 -51.131  1.00  0.00    -0.323 OA
HETATM   18  O   UNL     1     -39.480  52.130 -52.646  1.00  0.00    -0.323 OA
HETATM   19  C   UNL     1     -40.314  53.327 -54.598  1.00  0.00     0.040 A 
HETATM   20  C   UNL     1     -39.976  52.173 -51.292  1.00  0.00     0.352 A 
HETATM   21  C   UNL     1     -41.281  54.228 -55.057  1.00  0.00     0.018 A 
ENDBRANCH  11  13
ENDBRANCH   6  11
BRANCH   7  22
HETATM   22  N   UNL     1     -43.489  55.425 -57.594  1.00  0.00    -0.397 N 
HETATM   23  H   UNL     1     -44.413  55.427 -58.038  1.00  0.00     0.156 HD
HETATM   24  H   UNL     1     -43.288  54.525 -57.174  1.00  0.00     0.156 HD
ENDBRANCH   7  22
BRANCH   9  25
HETATM   25  C   UNL     1     -41.160  61.605 -58.917  1.00  0.00     0.434 C 
HETATM   26  F   UNL     1     -41.921  62.664 -58.524  1.00  0.00    -0.165 F 
HETATM   27  F   UNL     1     -39.905  61.848 -58.435  1.00  0.00    -0.165 F 
HETATM   28  F   UNL     1     -41.052  61.710 -60.275  1.00  0.00    -0.165 F 
ENDBRANCH   9  25
TORSDOF 4
ENDMDL
MODEL 7
REMARK VINA RESULT:      -7.8      2.161      3.216
REMARK  4 active torsions:
REMARK  status: ('A' for Active; 'I' for Inactive)
REMARK    1  A    between atoms: C_6  and  C_7 
REMARK    2  A    between atoms: C_7  and  C_8 
REMARK    3  A    between atoms: C_18  and  N_19 
REMARK    4  A    between atoms: C_21  and  C_22 
ROOT
HETATM    1  C   UNL     1     -43.058  53.950 -55.728  1.00  0.00     0.049 C 
HETATM    2  C   UNL     1     -42.359  53.842 -54.402  1.00  0.00    -0.044 A 
HETATM    3  C   UNL     1     -42.640  54.672 -53.280  1.00  0.00     0.033 A 
HETATM    4  C   UNL     1     -41.882  54.446 -52.135  1.00  0.00     0.112 A 
HETATM    5  S   UNL     1     -42.268  55.495 -50.853  1.00  0.00    -0.063 SA
HETATM    6  C   UNL     1     -43.439  56.321 -51.783  1.00  0.00     0.085 A 
HETATM    7  C   UNL     1     -43.573  55.744 -53.035  1.00  0.00     0.060 A 
HETATM    8  N   UNL     1     -40.923  53.517 -51.957  1.00  0.00    -0.236 NA
HETATM    9  C   UNL     1     -40.688  52.724 -53.028  1.00  0.00     0.142 A 
HETATM   10  C   UNL     1     -41.373  52.854 -54.238  1.00  0.00     0.044 A 
ENDROOT
BRANCH   6  11
HETATM   11  C   UNL     1     -44.230  57.411 -51.228  1.00  0.00     0.201 C 
HETATM   12  O   UNL     1     -45.233  57.217 -50.538  1.00  0.00    -0.286 OA
BRANCH  11  13
HETATM   13  C   UNL     1     -43.883  58.835 -51.498  1.00  0.00     0.018 A 
HETATM   14  C   UNL     1     -44.749  59.829 -51.019  1.00  0.00     0.055 A 
HETATM   15  C   UNL     1     -44.439  61.141 -51.308  1.00  0.00     0.106 A 
HETATM   16  C   UNL     1     -43.329  61.480 -52.045  1.00  0.00     0.105 A 
HETATM   17  O   UNL     1     -45.159  62.229 -50.926  1.00  0.00    -0.323 OA
HETATM   18  O   UNL     1     -43.212  62.823 -52.218  1.00  0.00    -0.323 OA
HETATM   19  C   UNL     1     -42.467  60.526 -52.544  1.00  0.00     0.040 A 
HETATM   20  C   UNL     1     -44.380  63.292 -51.514  1.00  0.00     0.352 A 
HETATM   21  C   UNL     1     -42.755  59.184 -52.275  1.00  0.00     0.018 A 
ENDBRANCH  11  13
ENDBRANCH   6  11
BRANCH   7  22
HETATM   22  N   UNL     1     -44.497  56.176 -53.931  1.00  0.00    -0.397 N 
HETATM   23  H   UNL     1     -45.166  55.494 -54.301  1.00  0.00     0.156 HD
HETATM   24  H   UNL     1     -44.260  56.871 -54.630  1.00  0.00     0.156 HD
ENDBRANCH   7  22
BRANCH   9  25
HETATM   25  C   UNL     1     -39.627  51.635 -52.919  1.00  0.00     0.434 C 
HETATM   26  F   UNL     1     -38.684  51.662 -53.901  1.00  0.00    -0.165 F 
HETATM   27  F   UNL     1     -38.940  51.697 -51.740  1.00  0.00    -0.165 F 
HETATM   28  F   UNL     1     -40.166  50.380 -52.957  1.00  0.00    -0.165 F 
ENDBRANCH   9  25
TORSDOF 4
ENDMDL
MODEL 8
REMARK VINA RESULT:      -7.7      4.139      5.567
REMARK  4 active torsions:
REMARK  status: ('A' for Active; 'I' for Inactive)
REMARK    1  A    between atoms: C_6  and  C_7 
REMARK    2  A    between atoms: C_7  and  C_8 
REMARK    3  A    between atoms: C_18  and  N_19 
REMARK    4  A    between atoms: C_21  and  C_22 
ROOT
HETATM    1  C   UNL     1     -41.168  52.533 -54.262  1.00  0.00     0.049 C 
HETATM    2  C   UNL     1     -41.365  53.596 -53.217  1.00  0.00    -0.044 A 
HETATM    3  C   UNL     1     -42.140  54.773 -53.411  1.00  0.00     0.033 A 
HETATM    4  C   UNL     1     -42.199  55.662 -52.341  1.00  0.00     0.112 A 
HETATM    5  S   UNL     1     -43.127  57.049 -52.666  1.00  0.00    -0.063 SA
HETATM    6  C   UNL     1     -43.461  56.542 -54.264  1.00  0.00     0.085 A 
HETATM    7  C   UNL     1     -42.921  55.290 -54.508  1.00  0.00     0.060 A 
HETATM    8  N   UNL     1     -41.621  55.528 -51.132  1.00  0.00    -0.236 NA
HETATM    9  C   UNL     1     -40.907  54.390 -50.961  1.00  0.00     0.142 A 
HETATM   10  C   UNL     1     -40.763  53.424 -51.958  1.00  0.00     0.044 A 
ENDROOT
BRANCH   6  11
HETATM   11  C   UNL     1     -44.301  57.327 -55.159  1.00  0.00     0.201 C 
HETATM   12  O   UNL     1     -45.524  57.399 -55.025  1.00  0.00    -0.286 OA
BRANCH  11  13
HETATM   13  C   UNL     1     -43.721  58.066 -56.315  1.00  0.00     0.018 A 
HETATM   14  C   UNL     1     -42.755  59.049 -56.056  1.00  0.00     0.055 A 
HETATM   15  C   UNL     1     -42.254  59.753 -57.130  1.00  0.00     0.106 A 
HETATM   16  C   UNL     1     -42.683  59.520 -58.415  1.00  0.00     0.105 A 
HETATM   17  O   UNL     1     -41.316  60.735 -57.067  1.00  0.00    -0.323 OA
HETATM   18  O   UNL     1     -42.067  60.324 -59.322  1.00  0.00    -0.323 OA
HETATM   19  C   UNL     1     -43.643  58.572 -58.702  1.00  0.00     0.040 A 
HETATM   20  C   UNL     1     -41.208  61.099 -58.460  1.00  0.00     0.352 A 
HETATM   21  C   UNL     1     -44.177  57.843 -57.634  1.00  0.00     0.018 A 
ENDBRANCH  11  13
ENDBRANCH   6  11
BRANCH   7  22
HETATM   22  N   UNL     1     -43.117  54.639 -55.683  1.00  0.00    -0.397 N 
HETATM   23  H   UNL     1     -43.769  53.849 -55.694  1.00  0.00     0.156 HD
HETATM   24  H   UNL     1     -42.351  54.489 -56.329  1.00  0.00     0.156 HD
ENDBRANCH   7  22
BRANCH   9  25
HETATM   25  C   UNL     1     -40.225  54.144 -49.620  1.00  0.00     0.434 C 
HETATM   26  F   UNL     1     -38.895  54.436 -49.599  1.00  0.00    -0.165 F 
HETATM   27  F   UNL     1     -40.783  54.877 -48.612  1.00  0.00    -0.165 F 
HETATM   28  F   UNL     1     -40.326  52.842 -49.218  1.00  0.00    -0.165 F 
ENDBRANCH   9  25
TORSDOF 4
ENDMDL
MODEL 9
REMARK VINA RESULT:      -7.7      4.267      5.509
REMARK  4 active torsions:
REMARK  status: ('A' for Active; 'I' for Inactive)
REMARK    1  A    between atoms: C_6  and  C_7 
REMARK    2  A    between atoms: C_7  and  C_8 
REMARK    3  A    between atoms: C_18  and  N_19 
REMARK    4  A    between atoms: C_21  and  C_22 
ROOT
HETATM    1  C   UNL     1     -40.379  53.012 -54.286  1.00  0.00     0.049 C 
HETATM    2  C   UNL     1     -40.659  54.005 -53.191  1.00  0.00    -0.044 A 
HETATM    3  C   UNL     1     -41.135  55.327 -53.414  1.00  0.00     0.033 A 
HETATM    4  C   UNL     1     -41.321  56.119 -52.285  1.00  0.00     0.112 A 
HETATM    5  S   UNL     1     -41.870  57.688 -52.643  1.00  0.00    -0.063 SA
HETATM    6  C   UNL     1     -41.846  57.391 -54.326  1.00  0.00     0.085 A 
HETATM    7  C   UNL     1     -41.489  56.079 -54.592  1.00  0.00     0.060 A 
HETATM    8  N   UNL     1     -41.122  55.771 -50.998  1.00  0.00    -0.236 NA
HETATM    9  C   UNL     1     -40.693  54.502 -50.808  1.00  0.00     0.142 A 
HETATM   10  C   UNL     1     -40.458  53.611 -51.857  1.00  0.00     0.044 A 
ENDROOT
BRANCH   6  11
HETATM   11  C   UNL     1     -42.263  58.402 -55.289  1.00  0.00     0.201 C 
HETATM   12  O   UNL     1     -41.633  59.447 -55.466  1.00  0.00    -0.286 OA
BRANCH  11  13
HETATM   13  C   UNL     1     -43.505  58.238 -56.095  1.00  0.00     0.018 A 
HETATM   14  C   UNL     1     -43.373  57.943 -57.461  1.00  0.00     0.055 A 
HETATM   15  C   UNL     1     -44.528  57.832 -58.206  1.00  0.00     0.106 A 
HETATM   16  C   UNL     1     -45.772  58.010 -57.648  1.00  0.00     0.105 A 
HETATM   17  O   UNL     1     -44.592  57.551 -59.534  1.00  0.00    -0.323 OA
HETATM   18  O   UNL     1     -46.773  57.862 -58.555  1.00  0.00    -0.323 OA
HETATM   19  C   UNL     1     -45.935  58.317 -56.313  1.00  0.00     0.040 A 
HETATM   20  C   UNL     1     -46.018  57.580 -59.752  1.00  0.00     0.352 A 
HETATM   21  C   UNL     1     -44.783  58.443 -55.529  1.00  0.00     0.018 A 
ENDBRANCH  11  13
ENDBRANCH   6  11
BRANCH   7  22
HETATM   22  N   UNL     1     -41.473  55.581 -55.854  1.00  0.00    -0.397 N 
HETATM   23  H   UNL     1     -41.944  54.687 -56.026  1.00  0.00     0.156 HD
HETATM   24  H   UNL     1     -40.655  55.681 -56.444  1.00  0.00     0.156 HD
ENDBRANCH   7  22
BRANCH   9  25
HETATM   25  C   UNL     1     -40.450  54.013 -49.385  1.00  0.00     0.434 C 
HETATM   26  F   UNL     1     -41.251  54.586 -48.444  1.00  0.00    -0.165 F 
HETATM   27  F   UNL     1     -40.636  52.665 -49.261  1.00  0.00    -0.165 F 
HETATM   28  F   UNL     1     -39.168  54.239 -48.969  1.00  0.00    -0.165 F 
ENDBRANCH   9  25
TORSDOF 4
ENDMDL
MODEL 10
REMARK VINA RESULT:      -7.6      5.213      8.098
REMARK  4 active torsions:
REMARK  status: ('A' for Active; 'I' for Inactive)
REMARK    1  A    between atoms: C_6  and  C_7 
REMARK    2  A    between atoms: C_7  and  C_8 
REMARK    3  A    between atoms: C_18  and  N_19 
REMARK    4  A    between atoms: C_21  and  C_22 
ROOT
HETATM    1  C   UNL     1     -42.107  60.204 -55.865  1.00  0.00     0.049 C 
HETATM    2  C   UNL     1     -42.381  58.908 -56.577  1.00  0.00    -0.044 A 
HETATM    3  C   UNL     1     -42.497  57.648 -55.928  1.00  0.00     0.033 A 
HETATM    4  C   UNL     1     -42.733  56.547 -56.746  1.00  0.00     0.112 A 
HETATM    5  S   UNL     1     -42.837  55.080 -55.891  1.00  0.00    -0.063 SA
HETATM    6  C   UNL     1     -42.533  55.847 -54.394  1.00  0.00     0.085 A 
HETATM    7  C   UNL     1     -42.428  57.219 -54.553  1.00  0.00     0.060 A 
HETATM    8  N   UNL     1     -42.885  56.538 -58.085  1.00  0.00    -0.236 NA
HETATM    9  C   UNL     1     -42.793  57.750 -58.679  1.00  0.00     0.142 A 
HETATM   10  C   UNL     1     -42.550  58.929 -57.973  1.00  0.00     0.044 A 
ENDROOT
BRANCH   6  11
HETATM   11  C   UNL     1     -42.510  55.102 -53.142  1.00  0.00     0.201 C 
HETATM   12  O   UNL     1     -43.248  55.380 -52.194  1.00  0.00    -0.286 OA
BRANCH  11  13
HETATM   13  C   UNL     1     -41.560  53.975 -52.928  1.00  0.00     0.018 A 
HETATM   14  C   UNL     1     -41.430  53.017 -53.945  1.00  0.00     0.055 A 
HETATM   15  C   UNL     1     -40.577  51.957 -53.720  1.00  0.00     0.106 A 
HETATM   16  C   UNL     1     -39.879  51.824 -52.543  1.00  0.00     0.105 A 
HETATM   17  O   UNL     1     -40.327  50.942 -54.589  1.00  0.00    -0.323 OA
HETATM   18  O   UNL     1     -39.101  50.709 -52.526  1.00  0.00    -0.323 OA
HETATM   19  C   UNL     1     -39.997  52.738 -51.518  1.00  0.00     0.040 A 
HETATM   20  C   UNL     1     -39.397  50.149 -53.822  1.00  0.00     0.352 A 
HETATM   21  C   UNL     1     -40.859  53.824 -51.711  1.00  0.00     0.018 A 
ENDBRANCH  11  13
ENDBRANCH   6  11
BRANCH   7  22
HETATM   22  N   UNL     1     -42.263  58.054 -53.496  1.00  0.00    -0.397 N 
HETATM   23  H   UNL     1     -43.025  58.701 -53.269  1.00  0.00     0.156 HD
HETATM   24  H   UNL     1     -41.360  58.470 -53.296  1.00  0.00     0.156 HD
ENDBRANCH   7  22
BRANCH   9  25
HETATM   25  C   UNL     1     -42.962  57.843 -60.191  1.00  0.00     0.434 C 
HETATM   26  F   UNL     1     -43.842  58.797 -60.606  1.00  0.00    -0.165 F 
HETATM   27  F   UNL     1     -41.786  58.118 -60.829  1.00  0.00    -0.165 F 
HETATM   28  F   UNL     1     -43.403  56.670 -60.737  1.00  0.00    -0.165 F 
ENDBRANCH   9  25
TORSDOF 4
ENDMDL
