MODEL 1
REMARK VINA RESULT:      -7.5      0.000      0.000
REMARK  8 active torsions:
REMARK  status: ('A' for Active; 'I' for Inactive)
REMARK    1  A    between atoms: C_2  and  O_3 
REMARK    2  A    between atoms: O_3  and  C_4 
REMARK    3  A    between atoms: C_4  and  C_5 
REMARK    4  A    between atoms: C_5  and  C_6 
REMARK    5  A    between atoms: C_6  and  N_7 
REMARK    6  A    between atoms: C_12  and  C_13 
REMARK    7  A    between atoms: C_23  and  C_24 
REMARK    8  A    between atoms: C_25  and  O_26 
ROOT
HETATM    1  N   UNL     1     -42.485  58.121 -53.273  1.00  0.00    -0.334 N 
HETATM    2  C   UNL     1     -41.972  59.312 -53.794  1.00  0.00     0.273 A 
HETATM    3  O   UNL     1     -41.495  60.262 -53.200  1.00  0.00    -0.266 OA
HETATM    4  C   UNL     1     -42.181  59.177 -55.186  1.00  0.00     0.129 A 
HETATM    5  C   UNL     1     -42.781  58.000 -55.526  1.00  0.00     0.034 A 
HETATM    6  C   UNL     1     -43.032  57.198 -54.303  1.00  0.00     0.159 A 
HETATM    7  N   UNL     1     -41.972  59.879 -56.304  1.00  0.00    -0.272 N 
HETATM    8  H   UNL     1     -41.547  60.797 -56.417  1.00  0.00     0.189 HD
HETATM    9  N   UNL     1     -42.413  59.209 -57.398  1.00  0.00    -0.173 NA
HETATM   10  C   UNL     1     -42.934  58.043 -56.926  1.00  0.00     0.101 A 
ENDROOT
BRANCH  10  11
HETATM   11  C   UNL     1     -43.519  57.061 -57.855  1.00  0.00     0.028 A 
HETATM   12  C   UNL     1     -44.558  57.411 -58.740  1.00  0.00     0.078 A 
HETATM   13  C   UNL     1     -45.097  56.490 -59.638  1.00  0.00     0.037 A 
HETATM   14  C   UNL     1     -44.610  55.188 -59.670  1.00  0.00     0.003 A 
HETATM   15  C   UNL     1     -43.591  54.810 -58.798  1.00  0.00     0.001 A 
HETATM   16  C   UNL     1     -43.056  55.737 -57.896  1.00  0.00     0.017 A 
BRANCH  12  17
HETATM   17  O   UNL     1     -45.111  58.668 -58.777  1.00  0.00    -0.360 OA
HETATM   18  H   UNL     1     -45.265  58.923 -57.838  1.00  0.00     0.217 HD
ENDBRANCH  12  17
ENDBRANCH  10  11
BRANCH   6  19
HETATM   19  C   UNL     1     -42.272  55.892 -54.390  1.00  0.00    -0.031 A 
HETATM   20  C   UNL     1     -40.905  55.805 -54.716  1.00  0.00     0.011 A 
HETATM   21  C   UNL     1     -40.257  54.568 -54.773  1.00  0.00     0.024 A 
HETATM   22  C   UNL     1     -40.959  53.402 -54.481  1.00  0.00     0.034 A 
HETATM   23 CL   UNL     1     -40.160  51.880 -54.548  1.00  0.00    -0.084 Cl
HETATM   24  C   UNL     1     -42.303  53.463 -54.128  1.00  0.00     0.024 A 
HETATM   25  C   UNL     1     -42.952  54.699 -54.079  1.00  0.00     0.011 A 
ENDBRANCH   6  19
BRANCH   1  26
HETATM   26  C   UNL     1     -42.626  57.867 -51.852  1.00  0.00     0.129 C 
BRANCH  26  27
HETATM   27  C   UNL     1     -41.317  57.466 -51.168  1.00  0.00     0.046 C 
BRANCH  27  28
HETATM   28  C   UNL     1     -41.418  56.209 -50.310  1.00  0.00     0.169 C 
BRANCH  28  29
HETATM   29  O   UNL     1     -41.072  55.069 -51.095  1.00  0.00    -0.387 OA
BRANCH  29  30
HETATM   30  C   UNL     1     -40.976  53.852 -50.347  1.00  0.00     0.113 C 
HETATM   31  C   UNL     1     -40.619  54.097 -48.883  1.00  0.00     0.039 C 
HETATM   32  C   UNL     1     -39.889  53.013 -51.013  1.00  0.00     0.039 C 
ENDBRANCH  29  30
ENDBRANCH  28  29
ENDBRANCH  27  28
ENDBRANCH  26  27
ENDBRANCH   1  26
TORSDOF 8
ENDMDL
MODEL 2
REMARK VINA RESULT:      -7.4      3.400      6.417
REMARK  8 active torsions:
REMARK  status: ('A' for Active; 'I' for Inactive)
REMARK    1  A    between atoms: C_2  and  O_3 
REMARK    2  A    between atoms: O_3  and  C_4 
REMARK    3  A    between atoms: C_4  and  C_5 
REMARK    4  A    between atoms: C_5  and  C_6 
REMARK    5  A    between atoms: C_6  and  N_7 
REMARK    6  A    between atoms: C_12  and  C_13 
REMARK    7  A    between atoms: C_23  and  C_24 
REMARK    8  A    between atoms: C_25  and  O_26 
ROOT
HETATM    1  N   UNL     1     -44.471  57.713 -53.246  1.00  0.00    -0.334 N 
HETATM    2  C   UNL     1     -44.713  57.252 -54.543  1.00  0.00     0.273 A 
HETATM    3  O   UNL     1     -45.433  57.731 -55.401  1.00  0.00    -0.266 OA
HETATM    4  C   UNL     1     -43.955  56.061 -54.613  1.00  0.00     0.129 A 
HETATM    5  C   UNL     1     -43.288  55.781 -53.457  1.00  0.00     0.034 A 
HETATM    6  C   UNL     1     -43.562  56.840 -52.455  1.00  0.00     0.159 A 
HETATM    7  N   UNL     1     -43.694  55.089 -55.494  1.00  0.00    -0.272 N 
HETATM    8  H   UNL     1     -44.026  54.981 -56.449  1.00  0.00     0.189 HD
HETATM    9  N   UNL     1     -42.864  54.155 -54.966  1.00  0.00    -0.173 NA
HETATM   10  C   UNL     1     -42.615  54.565 -53.691  1.00  0.00     0.101 A 
ENDROOT
BRANCH  10  11
HETATM   11  C   UNL     1     -41.742  53.769 -52.813  1.00  0.00     0.028 A 
HETATM   12  C   UNL     1     -40.714  52.958 -53.334  1.00  0.00     0.078 A 
HETATM   13  C   UNL     1     -39.870  52.222 -52.502  1.00  0.00     0.037 A 
HETATM   14  C   UNL     1     -40.037  52.275 -51.122  1.00  0.00     0.003 A 
HETATM   15  C   UNL     1     -41.054  53.059 -50.580  1.00  0.00     0.001 A 
HETATM   16  C   UNL     1     -41.901  53.794 -51.418  1.00  0.00     0.017 A 
BRANCH  12  17
HETATM   17  O   UNL     1     -40.477  52.832 -54.680  1.00  0.00    -0.360 OA
HETATM   18  H   UNL     1     -41.134  53.415 -55.126  1.00  0.00     0.217 HD
ENDBRANCH  12  17
ENDBRANCH  10  11
BRANCH   6  19
HETATM   19  C   UNL     1     -42.266  57.526 -52.076  1.00  0.00    -0.031 A 
HETATM   20  C   UNL     1     -41.449  58.210 -52.995  1.00  0.00     0.011 A 
HETATM   21  C   UNL     1     -40.266  58.830 -52.582  1.00  0.00     0.024 A 
HETATM   22  C   UNL     1     -39.896  58.796 -51.241  1.00  0.00     0.034 A 
HETATM   23 CL   UNL     1     -38.442  59.562 -50.732  1.00  0.00    -0.084 Cl
HETATM   24  C   UNL     1     -40.702  58.152 -50.308  1.00  0.00     0.024 A 
HETATM   25  C   UNL     1     -41.880  57.526 -50.722  1.00  0.00     0.011 A 
ENDBRANCH   6  19
BRANCH   1  26
HETATM   26  C   UNL     1     -45.163  58.845 -52.659  1.00  0.00     0.129 C 
BRANCH  26  27
HETATM   27  C   UNL     1     -45.426  58.693 -51.159  1.00  0.00     0.046 C 
BRANCH  27  28
HETATM   28  C   UNL     1     -45.083  59.929 -50.335  1.00  0.00     0.169 C 
BRANCH  28  29
HETATM   29  O   UNL     1     -45.871  59.941 -49.146  1.00  0.00    -0.387 OA
BRANCH  29  30
HETATM   30  C   UNL     1     -45.737  61.135 -48.368  1.00  0.00     0.113 C 
HETATM   31  C   UNL     1     -44.496  61.939 -48.748  1.00  0.00     0.039 C 
HETATM   32  C   UNL     1     -45.645  60.699 -46.908  1.00  0.00     0.039 C 
ENDBRANCH  29  30
ENDBRANCH  28  29
ENDBRANCH  27  28
ENDBRANCH  26  27
ENDBRANCH   1  26
TORSDOF 8
ENDMDL
MODEL 3
REMARK VINA RESULT:      -7.1      2.904      6.332
REMARK  8 active torsions:
REMARK  status: ('A' for Active; 'I' for Inactive)
REMARK    1  A    between atoms: C_2  and  O_3 
REMARK    2  A    between atoms: O_3  and  C_4 
REMARK    3  A    between atoms: C_4  and  C_5 
REMARK    4  A    between atoms: C_5  and  C_6 
REMARK    5  A    between atoms: C_6  and  N_7 
REMARK    6  A    between atoms: C_12  and  C_13 
REMARK    7  A    between atoms: C_23  and  C_24 
REMARK    8  A    between atoms: C_25  and  O_26 
ROOT
HETATM    1  N   UNL     1     -43.736  57.440 -54.563  1.00  0.00    -0.334 N 
HETATM    2  C   UNL     1     -43.410  57.032 -55.859  1.00  0.00     0.273 A 
HETATM    3  O   UNL     1     -43.812  57.471 -56.921  1.00  0.00    -0.266 OA
HETATM    4  C   UNL     1     -42.529  55.946 -55.648  1.00  0.00     0.129 A 
HETATM    5  C   UNL     1     -42.313  55.679 -54.327  1.00  0.00     0.034 A 
HETATM    6  C   UNL     1     -43.082  56.637 -53.494  1.00  0.00     0.159 A 
HETATM    7  N   UNL     1     -41.829  55.067 -56.373  1.00  0.00    -0.272 N 
HETATM    8  H   UNL     1     -41.760  54.977 -57.383  1.00  0.00     0.189 HD
HETATM    9  N   UNL     1     -41.141  54.209 -55.578  1.00  0.00    -0.173 NA
HETATM   10  C   UNL     1     -41.446  54.569 -54.301  1.00  0.00     0.101 A 
ENDROOT
BRANCH  10  11
HETATM   11  C   UNL     1     -40.869  53.833 -53.164  1.00  0.00     0.028 A 
HETATM   12  C   UNL     1     -40.378  52.520 -53.310  1.00  0.00     0.078 A 
HETATM   13  C   UNL     1     -39.808  51.828 -52.241  1.00  0.00     0.037 A 
HETATM   14  C   UNL     1     -39.720  52.435 -50.992  1.00  0.00     0.003 A 
HETATM   15  C   UNL     1     -40.209  53.727 -50.816  1.00  0.00     0.001 A 
HETATM   16  C   UNL     1     -40.783  54.416 -51.891  1.00  0.00     0.017 A 
BRANCH  12  17
HETATM   17  O   UNL     1     -40.429  51.834 -54.498  1.00  0.00    -0.360 OA
HETATM   18  H   UNL     1     -39.950  52.393 -55.153  1.00  0.00     0.217 HD
ENDBRANCH  12  17
ENDBRANCH  10  11
BRANCH   6  19
HETATM   19  C   UNL     1     -42.128  57.449 -52.645  1.00  0.00    -0.031 A 
HETATM   20  C   UNL     1     -42.196  57.512 -51.240  1.00  0.00     0.011 A 
HETATM   21  C   UNL     1     -41.280  58.275 -50.511  1.00  0.00     0.024 A 
HETATM   22  C   UNL     1     -40.268  58.966 -51.172  1.00  0.00     0.034 A 
HETATM   23 CL   UNL     1     -39.139  59.902 -50.273  1.00  0.00    -0.084 Cl
HETATM   24  C   UNL     1     -40.161  58.896 -52.557  1.00  0.00     0.024 A 
HETATM   25  C   UNL     1     -41.082  58.139 -53.286  1.00  0.00     0.011 A 
ENDBRANCH   6  19
BRANCH   1  26
HETATM   26  C   UNL     1     -44.742  58.444 -54.271  1.00  0.00     0.129 C 
BRANCH  26  27
HETATM   27  C   UNL     1     -44.247  59.880 -54.456  1.00  0.00     0.046 C 
BRANCH  27  28
HETATM   28  C   UNL     1     -44.637  60.826 -53.326  1.00  0.00     0.169 C 
BRANCH  28  29
HETATM   29  O   UNL     1     -43.810  60.577 -52.190  1.00  0.00    -0.387 OA
BRANCH  29  30
HETATM   30  C   UNL     1     -44.458  60.806 -50.934  1.00  0.00     0.113 C 
HETATM   31  C   UNL     1     -43.464  61.109 -49.816  1.00  0.00     0.039 C 
HETATM   32  C   UNL     1     -45.237  59.536 -50.604  1.00  0.00     0.039 C 
ENDBRANCH  29  30
ENDBRANCH  28  29
ENDBRANCH  27  28
ENDBRANCH  26  27
ENDBRANCH   1  26
TORSDOF 8
ENDMDL
MODEL 4
REMARK VINA RESULT:      -7.0      2.763      5.863
REMARK  8 active torsions:
REMARK  status: ('A' for Active; 'I' for Inactive)
REMARK    1  A    between atoms: C_2  and  O_3 
REMARK    2  A    between atoms: O_3  and  C_4 
REMARK    3  A    between atoms: C_4  and  C_5 
REMARK    4  A    between atoms: C_5  and  C_6 
REMARK    5  A    between atoms: C_6  and  N_7 
REMARK    6  A    between atoms: C_12  and  C_13 
REMARK    7  A    between atoms: C_23  and  C_24 
REMARK    8  A    between atoms: C_25  and  O_26 
ROOT
HETATM    1  N   UNL     1     -43.668  57.675 -52.703  1.00  0.00    -0.334 N 
HETATM    2  C   UNL     1     -44.485  57.158 -51.695  1.00  0.00     0.273 A 
HETATM    3  O   UNL     1     -45.403  57.698 -51.104  1.00  0.00    -0.266 OA
HETATM    4  C   UNL     1     -43.963  55.861 -51.484  1.00  0.00     0.129 A 
HETATM    5  C   UNL     1     -42.898  55.574 -52.287  1.00  0.00     0.034 A 
HETATM    6  C   UNL     1     -42.609  56.736 -53.163  1.00  0.00     0.159 A 
HETATM    7  N   UNL     1     -44.197  54.800 -50.703  1.00  0.00    -0.272 N 
HETATM    8  H   UNL     1     -44.911  54.671 -49.991  1.00  0.00     0.189 HD
HETATM    9  N   UNL     1     -43.319  53.798 -50.957  1.00  0.00    -0.173 NA
HETATM   10  C   UNL     1     -42.493  54.273 -51.930  1.00  0.00     0.101 A 
ENDROOT
BRANCH  10  11
HETATM   11  C   UNL     1     -41.399  53.435 -52.449  1.00  0.00     0.028 A 
HETATM   12  C   UNL     1     -40.458  52.835 -51.588  1.00  0.00     0.078 A 
HETATM   13  C   UNL     1     -39.435  52.021 -52.075  1.00  0.00     0.037 A 
HETATM   14  C   UNL     1     -39.324  51.791 -53.443  1.00  0.00     0.003 A 
HETATM   15  C   UNL     1     -40.233  52.382 -54.318  1.00  0.00     0.001 A 
HETATM   16  C   UNL     1     -41.256  53.201 -53.826  1.00  0.00     0.017 A 
BRANCH  12  17
HETATM   17  O   UNL     1     -40.479  53.010 -50.227  1.00  0.00    -0.360 OA
HETATM   18  H   UNL     1     -41.350  52.665 -49.923  1.00  0.00     0.217 HD
ENDBRANCH  12  17
ENDBRANCH  10  11
BRANCH   6  19
HETATM   19  C   UNL     1     -42.768  56.329 -54.612  1.00  0.00    -0.031 A 
HETATM   20  C   UNL     1     -43.414  55.148 -55.024  1.00  0.00     0.011 A 
HETATM   21  C   UNL     1     -43.536  54.831 -56.380  1.00  0.00     0.024 A 
HETATM   22  C   UNL     1     -43.036  55.701 -57.344  1.00  0.00     0.034 A 
HETATM   23 CL   UNL     1     -43.189  55.312 -59.013  1.00  0.00    -0.084 Cl
HETATM   24  C   UNL     1     -42.419  56.889 -56.964  1.00  0.00     0.024 A 
HETATM   25  C   UNL     1     -42.291  57.202 -55.609  1.00  0.00     0.011 A 
ENDBRANCH   6  19
BRANCH   1  26
HETATM   26  C   UNL     1     -43.731  59.053 -53.154  1.00  0.00     0.129 C 
BRANCH  26  27
HETATM   27  C   UNL     1     -42.369  59.749 -53.188  1.00  0.00     0.046 C 
BRANCH  27  28
HETATM   28  C   UNL     1     -41.838  60.153 -51.817  1.00  0.00     0.169 C 
BRANCH  28  29
HETATM   29  O   UNL     1     -40.436  59.892 -51.755  1.00  0.00    -0.387 OA
BRANCH  29  30
HETATM   30  C   UNL     1     -39.998  59.351 -50.504  1.00  0.00     0.113 C 
HETATM   31  C   UNL     1     -38.477  59.353 -50.372  1.00  0.00     0.039 C 
HETATM   32  C   UNL     1     -40.522  57.919 -50.437  1.00  0.00     0.039 C 
ENDBRANCH  29  30
ENDBRANCH  28  29
ENDBRANCH  27  28
ENDBRANCH  26  27
ENDBRANCH   1  26
TORSDOF 8
ENDMDL
MODEL 5
REMARK VINA RESULT:      -6.8      3.221      4.879
REMARK  8 active torsions:
REMARK  status: ('A' for Active; 'I' for Inactive)
REMARK    1  A    between atoms: C_2  and  O_3 
REMARK    2  A    between atoms: O_3  and  C_4 
REMARK    3  A    between atoms: C_4  and  C_5 
REMARK    4  A    between atoms: C_5  and  C_6 
REMARK    5  A    between atoms: C_6  and  N_7 
REMARK    6  A    between atoms: C_12  and  C_13 
REMARK    7  A    between atoms: C_23  and  C_24 
REMARK    8  A    between atoms: C_25  and  O_26 
ROOT
HETATM    1  N   UNL     1     -41.940  55.883 -54.282  1.00  0.00    -0.334 N 
HETATM    2  C   UNL     1     -42.600  54.768 -54.805  1.00  0.00     0.273 A 
HETATM    3  O   UNL     1     -42.823  53.694 -54.276  1.00  0.00    -0.266 OA
HETATM    4  C   UNL     1     -42.913  55.165 -56.126  1.00  0.00     0.129 A 
HETATM    5  C   UNL     1     -42.485  56.426 -56.423  1.00  0.00     0.034 A 
HETATM    6  C   UNL     1     -41.810  57.014 -55.240  1.00  0.00     0.159 A 
HETATM    7  N   UNL     1     -43.511  54.659 -57.210  1.00  0.00    -0.272 N 
HETATM    8  H   UNL     1     -43.941  53.747 -57.340  1.00  0.00     0.189 HD
HETATM    9  N   UNL     1     -43.501  55.545 -58.238  1.00  0.00    -0.173 NA
HETATM   10  C   UNL     1     -42.851  56.645 -57.766  1.00  0.00     0.101 A 
ENDROOT
BRANCH  10  11
HETATM   11  C   UNL     1     -42.650  57.817 -58.634  1.00  0.00     0.028 A 
HETATM   12  C   UNL     1     -41.986  57.713 -59.872  1.00  0.00     0.078 A 
HETATM   13  C   UNL     1     -41.816  58.817 -60.707  1.00  0.00     0.037 A 
HETATM   14  C   UNL     1     -42.305  60.061 -60.320  1.00  0.00     0.003 A 
HETATM   15  C   UNL     1     -42.954  60.196 -59.095  1.00  0.00     0.001 A 
HETATM   16  C   UNL     1     -43.119  59.086 -58.258  1.00  0.00     0.017 A 
BRANCH  12  17
HETATM   17  O   UNL     1     -41.461  56.533 -60.337  1.00  0.00    -0.360 OA
HETATM   18  H   UNL     1     -41.502  56.587 -61.320  1.00  0.00     0.217 HD
ENDBRANCH  12  17
ENDBRANCH  10  11
BRANCH   6  19
HETATM   19  C   UNL     1     -42.558  58.253 -54.796  1.00  0.00    -0.031 A 
HETATM   20  C   UNL     1     -43.907  58.248 -54.395  1.00  0.00     0.011 A 
HETATM   21  C   UNL     1     -44.540  59.427 -53.989  1.00  0.00     0.024 A 
HETATM   22  C   UNL     1     -43.827  60.621 -53.953  1.00  0.00     0.034 A 
HETATM   23 CL   UNL     1     -44.606  62.070 -53.448  1.00  0.00    -0.084 Cl
HETATM   24  C   UNL     1     -42.484  60.647 -54.315  1.00  0.00     0.024 A 
HETATM   25  C   UNL     1     -41.854  59.471 -54.729  1.00  0.00     0.011 A 
ENDBRANCH   6  19
BRANCH   1  26
HETATM   26  C   UNL     1     -41.293  55.890 -52.982  1.00  0.00     0.129 C 
BRANCH  26  27
HETATM   27  C   UNL     1     -42.265  56.070 -51.814  1.00  0.00     0.046 C 
BRANCH  27  28
HETATM   28  C   UNL     1     -41.669  56.791 -50.610  1.00  0.00     0.169 C 
BRANCH  28  29
HETATM   29  O   UNL     1     -40.645  57.682 -51.048  1.00  0.00    -0.387 OA
BRANCH  29  30
HETATM   30  C   UNL     1     -40.610  58.926 -50.341  1.00  0.00     0.113 C 
HETATM   31  C   UNL     1     -41.694  59.892 -50.811  1.00  0.00     0.039 C 
HETATM   32  C   UNL     1     -39.232  59.532 -50.588  1.00  0.00     0.039 C 
ENDBRANCH  29  30
ENDBRANCH  28  29
ENDBRANCH  27  28
ENDBRANCH  26  27
ENDBRANCH   1  26
TORSDOF 8
ENDMDL
MODEL 6
REMARK VINA RESULT:      -6.7      3.125      7.007
REMARK  8 active torsions:
REMARK  status: ('A' for Active; 'I' for Inactive)
REMARK    1  A    between atoms: C_2  and  O_3 
REMARK    2  A    between atoms: O_3  and  C_4 
REMARK    3  A    between atoms: C_4  and  C_5 
REMARK    4  A    between atoms: C_5  and  C_6 
REMARK    5  A    between atoms: C_6  and  N_7 
REMARK    6  A    between atoms: C_12  and  C_13 
REMARK    7  A    between atoms: C_23  and  C_24 
REMARK    8  A    between atoms: C_25  and  O_26 
ROOT
HETATM    1  N   UNL     1     -43.703  56.714 -55.254  1.00  0.00    -0.334 N 
HETATM    2  C   UNL     1     -42.877  56.194 -56.253  1.00  0.00     0.273 A 
HETATM    3  O   UNL     1     -42.966  56.324 -57.461  1.00  0.00    -0.266 OA
HETATM    4  C   UNL     1     -41.928  55.435 -55.531  1.00  0.00     0.129 A 
HETATM    5  C   UNL     1     -42.133  55.462 -54.182  1.00  0.00     0.034 A 
HETATM    6  C   UNL     1     -43.314  56.307 -53.876  1.00  0.00     0.159 A 
HETATM    7  N   UNL     1     -40.863  54.664 -55.777  1.00  0.00    -0.272 N 
HETATM    8  H   UNL     1     -40.434  54.426 -56.668  1.00  0.00     0.189 HD
HETATM    9  N   UNL     1     -40.337  54.168 -54.629  1.00  0.00    -0.173 NA
HETATM   10  C   UNL     1     -41.128  54.645 -53.629  1.00  0.00     0.101 A 
ENDROOT
BRANCH  10  11
HETATM   11  C   UNL     1     -40.845  54.292 -52.227  1.00  0.00     0.028 A 
HETATM   12  C   UNL     1     -40.361  53.018 -51.871  1.00  0.00     0.078 A 
HETATM   13  C   UNL     1     -40.069  52.689 -50.547  1.00  0.00     0.037 A 
HETATM   14  C   UNL     1     -40.261  53.630 -49.541  1.00  0.00     0.003 A 
HETATM   15  C   UNL     1     -40.752  54.894 -49.863  1.00  0.00     0.001 A 
HETATM   16  C   UNL     1     -41.046  55.219 -51.192  1.00  0.00     0.017 A 
BRANCH  12  17
HETATM   17  O   UNL     1     -40.148  52.020 -52.790  1.00  0.00    -0.360 OA
HETATM   18  H   UNL     1     -39.355  52.293 -53.307  1.00  0.00     0.217 HD
ENDBRANCH  12  17
ENDBRANCH  10  11
BRANCH   6  19
HETATM   19  C   UNL     1     -42.890  57.476 -53.012  1.00  0.00    -0.031 A 
HETATM   20  C   UNL     1     -41.797  58.310 -53.312  1.00  0.00     0.011 A 
HETATM   21  C   UNL     1     -41.460  59.380 -52.477  1.00  0.00     0.024 A 
HETATM   22  C   UNL     1     -42.224  59.645 -51.345  1.00  0.00     0.034 A 
HETATM   23 CL   UNL     1     -41.811  60.963 -50.319  1.00  0.00    -0.084 Cl
HETATM   24  C   UNL     1     -43.327  58.853 -51.042  1.00  0.00     0.024 A 
HETATM   25  C   UNL     1     -43.659  57.779 -51.873  1.00  0.00     0.011 A 
ENDBRANCH   6  19
BRANCH   1  26
HETATM   26  C   UNL     1     -44.924  57.447 -55.528  1.00  0.00     0.129 C 
BRANCH  26  27
HETATM   27  C   UNL     1     -44.685  58.836 -56.126  1.00  0.00     0.046 C 
BRANCH  27  28
HETATM   28  C   UNL     1     -44.584  59.953 -55.093  1.00  0.00     0.169 C 
BRANCH  28  29
HETATM   29  O   UNL     1     -45.504  59.703 -54.032  1.00  0.00    -0.387 OA
BRANCH  29  30
HETATM   30  C   UNL     1     -45.880  60.873 -53.297  1.00  0.00     0.113 C 
HETATM   31  C   UNL     1     -44.693  61.793 -53.025  1.00  0.00     0.039 C 
HETATM   32  C   UNL     1     -46.475  60.390 -51.978  1.00  0.00     0.039 C 
ENDBRANCH  29  30
ENDBRANCH  28  29
ENDBRANCH  27  28
ENDBRANCH  26  27
ENDBRANCH   1  26
TORSDOF 8
ENDMDL
MODEL 7
REMARK VINA RESULT:      -6.6      3.103      4.437
REMARK  8 active torsions:
REMARK  status: ('A' for Active; 'I' for Inactive)
REMARK    1  A    between atoms: C_2  and  O_3 
REMARK    2  A    between atoms: O_3  and  C_4 
REMARK    3  A    between atoms: C_4  and  C_5 
REMARK    4  A    between atoms: C_5  and  C_6 
REMARK    5  A    between atoms: C_6  and  N_7 
REMARK    6  A    between atoms: C_12  and  C_13 
REMARK    7  A    between atoms: C_23  and  C_24 
REMARK    8  A    between atoms: C_25  and  O_26 
ROOT
HETATM    1  N   UNL     1     -41.910  55.752 -54.337  1.00  0.00    -0.334 N 
HETATM    2  C   UNL     1     -42.597  54.660 -54.874  1.00  0.00     0.273 A 
HETATM    3  O   UNL     1     -42.830  53.579 -54.365  1.00  0.00    -0.266 OA
HETATM    4  C   UNL     1     -42.924  55.092 -56.181  1.00  0.00     0.129 A 
HETATM    5  C   UNL     1     -42.479  56.351 -56.457  1.00  0.00     0.034 A 
HETATM    6  C   UNL     1     -41.777  56.902 -55.271  1.00  0.00     0.159 A 
HETATM    7  N   UNL     1     -43.547  54.620 -57.266  1.00  0.00    -0.272 N 
HETATM    8  H   UNL     1     -43.995  53.719 -57.409  1.00  0.00     0.189 HD
HETATM    9  N   UNL     1     -43.539  55.529 -58.274  1.00  0.00    -0.173 NA
HETATM   10  C   UNL     1     -42.862  56.606 -57.788  1.00  0.00     0.101 A 
ENDROOT
BRANCH  10  11
HETATM   11  C   UNL     1     -42.656  57.795 -58.633  1.00  0.00     0.028 A 
HETATM   12  C   UNL     1     -42.021  57.706 -59.888  1.00  0.00     0.078 A 
HETATM   13  C   UNL     1     -41.846  58.826 -60.701  1.00  0.00     0.037 A 
HETATM   14  C   UNL     1     -42.299  60.070 -60.274  1.00  0.00     0.003 A 
HETATM   15  C   UNL     1     -42.918  60.189 -59.032  1.00  0.00     0.001 A 
HETATM   16  C   UNL     1     -43.089  59.063 -58.217  1.00  0.00     0.017 A 
BRANCH  12  17
HETATM   17  O   UNL     1     -41.532  56.526 -60.392  1.00  0.00    -0.360 OA
HETATM   18  H   UNL     1     -40.559  56.550 -60.241  1.00  0.00     0.217 HD
ENDBRANCH  12  17
ENDBRANCH  10  11
BRANCH   6  19
HETATM   19  C   UNL     1     -42.495  58.143 -54.788  1.00  0.00    -0.031 A 
HETATM   20  C   UNL     1     -41.859  59.381 -54.580  1.00  0.00     0.011 A 
HETATM   21  C   UNL     1     -42.580  60.494 -54.139  1.00  0.00     0.024 A 
HETATM   22  C   UNL     1     -43.951  60.393 -53.922  1.00  0.00     0.034 A 
HETATM   23 CL   UNL     1     -44.838  61.764 -53.383  1.00  0.00    -0.084 Cl
HETATM   24  C   UNL     1     -44.609  59.188 -54.149  1.00  0.00     0.024 A 
HETATM   25  C   UNL     1     -43.887  58.074 -54.582  1.00  0.00     0.011 A 
ENDBRANCH   6  19
BRANCH   1  26
HETATM   26  C   UNL     1     -41.243  55.719 -53.048  1.00  0.00     0.129 C 
BRANCH  26  27
HETATM   27  C   UNL     1     -42.190  55.918 -51.862  1.00  0.00     0.046 C 
BRANCH  27  28
HETATM   28  C   UNL     1     -42.251  54.732 -50.906  1.00  0.00     0.169 C 
BRANCH  28  29
HETATM   29  O   UNL     1     -41.592  55.070 -49.687  1.00  0.00    -0.387 OA
BRANCH  29  30
HETATM   30  C   UNL     1     -40.374  54.352 -49.462  1.00  0.00     0.113 C 
HETATM   31  C   UNL     1     -40.295  53.071 -50.288  1.00  0.00     0.039 C 
HETATM   32  C   UNL     1     -40.334  54.012 -47.975  1.00  0.00     0.039 C 
ENDBRANCH  29  30
ENDBRANCH  28  29
ENDBRANCH  27  28
ENDBRANCH  26  27
ENDBRANCH   1  26
TORSDOF 8
ENDMDL
MODEL 8
REMARK VINA RESULT:      -6.6      2.924      7.574
REMARK  8 active torsions:
REMARK  status: ('A' for Active; 'I' for Inactive)
REMARK    1  A    between atoms: C_2  and  O_3 
REMARK    2  A    between atoms: O_3  and  C_4 
REMARK    3  A    between atoms: C_4  and  C_5 
REMARK    4  A    between atoms: C_5  and  C_6 
REMARK    5  A    between atoms: C_6  and  N_7 
REMARK    6  A    between atoms: C_12  and  C_13 
REMARK    7  A    between atoms: C_23  and  C_24 
REMARK    8  A    between atoms: C_25  and  O_26 
ROOT
HETATM    1  N   UNL     1     -43.555  56.498 -55.371  1.00  0.00    -0.334 N 
HETATM    2  C   UNL     1     -42.652  55.979 -56.301  1.00  0.00     0.273 A 
HETATM    3  O   UNL     1     -42.664  56.077 -57.515  1.00  0.00    -0.266 OA
HETATM    4  C   UNL     1     -41.732  55.264 -55.499  1.00  0.00     0.129 A 
HETATM    5  C   UNL     1     -42.026  55.318 -54.168  1.00  0.00     0.034 A 
HETATM    6  C   UNL     1     -43.247  56.135 -53.961  1.00  0.00     0.159 A 
HETATM    7  N   UNL     1     -40.633  54.518 -55.656  1.00  0.00    -0.272 N 
HETATM    8  H   UNL     1     -40.140  54.272 -56.511  1.00  0.00     0.189 HD
HETATM    9  N   UNL     1     -40.170  54.065 -54.464  1.00  0.00    -0.173 NA
HETATM   10  C   UNL     1     -41.038  54.542 -53.530  1.00  0.00     0.101 A 
ENDROOT
BRANCH  10  11
HETATM   11  C   UNL     1     -40.839  54.231 -52.104  1.00  0.00     0.028 A 
HETATM   12  C   UNL     1     -40.380  52.967 -51.683  1.00  0.00     0.078 A 
HETATM   13  C   UNL     1     -40.167  52.677 -50.335  1.00  0.00     0.037 A 
HETATM   14  C   UNL     1     -40.415  53.648 -49.370  1.00  0.00     0.003 A 
HETATM   15  C   UNL     1     -40.882  54.902 -49.757  1.00  0.00     0.001 A 
HETATM   16  C   UNL     1     -41.097  55.188 -51.110  1.00  0.00     0.017 A 
BRANCH  12  17
HETATM   17  O   UNL     1     -40.117  51.942 -52.558  1.00  0.00    -0.360 OA
HETATM   18  H   UNL     1     -39.166  52.031 -52.800  1.00  0.00     0.217 HD
ENDBRANCH  12  17
ENDBRANCH  10  11
BRANCH   6  19
HETATM   19  C   UNL     1     -42.913  57.335 -53.101  1.00  0.00    -0.031 A 
HETATM   20  C   UNL     1     -41.786  58.153 -53.309  1.00  0.00     0.011 A 
HETATM   21  C   UNL     1     -41.535  59.253 -52.484  1.00  0.00     0.024 A 
HETATM   22  C   UNL     1     -42.419  59.566 -51.455  1.00  0.00     0.034 A 
HETATM   23 CL   UNL     1     -42.112  60.922 -50.442  1.00  0.00    -0.084 Cl
HETATM   24  C   UNL     1     -43.556  58.791 -51.248  1.00  0.00     0.024 A 
HETATM   25  C   UNL     1     -43.802  57.687 -52.068  1.00  0.00     0.011 A 
ENDBRANCH   6  19
BRANCH   1  26
HETATM   26  C   UNL     1     -44.775  57.190 -55.743  1.00  0.00     0.129 C 
BRANCH  26  27
HETATM   27  C   UNL     1     -44.548  58.633 -56.199  1.00  0.00     0.046 C 
BRANCH  27  28
HETATM   28  C   UNL     1     -44.974  58.909 -57.636  1.00  0.00     0.169 C 
BRANCH  28  29
HETATM   29  O   UNL     1     -45.396  57.692 -58.249  1.00  0.00    -0.387 OA
BRANCH  29  30
HETATM   30  C   UNL     1     -46.703  57.753 -58.830  1.00  0.00     0.113 C 
HETATM   31  C   UNL     1     -46.910  56.691 -59.907  1.00  0.00     0.039 C 
HETATM   32  C   UNL     1     -46.848  59.144 -59.439  1.00  0.00     0.039 C 
ENDBRANCH  29  30
ENDBRANCH  28  29
ENDBRANCH  27  28
ENDBRANCH  26  27
ENDBRANCH   1  26
TORSDOF 8
ENDMDL
MODEL 9
REMARK VINA RESULT:      -6.5      3.539      6.134
REMARK  8 active torsions:
REMARK  status: ('A' for Active; 'I' for Inactive)
REMARK    1  A    between atoms: C_2  and  O_3 
REMARK    2  A    between atoms: O_3  and  C_4 
REMARK    3  A    between atoms: C_4  and  C_5 
REMARK    4  A    between atoms: C_5  and  C_6 
REMARK    5  A    between atoms: C_6  and  N_7 
REMARK    6  A    between atoms: C_12  and  C_13 
REMARK    7  A    between atoms: C_23  and  C_24 
REMARK    8  A    between atoms: C_25  and  O_26 
ROOT
HETATM    1  N   UNL     1     -42.492  55.787 -51.598  1.00  0.00    -0.334 N 
HETATM    2  C   UNL     1     -41.381  56.167 -50.842  1.00  0.00     0.273 A 
HETATM    3  O   UNL     1     -40.491  55.469 -50.390  1.00  0.00    -0.266 OA
HETATM    4  C   UNL     1     -41.557  57.560 -50.680  1.00  0.00     0.129 A 
HETATM    5  C   UNL     1     -42.688  58.031 -51.280  1.00  0.00     0.034 A 
HETATM    6  C   UNL     1     -43.404  56.912 -51.940  1.00  0.00     0.159 A 
HETATM    7  N   UNL     1     -40.937  58.588 -50.090  1.00  0.00    -0.272 N 
HETATM    8  H   UNL     1     -40.071  58.595 -49.556  1.00  0.00     0.189 HD
HETATM    9  N   UNL     1     -41.617  59.747 -50.275  1.00  0.00    -0.173 NA
HETATM   10  C   UNL     1     -42.719  59.412 -51.001  1.00  0.00     0.101 A 
ENDROOT
BRANCH  10  11
HETATM   11  C   UNL     1     -43.699  60.444 -51.382  1.00  0.00     0.028 A 
HETATM   12  C   UNL     1     -44.451  61.139 -50.414  1.00  0.00     0.078 A 
HETATM   13  C   UNL     1     -45.362  62.133 -50.770  1.00  0.00     0.037 A 
HETATM   14  C   UNL     1     -45.548  62.455 -52.110  1.00  0.00     0.003 A 
HETATM   15  C   UNL     1     -44.827  61.775 -53.089  1.00  0.00     0.001 A 
HETATM   16  C   UNL     1     -43.916  60.775 -52.728  1.00  0.00     0.017 A 
BRANCH  12  17
HETATM   17  O   UNL     1     -44.345  60.887 -49.068  1.00  0.00    -0.360 OA
HETATM   18  H   UNL     1     -44.548  61.738 -48.617  1.00  0.00     0.217 HD
ENDBRANCH  12  17
ENDBRANCH  10  11
BRANCH   6  19
HETATM   19  C   UNL     1     -43.488  57.173 -53.429  1.00  0.00    -0.031 A 
HETATM   20  C   UNL     1     -44.702  57.291 -54.132  1.00  0.00     0.011 A 
HETATM   21  C   UNL     1     -44.714  57.541 -55.508  1.00  0.00     0.024 A 
HETATM   22  C   UNL     1     -43.515  57.699 -56.195  1.00  0.00     0.034 A 
HETATM   23 CL   UNL     1     -43.530  58.009 -57.887  1.00  0.00    -0.084 Cl
HETATM   24  C   UNL     1     -42.302  57.616 -55.518  1.00  0.00     0.024 A 
HETATM   25  C   UNL     1     -42.290  57.360 -54.145  1.00  0.00     0.011 A 
ENDBRANCH   6  19
BRANCH   1  26
HETATM   26  C   UNL     1     -42.825  54.405 -51.892  1.00  0.00     0.129 C 
BRANCH  26  27
HETATM   27  C   UNL     1     -42.147  53.865 -53.153  1.00  0.00     0.046 C 
BRANCH  27  28
HETATM   28  C   UNL     1     -40.819  53.160 -52.897  1.00  0.00     0.169 C 
BRANCH  28  29
HETATM   29  O   UNL     1     -40.476  52.368 -54.032  1.00  0.00    -0.387 OA
BRANCH  29  30
HETATM   30  C   UNL     1     -39.562  51.303 -53.747  1.00  0.00     0.113 C 
HETATM   31  C   UNL     1     -40.014  49.974 -54.344  1.00  0.00     0.039 C 
HETATM   32  C   UNL     1     -39.483  51.189 -52.227  1.00  0.00     0.039 C 
ENDBRANCH  29  30
ENDBRANCH  28  29
ENDBRANCH  27  28
ENDBRANCH  26  27
ENDBRANCH   1  26
TORSDOF 8
ENDMDL
MODEL 10
REMARK VINA RESULT:      -6.4     16.462     18.333
REMARK  8 active torsions:
REMARK  status: ('A' for Active; 'I' for Inactive)
REMARK    1  A    between atoms: C_2  and  O_3 
REMARK    2  A    between atoms: O_3  and  C_4 
REMARK    3  A    between atoms: C_4  and  C_5 
REMARK    4  A    between atoms: C_5  and  C_6 
REMARK    5  A    between atoms: C_6  and  N_7 
REMARK    6  A    between atoms: C_12  and  C_13 
REMARK    7  A    between atoms: C_23  and  C_24 
REMARK    8  A    between atoms: C_25  and  O_26 
ROOT
HETATM    1  N   UNL     1     -34.698  39.926 -53.265  1.00  0.00    -0.334 N 
HETATM    2  C   UNL     1     -35.062  41.254 -53.031  1.00  0.00     0.273 A 
HETATM    3  O   UNL     1     -34.832  41.950 -52.058  1.00  0.00    -0.266 OA
HETATM    4  C   UNL     1     -35.810  41.595 -54.182  1.00  0.00     0.129 A 
HETATM    5  C   UNL     1     -35.919  40.569 -55.074  1.00  0.00     0.034 A 
HETATM    6  C   UNL     1     -35.196  39.381 -54.556  1.00  0.00     0.159 A 
HETATM    7  N   UNL     1     -36.473  42.648 -54.671  1.00  0.00    -0.272 N 
HETATM    8  H   UNL     1     -36.598  43.573 -54.268  1.00  0.00     0.189 HD
HETATM    9  N   UNL     1     -37.030  42.364 -55.876  1.00  0.00    -0.173 NA
HETATM   10  C   UNL     1     -36.705  41.067 -56.132  1.00  0.00     0.101 A 
ENDROOT
BRANCH  10  11
HETATM   11  C   UNL     1     -37.160  40.419 -57.373  1.00  0.00     0.028 A 
HETATM   12  C   UNL     1     -37.035  41.056 -58.625  1.00  0.00     0.078 A 
HETATM   13  C   UNL     1     -37.442  40.435 -59.805  1.00  0.00     0.037 A 
HETATM   14  C   UNL     1     -37.992  39.158 -59.763  1.00  0.00     0.003 A 
HETATM   15  C   UNL     1     -38.140  38.510 -58.538  1.00  0.00     0.001 A 
HETATM   16  C   UNL     1     -37.733  39.138 -57.355  1.00  0.00     0.017 A 
BRANCH  12  17
HETATM   17  O   UNL     1     -36.514  42.318 -58.768  1.00  0.00    -0.360 OA
HETATM   18  H   UNL     1     -37.041  42.749 -59.480  1.00  0.00     0.217 HD
ENDBRANCH  12  17
ENDBRANCH  10  11
BRANCH   6  19
HETATM   19  C   UNL     1     -34.081  39.011 -55.511  1.00  0.00    -0.031 A 
HETATM   20  C   UNL     1     -33.108  39.922 -55.964  1.00  0.00     0.011 A 
HETATM   21  C   UNL     1     -32.098  39.517 -56.842  1.00  0.00     0.024 A 
HETATM   22  C   UNL     1     -32.031  38.191 -57.259  1.00  0.00     0.034 A 
HETATM   23 CL   UNL     1     -30.786  37.693 -58.336  1.00  0.00    -0.084 Cl
HETATM   24  C   UNL     1     -32.963  37.265 -56.802  1.00  0.00     0.024 A 
HETATM   25  C   UNL     1     -33.977  37.671 -55.932  1.00  0.00     0.011 A 
ENDBRANCH   6  19
BRANCH   1  26
HETATM   26  C   UNL     1     -34.035  39.094 -52.277  1.00  0.00     0.129 C 
BRANCH  26  27
HETATM   27  C   UNL     1     -32.509  39.203 -52.307  1.00  0.00     0.046 C 
BRANCH  27  28
HETATM   28  C   UNL     1     -31.926  40.111 -51.229  1.00  0.00     0.169 C 
BRANCH  28  29
HETATM   29  O   UNL     1     -31.516  39.321 -50.114  1.00  0.00    -0.387 OA
BRANCH  29  30
HETATM   30  C   UNL     1     -32.149  39.678 -48.880  1.00  0.00     0.113 C 
HETATM   31  C   UNL     1     -31.176  39.664 -47.704  1.00  0.00     0.039 C 
HETATM   32  C   UNL     1     -33.260  38.660 -48.646  1.00  0.00     0.039 C 
ENDBRANCH  29  30
ENDBRANCH  28  29
ENDBRANCH  27  28
ENDBRANCH  26  27
ENDBRANCH   1  26
TORSDOF 8
ENDMDL
