MODEL 1
REMARK VINA RESULT:      -8.3      0.000      0.000
REMARK  6 active torsions:
REMARK  status: ('A' for Active; 'I' for Inactive)
REMARK    1  A    between atoms: O_2  and  C_3 
REMARK    2  A    between atoms: C_6  and  C_7 
REMARK    3  A    between atoms: C_11  and  C_12 
REMARK       I    between atoms: C_12  and  N_13 
REMARK    4  A    between atoms: N_13  and  N_14 
REMARK       I    between atoms: N_14  and  C_15 
REMARK    5  A    between atoms: C_15  and  C_16 
REMARK    6  A    between atoms: C_17  and  C_18 
ROOT
HETATM    1  C   UNL     1     -43.231  56.979 -57.745  1.00  0.00     0.288 C 
HETATM    2  N   UNL     1     -43.176  55.800 -57.035  1.00  0.00    -0.262 N 
HETATM    3  O   UNL     1     -42.263  57.729 -57.845  1.00  0.00    -0.264 OA
HETATM    4  H   UNL     1     -43.942  55.133 -56.979  1.00  0.00     0.190 HD
ENDROOT
BRANCH   1   5
HETATM    5  C   UNL     1     -44.503  57.268 -58.350  1.00  0.00     0.121 A 
HETATM    6  N   UNL     1     -45.586  57.653 -57.612  1.00  0.00    -0.272 N 
HETATM    7  N   UNL     1     -46.693  57.878 -58.334  1.00  0.00    -0.174 NA
HETATM    8  H   UNL     1     -45.623  57.778 -56.604  1.00  0.00     0.189 HD
HETATM    9  C   UNL     1     -46.337  57.606 -59.600  1.00  0.00     0.089 A 
HETATM   10  C   UNL     1     -44.963  57.234 -59.651  1.00  0.00     0.071 A 
BRANCH   9  11
HETATM   11  C   UNL     1     -47.289  57.704 -60.712  1.00  0.00    -0.005 A 
HETATM   12  C   UNL     1     -47.707  56.554 -61.398  1.00  0.00     0.016 A 
HETATM   13  C   UNL     1     -48.624  56.634 -62.454  1.00  0.00     0.037 A 
HETATM   14  C   UNL     1     -49.136  57.869 -62.846  1.00  0.00     0.068 A 
HETATM   15  C   UNL     1     -48.714  59.021 -62.178  1.00  0.00     0.037 A 
HETATM   16  C   UNL     1     -47.801  58.943 -61.121  1.00  0.00     0.016 A 
BRANCH  14  17
HETATM   17  O   UNL     1     -50.033  58.089 -63.853  1.00  0.00    -0.356 OA
HETATM   18  C   UNL     1     -50.852  59.246 -63.742  1.00  0.00     0.210 C 
ENDBRANCH  14  17
ENDBRANCH   9  11
ENDBRANCH   1   5
BRANCH   2  19
HETATM   19  N   UNL     1     -41.999  55.446 -56.370  1.00  0.00    -0.267 N 
HETATM   20  C   UNL     1     -42.036  54.354 -55.534  1.00  0.00     0.240 C 
HETATM   21  O   UNL     1     -43.061  53.705 -55.338  1.00  0.00    -0.271 OA
HETATM   22  H   UNL     1     -41.142  55.905 -56.669  1.00  0.00     0.190 HD
BRANCH  20  23
HETATM   23  C   UNL     1     -40.781  53.968 -54.839  1.00  0.00     0.089 A 
HETATM   24  C   UNL     1     -40.551  54.229 -53.362  1.00  0.00     0.036 A 
HETATM   25  C   UNL     1     -40.651  52.814 -53.886  1.00  0.00     0.025 A 
BRANCH  24  26
HETATM   26  C   UNL     1     -41.629  54.786 -52.459  1.00  0.00    -0.015 A 
HETATM   27  C   UNL     1     -41.832  56.168 -52.306  1.00  0.00     0.123 A 
HETATM   28  F   UNL     1     -41.036  57.028 -52.961  1.00  0.00    -0.206 F 
HETATM   29  C   UNL     1     -42.836  56.688 -51.494  1.00  0.00     0.043 A 
HETATM   30  C   UNL     1     -43.684  55.823 -50.808  1.00  0.00     0.003 A 
HETATM   31  C   UNL     1     -43.523  54.447 -50.948  1.00  0.00     0.001 A 
HETATM   32  C   UNL     1     -42.511  53.937 -51.769  1.00  0.00     0.011 A 
ENDBRANCH  24  26
ENDBRANCH  20  23
ENDBRANCH   2  19
TORSDOF 6
ENDMDL
MODEL 2
REMARK VINA RESULT:      -8.2      2.887      4.589
REMARK  6 active torsions:
REMARK  status: ('A' for Active; 'I' for Inactive)
REMARK    1  A    between atoms: O_2  and  C_3 
REMARK    2  A    between atoms: C_6  and  C_7 
REMARK    3  A    between atoms: C_11  and  C_12 
REMARK       I    between atoms: C_12  and  N_13 
REMARK    4  A    between atoms: N_13  and  N_14 
REMARK       I    between atoms: N_14  and  C_15 
REMARK    5  A    between atoms: C_15  and  C_16 
REMARK    6  A    between atoms: C_17  and  C_18 
ROOT
HETATM    1  C   UNL     1     -41.676  56.837 -54.274  1.00  0.00     0.288 C 
HETATM    2  N   UNL     1     -41.721  55.530 -53.841  1.00  0.00    -0.262 N 
HETATM    3  O   UNL     1     -41.074  57.712 -53.655  1.00  0.00    -0.264 OA
HETATM    4  H   UNL     1     -42.163  54.775 -54.359  1.00  0.00     0.190 HD
ENDROOT
BRANCH   1   5
HETATM    5  C   UNL     1     -42.390  57.101 -55.494  1.00  0.00     0.121 A 
HETATM    6  N   UNL     1     -42.460  58.352 -56.037  1.00  0.00    -0.272 N 
HETATM    7  N   UNL     1     -43.169  58.421 -57.172  1.00  0.00    -0.174 NA
HETATM    8  H   UNL     1     -42.038  59.200 -55.669  1.00  0.00     0.189 HD
HETATM    9  C   UNL     1     -43.610  57.170 -57.377  1.00  0.00     0.089 A 
HETATM   10  C   UNL     1     -43.127  56.308 -56.351  1.00  0.00     0.071 A 
BRANCH   9  11
HETATM   11  C   UNL     1     -44.461  56.824 -58.521  1.00  0.00    -0.005 A 
HETATM   12  C   UNL     1     -44.065  55.832 -59.432  1.00  0.00     0.016 A 
HETATM   13  C   UNL     1     -44.873  55.486 -60.522  1.00  0.00     0.037 A 
HETATM   14  C   UNL     1     -46.094  56.128 -60.722  1.00  0.00     0.068 A 
HETATM   15  C   UNL     1     -46.489  57.125 -59.828  1.00  0.00     0.037 A 
HETATM   16  C   UNL     1     -45.685  57.471 -58.737  1.00  0.00     0.016 A 
BRANCH  14  17
HETATM   17  O   UNL     1     -46.977  55.887 -61.736  1.00  0.00    -0.356 OA
HETATM   18  C   UNL     1     -48.087  56.769 -61.845  1.00  0.00     0.210 C 
ENDBRANCH  14  17
ENDBRANCH   9  11
ENDBRANCH   1   5
BRANCH   2  19
HETATM   19  N   UNL     1     -41.097  55.176 -52.642  1.00  0.00    -0.267 N 
HETATM   20  C   UNL     1     -41.731  54.260 -51.834  1.00  0.00     0.240 C 
HETATM   21  O   UNL     1     -42.822  53.771 -52.117  1.00  0.00    -0.271 OA
HETATM   22  H   UNL     1     -40.135  55.478 -52.513  1.00  0.00     0.190 HD
BRANCH  20  23
HETATM   23  C   UNL     1     -41.061  53.871 -50.566  1.00  0.00     0.089 A 
HETATM   24  C   UNL     1     -40.254  52.593 -50.427  1.00  0.00     0.036 A 
HETATM   25  C   UNL     1     -39.579  53.944 -50.326  1.00  0.00     0.025 A 
BRANCH  24  26
HETATM   26  C   UNL     1     -39.967  51.684 -51.601  1.00  0.00    -0.015 A 
HETATM   27  C   UNL     1     -39.810  50.296 -51.446  1.00  0.00     0.123 A 
HETATM   28  F   UNL     1     -39.896  49.754 -50.221  1.00  0.00    -0.206 F 
HETATM   29  C   UNL     1     -39.567  49.449 -52.525  1.00  0.00     0.043 A 
HETATM   30  C   UNL     1     -39.482  49.978 -53.809  1.00  0.00     0.003 A 
HETATM   31  C   UNL     1     -39.647  51.346 -54.002  1.00  0.00     0.001 A 
HETATM   32  C   UNL     1     -39.892  52.187 -52.910  1.00  0.00     0.011 A 
ENDBRANCH  24  26
ENDBRANCH  20  23
ENDBRANCH   2  19
TORSDOF 6
ENDMDL
MODEL 3
REMARK VINA RESULT:      -8.1      3.686      9.946
REMARK  6 active torsions:
REMARK  status: ('A' for Active; 'I' for Inactive)
REMARK    1  A    between atoms: O_2  and  C_3 
REMARK    2  A    between atoms: C_6  and  C_7 
REMARK    3  A    between atoms: C_11  and  C_12 
REMARK       I    between atoms: C_12  and  N_13 
REMARK    4  A    between atoms: N_13  and  N_14 
REMARK       I    between atoms: N_14  and  C_15 
REMARK    5  A    between atoms: C_15  and  C_16 
REMARK    6  A    between atoms: C_17  and  C_18 
ROOT
HETATM    1  C   UNL     1     -43.100  56.811 -56.775  1.00  0.00     0.288 C 
HETATM    2  N   UNL     1     -42.050  57.089 -57.621  1.00  0.00    -0.262 N 
HETATM    3  O   UNL     1     -44.174  57.404 -56.846  1.00  0.00    -0.264 OA
HETATM    4  H   UNL     1     -41.170  56.579 -57.622  1.00  0.00     0.190 HD
ENDROOT
BRANCH   1   5
HETATM    5  C   UNL     1     -42.844  55.784 -55.802  1.00  0.00     0.121 A 
HETATM    6  N   UNL     1     -43.802  55.362 -54.923  1.00  0.00    -0.272 N 
HETATM    7  N   UNL     1     -43.393  54.402 -54.082  1.00  0.00    -0.174 NA
HETATM    8  H   UNL     1     -44.758  55.700 -54.856  1.00  0.00     0.189 HD
HETATM    9  C   UNL     1     -42.104  54.198 -54.396  1.00  0.00     0.089 A 
HETATM   10  C   UNL     1     -41.727  55.037 -55.483  1.00  0.00     0.071 A 
BRANCH   9  11
HETATM   11  C   UNL     1     -41.273  53.227 -53.675  1.00  0.00    -0.005 A 
HETATM   12  C   UNL     1     -40.754  52.102 -54.334  1.00  0.00     0.016 A 
HETATM   13  C   UNL     1     -39.950  51.174 -53.658  1.00  0.00     0.037 A 
HETATM   14  C   UNL     1     -39.655  51.354 -52.308  1.00  0.00     0.068 A 
HETATM   15  C   UNL     1     -40.179  52.463 -51.642  1.00  0.00     0.037 A 
HETATM   16  C   UNL     1     -40.979  53.393 -52.315  1.00  0.00     0.016 A 
BRANCH  14  17
HETATM   17  O   UNL     1     -38.886  50.532 -51.533  1.00  0.00    -0.356 OA
HETATM   18  C   UNL     1     -39.568  49.715 -50.591  1.00  0.00     0.210 C 
ENDBRANCH  14  17
ENDBRANCH   9  11
ENDBRANCH   1   5
BRANCH   2  19
HETATM   19  N   UNL     1     -42.179  58.102 -58.575  1.00  0.00    -0.267 N 
HETATM   20  C   UNL     1     -42.365  57.729 -59.887  1.00  0.00     0.240 C 
HETATM   21  O   UNL     1     -42.395  56.554 -60.244  1.00  0.00    -0.271 OA
HETATM   22  H   UNL     1     -42.302  59.050 -58.231  1.00  0.00     0.190 HD
BRANCH  20  23
HETATM   23  C   UNL     1     -42.519  58.806 -60.899  1.00  0.00     0.089 A 
HETATM   24  C   UNL     1     -43.783  59.638 -61.022  1.00  0.00     0.036 A 
HETATM   25  C   UNL     1     -42.480  60.277 -60.595  1.00  0.00     0.025 A 
BRANCH  24  26
HETATM   26  C   UNL     1     -44.930  59.519 -60.044  1.00  0.00    -0.015 A 
HETATM   27  C   UNL     1     -45.756  58.383 -60.001  1.00  0.00     0.123 A 
HETATM   28  F   UNL     1     -45.541  57.376 -60.863  1.00  0.00    -0.206 F 
HETATM   29  C   UNL     1     -46.801  58.257 -59.089  1.00  0.00     0.043 A 
HETATM   30  C   UNL     1     -47.045  59.278 -58.176  1.00  0.00     0.003 A 
HETATM   31  C   UNL     1     -46.237  60.411 -58.180  1.00  0.00     0.001 A 
HETATM   32  C   UNL     1     -45.189  60.526 -59.100  1.00  0.00     0.011 A 
ENDBRANCH  24  26
ENDBRANCH  20  23
ENDBRANCH   2  19
TORSDOF 6
ENDMDL
MODEL 4
REMARK VINA RESULT:      -8.0      3.424     10.278
REMARK  6 active torsions:
REMARK  status: ('A' for Active; 'I' for Inactive)
REMARK    1  A    between atoms: O_2  and  C_3 
REMARK    2  A    between atoms: C_6  and  C_7 
REMARK    3  A    between atoms: C_11  and  C_12 
REMARK       I    between atoms: C_12  and  N_13 
REMARK    4  A    between atoms: N_13  and  N_14 
REMARK       I    between atoms: N_14  and  C_15 
REMARK    5  A    between atoms: C_15  and  C_16 
REMARK    6  A    between atoms: C_17  and  C_18 
ROOT
HETATM    1  C   UNL     1     -44.745  57.593 -53.810  1.00  0.00     0.288 C 
HETATM    2  N   UNL     1     -45.158  57.114 -55.033  1.00  0.00    -0.262 N 
HETATM    3  O   UNL     1     -45.098  58.691 -53.384  1.00  0.00    -0.264 OA
HETATM    4  H   UNL     1     -44.927  56.189 -55.388  1.00  0.00     0.190 HD
ENDROOT
BRANCH   1   5
HETATM    5  C   UNL     1     -43.870  56.720 -53.076  1.00  0.00     0.121 A 
HETATM    6  N   UNL     1     -43.523  56.965 -51.778  1.00  0.00    -0.272 N 
HETATM    7  N   UNL     1     -42.695  56.054 -51.247  1.00  0.00    -0.174 NA
HETATM    8  H   UNL     1     -43.826  57.747 -51.203  1.00  0.00     0.189 HD
HETATM    9  C   UNL     1     -42.462  55.184 -52.242  1.00  0.00     0.089 A 
HETATM   10  C   UNL     1     -43.195  55.561 -53.403  1.00  0.00     0.071 A 
BRANCH   9  11
HETATM   11  C   UNL     1     -41.567  54.033 -52.072  1.00  0.00    -0.005 A 
HETATM   12  C   UNL     1     -40.998  53.401 -53.188  1.00  0.00     0.016 A 
HETATM   13  C   UNL     1     -40.134  52.308 -53.039  1.00  0.00     0.037 A 
HETATM   14  C   UNL     1     -39.826  51.826 -51.768  1.00  0.00     0.068 A 
HETATM   15  C   UNL     1     -40.398  52.441 -50.653  1.00  0.00     0.037 A 
HETATM   16  C   UNL     1     -41.259  53.534 -50.800  1.00  0.00     0.016 A 
BRANCH  14  17
HETATM   17  O   UNL     1     -39.000  50.776 -51.481  1.00  0.00    -0.356 OA
HETATM   18  C   UNL     1     -39.568  49.692 -50.758  1.00  0.00     0.210 C 
ENDBRANCH  14  17
ENDBRANCH   9  11
ENDBRANCH   1   5
BRANCH   2  19
HETATM   19  N   UNL     1     -45.975  57.903 -55.847  1.00  0.00    -0.267 N 
HETATM   20  C   UNL     1     -45.364  58.800 -56.694  1.00  0.00     0.240 C 
HETATM   21  O   UNL     1     -44.144  58.944 -56.739  1.00  0.00    -0.271 OA
HETATM   22  H   UNL     1     -46.959  57.655 -55.896  1.00  0.00     0.190 HD
BRANCH  20  23
HETATM   23  C   UNL     1     -46.231  59.628 -57.570  1.00  0.00     0.089 A 
HETATM   24  C   UNL     1     -46.492  59.282 -59.025  1.00  0.00     0.036 A 
HETATM   25  C   UNL     1     -47.615  59.244 -58.012  1.00  0.00     0.025 A 
BRANCH  24  26
HETATM   26  C   UNL     1     -45.991  58.002 -59.656  1.00  0.00    -0.015 A 
HETATM   27  C   UNL     1     -44.650  57.837 -60.040  1.00  0.00     0.123 A 
HETATM   28  F   UNL     1     -43.783  58.847 -59.865  1.00  0.00    -0.206 F 
HETATM   29  C   UNL     1     -44.176  56.654 -60.602  1.00  0.00     0.043 A 
HETATM   30  C   UNL     1     -45.047  55.584 -60.789  1.00  0.00     0.003 A 
HETATM   31  C   UNL     1     -46.379  55.706 -60.406  1.00  0.00     0.001 A 
HETATM   32  C   UNL     1     -46.842  56.900 -59.841  1.00  0.00     0.011 A 
ENDBRANCH  24  26
ENDBRANCH  20  23
ENDBRANCH   2  19
TORSDOF 6
ENDMDL
MODEL 5
REMARK VINA RESULT:      -7.8     17.711     18.738
REMARK  6 active torsions:
REMARK  status: ('A' for Active; 'I' for Inactive)
REMARK    1  A    between atoms: O_2  and  C_3 
REMARK    2  A    between atoms: C_6  and  C_7 
REMARK    3  A    between atoms: C_11  and  C_12 
REMARK       I    between atoms: C_12  and  N_13 
REMARK    4  A    between atoms: N_13  and  N_14 
REMARK       I    between atoms: N_14  and  C_15 
REMARK    5  A    between atoms: C_15  and  C_16 
REMARK    6  A    between atoms: C_17  and  C_18 
ROOT
HETATM    1  C   UNL     1     -34.992  41.740 -55.992  1.00  0.00     0.288 C 
HETATM    2  N   UNL     1     -33.894  40.941 -55.765  1.00  0.00    -0.262 N 
HETATM    3  O   UNL     1     -35.308  42.653 -55.231  1.00  0.00    -0.264 OA
HETATM    4  H   UNL     1     -33.577  40.215 -56.403  1.00  0.00     0.190 HD
ENDROOT
BRANCH   1   5
HETATM    5  C   UNL     1     -35.743  41.423 -57.177  1.00  0.00     0.121 A 
HETATM    6  N   UNL     1     -36.130  42.383 -58.068  1.00  0.00    -0.272 N 
HETATM    7  N   UNL     1     -36.827  41.915 -59.114  1.00  0.00    -0.174 NA
HETATM    8  H   UNL     1     -35.943  43.380 -58.010  1.00  0.00     0.189 HD
HETATM    9  C   UNL     1     -36.929  40.595 -58.893  1.00  0.00     0.089 A 
HETATM   10  C   UNL     1     -36.247  40.246 -57.693  1.00  0.00     0.071 A 
BRANCH   9  11
HETATM   11  C   UNL     1     -37.656  39.708 -59.810  1.00  0.00    -0.005 A 
HETATM   12  C   UNL     1     -37.239  39.562 -61.141  1.00  0.00     0.016 A 
HETATM   13  C   UNL     1     -37.918  38.710 -62.023  1.00  0.00     0.037 A 
HETATM   14  C   UNL     1     -39.030  37.992 -61.587  1.00  0.00     0.068 A 
HETATM   15  C   UNL     1     -39.459  38.142 -60.267  1.00  0.00     0.037 A 
HETATM   16  C   UNL     1     -38.780  38.989 -59.384  1.00  0.00     0.016 A 
BRANCH  14  17
HETATM   17  O   UNL     1     -39.778  37.128 -62.336  1.00  0.00    -0.356 OA
HETATM   18  C   UNL     1     -40.878  37.682 -63.047  1.00  0.00     0.210 C 
ENDBRANCH  14  17
ENDBRANCH   9  11
ENDBRANCH   1   5
BRANCH   2  19
HETATM   19  N   UNL     1     -33.122  41.136 -54.616  1.00  0.00    -0.267 N 
HETATM   20  C   UNL     1     -32.902  40.051 -53.798  1.00  0.00     0.240 C 
HETATM   21  O   UNL     1     -33.375  38.941 -54.028  1.00  0.00    -0.271 OA
HETATM   22  H   UNL     1     -32.624  42.018 -54.537  1.00  0.00     0.190 HD
BRANCH  20  23
HETATM   23  C   UNL     1     -32.067  40.255 -52.586  1.00  0.00     0.089 A 
HETATM   24  C   UNL     1     -32.663  40.387 -51.196  1.00  0.00     0.036 A 
HETATM   25  C   UNL     1     -31.793  39.201 -51.550  1.00  0.00     0.025 A 
BRANCH  24  26
HETATM   26  C   UNL     1     -34.139  40.196 -50.925  1.00  0.00    -0.015 A 
HETATM   27  C   UNL     1     -35.088  41.180 -51.247  1.00  0.00     0.123 A 
HETATM   28  F   UNL     1     -34.681  42.336 -51.794  1.00  0.00    -0.206 F 
HETATM   29  C   UNL     1     -36.451  41.002 -51.020  1.00  0.00     0.043 A 
HETATM   30  C   UNL     1     -36.907  39.812 -50.463  1.00  0.00     0.003 A 
HETATM   31  C   UNL     1     -35.996  38.808 -50.145  1.00  0.00     0.001 A 
HETATM   32  C   UNL     1     -34.629  38.998 -50.379  1.00  0.00     0.011 A 
ENDBRANCH  24  26
ENDBRANCH  20  23
ENDBRANCH   2  19
TORSDOF 6
ENDMDL
MODEL 6
REMARK VINA RESULT:      -7.8      3.242     10.096
REMARK  6 active torsions:
REMARK  status: ('A' for Active; 'I' for Inactive)
REMARK    1  A    between atoms: O_2  and  C_3 
REMARK    2  A    between atoms: C_6  and  C_7 
REMARK    3  A    between atoms: C_11  and  C_12 
REMARK       I    between atoms: C_12  and  N_13 
REMARK    4  A    between atoms: N_13  and  N_14 
REMARK       I    between atoms: N_14  and  C_15 
REMARK    5  A    between atoms: C_15  and  C_16 
REMARK    6  A    between atoms: C_17  and  C_18 
ROOT
HETATM    1  C   UNL     1     -42.898  57.042 -56.744  1.00  0.00     0.288 C 
HETATM    2  N   UNL     1     -44.103  56.489 -57.116  1.00  0.00    -0.262 N 
HETATM    3  O   UNL     1     -42.449  58.055 -57.276  1.00  0.00    -0.264 OA
HETATM    4  H   UNL     1     -44.525  55.685 -56.658  1.00  0.00     0.190 HD
ENDROOT
BRANCH   1   5
HETATM    5  C   UNL     1     -42.204  56.344 -55.696  1.00  0.00     0.121 A 
HETATM    6  N   UNL     1     -41.600  57.002 -54.662  1.00  0.00    -0.272 N 
HETATM    7  N   UNL     1     -40.995  56.199 -53.776  1.00  0.00    -0.174 NA
HETATM    8  H   UNL     1     -41.572  58.007 -54.513  1.00  0.00     0.189 HD
HETATM    9  C   UNL     1     -41.181  54.959 -54.256  1.00  0.00     0.089 A 
HETATM   10  C   UNL     1     -41.950  55.009 -55.453  1.00  0.00     0.071 A 
BRANCH   9  11
HETATM   11  C   UNL     1     -40.638  53.775 -53.579  1.00  0.00    -0.005 A 
HETATM   12  C   UNL     1     -40.498  53.752 -52.184  1.00  0.00     0.016 A 
HETATM   13  C   UNL     1     -39.991  52.623 -51.526  1.00  0.00     0.037 A 
HETATM   14  C   UNL     1     -39.611  51.498 -52.255  1.00  0.00     0.068 A 
HETATM   15  C   UNL     1     -39.734  51.518 -53.645  1.00  0.00     0.037 A 
HETATM   16  C   UNL     1     -40.243  52.643 -54.304  1.00  0.00     0.016 A 
BRANCH  14  17
HETATM   17  O   UNL     1     -39.107  50.336 -51.743  1.00  0.00    -0.356 OA
HETATM   18  C   UNL     1     -39.819  49.749 -50.661  1.00  0.00     0.210 C 
ENDBRANCH  14  17
ENDBRANCH   9  11
ENDBRANCH   1   5
BRANCH   2  19
HETATM   19  N   UNL     1     -44.837  57.065 -58.157  1.00  0.00    -0.267 N 
HETATM   20  C   UNL     1     -45.796  57.996 -57.829  1.00  0.00     0.240 C 
HETATM   21  O   UNL     1     -46.040  58.314 -56.667  1.00  0.00    -0.271 OA
HETATM   22  H   UNL     1     -44.509  56.896 -59.104  1.00  0.00     0.190 HD
BRANCH  20  23
HETATM   23  C   UNL     1     -46.565  58.620 -58.936  1.00  0.00     0.089 A 
HETATM   24  C   UNL     1     -45.961  59.653 -59.870  1.00  0.00     0.036 A 
HETATM   25  C   UNL     1     -46.382  58.297 -60.392  1.00  0.00     0.025 A 
BRANCH  24  26
HETATM   26  C   UNL     1     -44.497  60.032 -59.823  1.00  0.00    -0.015 A 
HETATM   27  C   UNL     1     -43.995  60.948 -58.883  1.00  0.00     0.123 A 
HETATM   28  F   UNL     1     -44.836  61.527 -58.011  1.00  0.00    -0.206 F 
HETATM   29  C   UNL     1     -42.646  61.286 -58.820  1.00  0.00     0.043 A 
HETATM   30  C   UNL     1     -41.747  60.697 -59.704  1.00  0.00     0.003 A 
HETATM   31  C   UNL     1     -42.206  59.773 -60.638  1.00  0.00     0.001 A 
HETATM   32  C   UNL     1     -43.564  59.441 -60.691  1.00  0.00     0.011 A 
ENDBRANCH  24  26
ENDBRANCH  20  23
ENDBRANCH   2  19
TORSDOF 6
ENDMDL
MODEL 7
REMARK VINA RESULT:      -7.7      1.568      2.048
REMARK  6 active torsions:
REMARK  status: ('A' for Active; 'I' for Inactive)
REMARK    1  A    between atoms: O_2  and  C_3 
REMARK    2  A    between atoms: C_6  and  C_7 
REMARK    3  A    between atoms: C_11  and  C_12 
REMARK       I    between atoms: C_12  and  N_13 
REMARK    4  A    between atoms: N_13  and  N_14 
REMARK       I    between atoms: N_14  and  C_15 
REMARK    5  A    between atoms: C_15  and  C_16 
REMARK    6  A    between atoms: C_17  and  C_18 
ROOT
HETATM    1  C   UNL     1     -42.165  56.206 -56.148  1.00  0.00     0.288 C 
HETATM    2  N   UNL     1     -41.422  55.051 -56.041  1.00  0.00    -0.262 N 
HETATM    3  O   UNL     1     -42.159  57.073 -55.277  1.00  0.00    -0.264 OA
HETATM    4  H   UNL     1     -41.365  54.342 -56.768  1.00  0.00     0.190 HD
ENDROOT
BRANCH   1   5
HETATM    5  C   UNL     1     -42.951  56.316 -57.347  1.00  0.00     0.121 A 
HETATM    6  N   UNL     1     -42.520  55.822 -58.545  1.00  0.00    -0.272 N 
HETATM    7  N   UNL     1     -43.374  56.014 -59.561  1.00  0.00    -0.174 NA
HETATM    8  H   UNL     1     -41.644  55.340 -58.726  1.00  0.00     0.189 HD
HETATM    9  C   UNL     1     -44.402  56.687 -59.020  1.00  0.00     0.089 A 
HETATM   10  C   UNL     1     -44.179  56.883 -57.627  1.00  0.00     0.071 A 
BRANCH   9  11
HETATM   11  C   UNL     1     -45.553  57.121 -59.820  1.00  0.00    -0.005 A 
HETATM   12  C   UNL     1     -46.413  56.179 -60.404  1.00  0.00     0.016 A 
HETATM   13  C   UNL     1     -47.521  56.580 -61.161  1.00  0.00     0.037 A 
HETATM   14  C   UNL     1     -47.787  57.935 -61.350  1.00  0.00     0.068 A 
HETATM   15  C   UNL     1     -46.929  58.880 -60.783  1.00  0.00     0.037 A 
HETATM   16  C   UNL     1     -45.823  58.481 -60.025  1.00  0.00     0.016 A 
BRANCH  14  17
HETATM   17  O   UNL     1     -48.829  58.463 -62.059  1.00  0.00    -0.356 OA
HETATM   18  C   UNL     1     -49.011  57.985 -63.385  1.00  0.00     0.210 C 
ENDBRANCH  14  17
ENDBRANCH   9  11
ENDBRANCH   1   5
BRANCH   2  19
HETATM   19  N   UNL     1     -40.657  54.825 -54.893  1.00  0.00    -0.267 N 
HETATM   20  C   UNL     1     -40.956  53.719 -54.130  1.00  0.00     0.240 C 
HETATM   21  O   UNL     1     -41.874  52.951 -54.408  1.00  0.00    -0.271 OA
HETATM   22  H   UNL     1     -39.818  55.386 -54.777  1.00  0.00     0.190 HD
BRANCH  20  23
HETATM   23  C   UNL     1     -40.133  53.468 -52.919  1.00  0.00     0.089 A 
HETATM   24  C   UNL     1     -40.466  54.070 -51.566  1.00  0.00     0.036 A 
HETATM   25  C   UNL     1     -40.536  52.574 -51.781  1.00  0.00     0.025 A 
BRANCH  24  26
HETATM   26  C   UNL     1     -41.729  54.865 -51.321  1.00  0.00    -0.015 A 
HETATM   27  C   UNL     1     -41.841  56.216 -51.691  1.00  0.00     0.123 A 
HETATM   28  F   UNL     1     -40.795  56.834 -52.261  1.00  0.00    -0.206 F 
HETATM   29  C   UNL     1     -43.008  56.949 -51.488  1.00  0.00     0.043 A 
HETATM   30  C   UNL     1     -44.114  56.336 -50.907  1.00  0.00     0.003 A 
HETATM   31  C   UNL     1     -44.044  54.994 -50.542  1.00  0.00     0.001 A 
HETATM   32  C   UNL     1     -42.867  54.268 -50.753  1.00  0.00     0.011 A 
ENDBRANCH  24  26
ENDBRANCH  20  23
ENDBRANCH   2  19
TORSDOF 6
ENDMDL
MODEL 8
REMARK VINA RESULT:      -7.5      3.669     10.148
REMARK  6 active torsions:
REMARK  status: ('A' for Active; 'I' for Inactive)
REMARK    1  A    between atoms: O_2  and  C_3 
REMARK    2  A    between atoms: C_6  and  C_7 
REMARK    3  A    between atoms: C_11  and  C_12 
REMARK       I    between atoms: C_12  and  N_13 
REMARK    4  A    between atoms: N_13  and  N_14 
REMARK       I    between atoms: N_14  and  C_15 
REMARK    5  A    between atoms: C_15  and  C_16 
REMARK    6  A    between atoms: C_17  and  C_18 
ROOT
HETATM    1  C   UNL     1     -42.722  57.316 -56.098  1.00  0.00     0.288 C 
HETATM    2  N   UNL     1     -42.639  58.670 -55.857  1.00  0.00    -0.262 N 
HETATM    3  O   UNL     1     -43.313  56.859 -57.074  1.00  0.00    -0.264 OA
HETATM    4  H   UNL     1     -42.113  59.080 -55.090  1.00  0.00     0.190 HD
ENDROOT
BRANCH   1   5
HETATM    5  C   UNL     1     -42.074  56.482 -55.122  1.00  0.00     0.121 A 
HETATM    6  N   UNL     1     -41.529  56.993 -53.978  1.00  0.00    -0.272 N 
HETATM    7  N   UNL     1     -40.961  56.078 -53.181  1.00  0.00    -0.174 NA
HETATM    8  H   UNL     1     -41.517  57.969 -53.692  1.00  0.00     0.189 HD
HETATM    9  C   UNL     1     -41.112  54.915 -53.834  1.00  0.00     0.089 A 
HETATM   10  C   UNL     1     -41.821  55.127 -55.051  1.00  0.00     0.071 A 
BRANCH   9  11
HETATM   11  C   UNL     1     -40.593  53.651 -53.300  1.00  0.00    -0.005 A 
HETATM   12  C   UNL     1     -40.233  52.605 -54.163  1.00  0.00     0.016 A 
HETATM   13  C   UNL     1     -39.726  51.397 -53.665  1.00  0.00     0.037 A 
HETATM   14  C   UNL     1     -39.573  51.214 -52.292  1.00  0.00     0.068 A 
HETATM   15  C   UNL     1     -39.942  52.245 -51.426  1.00  0.00     0.037 A 
HETATM   16  C   UNL     1     -40.445  53.452 -51.921  1.00  0.00     0.016 A 
BRANCH  14  17
HETATM   17  O   UNL     1     -39.090  50.094 -51.675  1.00  0.00    -0.356 OA
HETATM   18  C   UNL     1     -39.800  49.633 -50.533  1.00  0.00     0.210 C 
ENDBRANCH  14  17
ENDBRANCH   9  11
ENDBRANCH   1   5
BRANCH   2  19
HETATM   19  N   UNL     1     -43.274  59.566 -56.722  1.00  0.00    -0.267 N 
HETATM   20  C   UNL     1     -42.512  60.164 -57.699  1.00  0.00     0.240 C 
HETATM   21  O   UNL     1     -41.307  59.957 -57.819  1.00  0.00    -0.271 OA
HETATM   22  H   UNL     1     -44.289  59.598 -56.693  1.00  0.00     0.190 HD
BRANCH  20  23
HETATM   23  C   UNL     1     -43.189  61.105 -58.628  1.00  0.00     0.089 A 
HETATM   24  C   UNL     1     -44.140  60.637 -59.715  1.00  0.00     0.036 A 
HETATM   25  C   UNL     1     -44.644  61.475 -58.561  1.00  0.00     0.025 A 
BRANCH  24  26
HETATM   26  C   UNL     1     -44.567  59.193 -59.853  1.00  0.00    -0.015 A 
HETATM   27  C   UNL     1     -43.708  58.210 -60.374  1.00  0.00     0.123 A 
HETATM   28  F   UNL     1     -42.478  58.557 -60.782  1.00  0.00    -0.206 F 
HETATM   29  C   UNL     1     -44.086  56.874 -60.484  1.00  0.00     0.043 A 
HETATM   30  C   UNL     1     -45.352  56.480 -60.061  1.00  0.00     0.003 A 
HETATM   31  C   UNL     1     -46.224  57.424 -59.526  1.00  0.00     0.001 A 
HETATM   32  C   UNL     1     -45.832  58.763 -59.419  1.00  0.00     0.011 A 
ENDBRANCH  24  26
ENDBRANCH  20  23
ENDBRANCH   2  19
TORSDOF 6
ENDMDL
MODEL 9
REMARK VINA RESULT:      -7.5      1.677      2.916
REMARK  6 active torsions:
REMARK  status: ('A' for Active; 'I' for Inactive)
REMARK    1  A    between atoms: O_2  and  C_3 
REMARK    2  A    between atoms: C_6  and  C_7 
REMARK    3  A    between atoms: C_11  and  C_12 
REMARK       I    between atoms: C_12  and  N_13 
REMARK    4  A    between atoms: N_13  and  N_14 
REMARK       I    between atoms: N_14  and  C_15 
REMARK    5  A    between atoms: C_15  and  C_16 
REMARK    6  A    between atoms: C_17  and  C_18 
ROOT
HETATM    1  C   UNL     1     -44.099  58.033 -57.132  1.00  0.00     0.288 C 
HETATM    2  N   UNL     1     -43.663  56.990 -56.345  1.00  0.00    -0.262 N 
HETATM    3  O   UNL     1     -43.791  59.200 -56.903  1.00  0.00    -0.264 OA
HETATM    4  H   UNL     1     -43.857  56.011 -56.541  1.00  0.00     0.190 HD
ENDROOT
BRANCH   1   5
HETATM    5  C   UNL     1     -44.945  57.655 -58.232  1.00  0.00     0.121 A 
HETATM    6  N   UNL     1     -44.871  56.422 -58.814  1.00  0.00    -0.272 N 
HETATM    7  N   UNL     1     -45.728  56.239 -59.829  1.00  0.00    -0.174 NA
HETATM    8  H   UNL     1     -44.247  55.663 -58.555  1.00  0.00     0.189 HD
HETATM    9  C   UNL     1     -46.379  57.408 -59.941  1.00  0.00     0.089 A 
HETATM   10  C   UNL     1     -45.925  58.318 -58.944  1.00  0.00     0.071 A 
BRANCH   9  11
HETATM   11  C   UNL     1     -47.401  57.631 -60.971  1.00  0.00    -0.005 A 
HETATM   12  C   UNL     1     -47.858  58.927 -61.254  1.00  0.00     0.016 A 
HETATM   13  C   UNL     1     -48.824  59.154 -62.242  1.00  0.00     0.037 A 
HETATM   14  C   UNL     1     -49.354  58.086 -62.964  1.00  0.00     0.068 A 
HETATM   15  C   UNL     1     -48.915  56.792 -62.679  1.00  0.00     0.037 A 
HETATM   16  C   UNL     1     -47.947  56.563 -61.695  1.00  0.00     0.016 A 
BRANCH  14  17
HETATM   17  O   UNL     1     -50.295  58.166 -63.951  1.00  0.00    -0.356 OA
HETATM   18  C   UNL     1     -50.979  59.405 -64.087  1.00  0.00     0.210 C 
ENDBRANCH  14  17
ENDBRANCH   9  11
ENDBRANCH   1   5
BRANCH   2  19
HETATM   19  N   UNL     1     -42.872  57.253 -55.224  1.00  0.00    -0.267 N 
HETATM   20  C   UNL     1     -43.397  56.963 -53.985  1.00  0.00     0.240 C 
HETATM   21  O   UNL     1     -44.530  56.511 -53.835  1.00  0.00    -0.271 OA
HETATM   22  H   UNL     1     -41.895  57.479 -55.388  1.00  0.00     0.190 HD
BRANCH  20  23
HETATM   23  C   UNL     1     -42.550  57.227 -52.793  1.00  0.00     0.089 A 
HETATM   24  C   UNL     1     -41.457  56.276 -52.340  1.00  0.00     0.036 A 
HETATM   25  C   UNL     1     -41.112  57.659 -52.845  1.00  0.00     0.025 A 
BRANCH  24  26
HETATM   26  C   UNL     1     -41.064  55.053 -53.138  1.00  0.00    -0.015 A 
HETATM   27  C   UNL     1     -41.411  53.754 -52.729  1.00  0.00     0.123 A 
HETATM   28  F   UNL     1     -42.093  53.582 -51.586  1.00  0.00    -0.206 F 
HETATM   29  C   UNL     1     -41.071  52.624 -53.470  1.00  0.00     0.043 A 
HETATM   30  C   UNL     1     -40.372  52.769 -54.664  1.00  0.00     0.003 A 
HETATM   31  C   UNL     1     -40.025  54.042 -55.108  1.00  0.00     0.001 A 
HETATM   32  C   UNL     1     -40.373  55.169 -54.356  1.00  0.00     0.011 A 
ENDBRANCH  24  26
ENDBRANCH  20  23
ENDBRANCH   2  19
TORSDOF 6
ENDMDL
MODEL 10
REMARK VINA RESULT:      -7.4      4.380      5.294
REMARK  6 active torsions:
REMARK  status: ('A' for Active; 'I' for Inactive)
REMARK    1  A    between atoms: O_2  and  C_3 
REMARK    2  A    between atoms: C_6  and  C_7 
REMARK    3  A    between atoms: C_11  and  C_12 
REMARK       I    between atoms: C_12  and  N_13 
REMARK    4  A    between atoms: N_13  and  N_14 
REMARK       I    between atoms: N_14  and  C_15 
REMARK    5  A    between atoms: C_15  and  C_16 
REMARK    6  A    between atoms: C_17  and  C_18 
ROOT
HETATM    1  C   UNL     1     -42.589  56.196 -57.249  1.00  0.00     0.288 C 
HETATM    2  N   UNL     1     -41.735  55.957 -56.196  1.00  0.00    -0.262 N 
HETATM    3  O   UNL     1     -43.267  55.306 -57.759  1.00  0.00    -0.264 OA
HETATM    4  H   UNL     1     -41.203  56.681 -55.719  1.00  0.00     0.190 HD
ENDROOT
BRANCH   1   5
HETATM    5  C   UNL     1     -42.623  57.558 -57.711  1.00  0.00     0.121 A 
HETATM    6  N   UNL     1     -43.688  58.378 -57.471  1.00  0.00    -0.272 N 
HETATM    7  N   UNL     1     -43.557  59.613 -57.976  1.00  0.00    -0.174 NA
HETATM    8  H   UNL     1     -44.537  58.143 -56.965  1.00  0.00     0.189 HD
HETATM    9  C   UNL     1     -42.368  59.604 -58.598  1.00  0.00     0.089 A 
HETATM   10  C   UNL     1     -41.744  58.333 -58.440  1.00  0.00     0.071 A 
BRANCH   9  11
HETATM   11  C   UNL     1     -41.856  60.778 -59.314  1.00  0.00    -0.005 A 
HETATM   12  C   UNL     1     -42.159  60.976 -60.670  1.00  0.00     0.016 A 
HETATM   13  C   UNL     1     -41.686  62.098 -61.361  1.00  0.00     0.037 A 
HETATM   14  C   UNL     1     -40.898  63.044 -60.708  1.00  0.00     0.068 A 
HETATM   15  C   UNL     1     -40.580  62.848 -59.362  1.00  0.00     0.037 A 
HETATM   16  C   UNL     1     -41.054  61.729 -58.669  1.00  0.00     0.016 A 
BRANCH  14  17
HETATM   17  O   UNL     1     -40.376  64.180 -61.258  1.00  0.00    -0.356 OA
HETATM   18  C   UNL     1     -40.740  64.469 -62.602  1.00  0.00     0.210 C 
ENDBRANCH  14  17
ENDBRANCH   9  11
ENDBRANCH   1   5
BRANCH   2  19
HETATM   19  N   UNL     1     -41.593  54.658 -55.701  1.00  0.00    -0.267 N 
HETATM   20  C   UNL     1     -40.399  54.325 -55.102  1.00  0.00     0.240 C 
HETATM   21  O   UNL     1     -39.461  55.113 -55.012  1.00  0.00    -0.271 OA
HETATM   22  H   UNL     1     -42.432  54.086 -55.654  1.00  0.00     0.190 HD
BRANCH  20  23
HETATM   23  C   UNL     1     -40.254  52.949 -54.561  1.00  0.00     0.089 A 
HETATM   24  C   UNL     1     -40.618  52.590 -53.131  1.00  0.00     0.036 A 
HETATM   25  C   UNL     1     -41.397  52.011 -54.292  1.00  0.00     0.025 A 
BRANCH  24  26
HETATM   26  C   UNL     1     -41.273  53.576 -52.189  1.00  0.00    -0.015 A 
HETATM   27  C   UNL     1     -40.578  54.149 -51.111  1.00  0.00     0.123 A 
HETATM   28  F   UNL     1     -39.300  53.802 -50.889  1.00  0.00    -0.206 F 
HETATM   29  C   UNL     1     -41.167  55.073 -50.252  1.00  0.00     0.043 A 
HETATM   30  C   UNL     1     -42.487  55.461 -50.459  1.00  0.00     0.003 A 
HETATM   31  C   UNL     1     -43.202  54.926 -51.527  1.00  0.00     0.001 A 
HETATM   32  C   UNL     1     -42.598  53.999 -52.384  1.00  0.00     0.011 A 
ENDBRANCH  24  26
ENDBRANCH  20  23
ENDBRANCH   2  19
TORSDOF 6
ENDMDL
