MODEL 1
REMARK VINA RESULT:      -9.6      0.000      0.000
REMARK  3 active torsions:
REMARK  status: ('A' for Active; 'I' for Inactive)
REMARK    1  A    between atoms: C_8  and  C_9 
REMARK       I    between atoms: C_9  and  N_10 
REMARK    2  A    between atoms: N_10  and  C_11 
REMARK    3  A    between atoms: C_18  and  C_19 
REMARK       I    between atoms: C_19  and  N_20 
ROOT
HETATM    1  C   UNL     1     -42.594  55.336 -56.332  1.00  0.00     0.035 A 
HETATM    2  C   UNL     1     -43.246  54.969 -57.517  1.00  0.00     0.046 A 
HETATM    3  C   UNL     1     -43.531  55.953 -58.490  1.00  0.00     0.030 A 
HETATM    4  C   UNL     1     -43.151  57.267 -58.247  1.00  0.00     0.063 A 
HETATM    5  N   UNL     1     -43.556  57.971 -59.346  1.00  0.00    -0.277 N 
HETATM    6  H   UNL     1     -43.445  58.965 -59.514  1.00  0.00     0.189 HD
HETATM    7  N   UNL     1     -44.165  57.233 -60.288  1.00  0.00    -0.168 NA
HETATM    8  C   UNL     1     -44.156  55.981 -59.774  1.00  0.00     0.156 A 
HETATM    9  C   UNL     1     -42.498  57.668 -57.081  1.00  0.00     0.034 A 
HETATM   10  C   UNL     1     -42.227  56.675 -56.132  1.00  0.00     0.032 A 
ENDROOT
BRANCH   1  11
HETATM   11  N   UNL     1     -42.271  54.433 -55.298  1.00  0.00    -0.327 N 
HETATM   12  C   UNL     1     -41.011  54.016 -54.896  1.00  0.00     0.231 C 
HETATM   13  O   UNL     1     -39.941  54.388 -55.369  1.00  0.00    -0.272 OA
HETATM   14  H   UNL     1     -43.056  53.993 -54.832  1.00  0.00     0.169 HD
BRANCH  12  15
HETATM   15  C   UNL     1     -41.023  53.040 -53.716  1.00  0.00     0.116 C 
HETATM   16  C   UNL     1     -40.802  53.698 -52.369  1.00  0.00    -0.012 A 
HETATM   17  C   UNL     1     -41.499  54.865 -52.015  1.00  0.00     0.011 A 
HETATM   18  C   UNL     1     -39.924  53.130 -51.437  1.00  0.00     0.075 A 
HETATM   19  C   UNL     1     -41.279  55.476 -50.779  1.00  0.00     0.001 A 
HETATM   20  C   UNL     1     -40.371  54.922 -49.879  1.00  0.00     0.003 A 
HETATM   21  C   UNL     1     -39.694  53.749 -50.209  1.00  0.00     0.037 A 
HETATM   22  O   UNL     1     -39.222  51.977 -51.667  1.00  0.00    -0.351 OA
HETATM   23  C   UNL     1     -39.786  51.151 -52.689  1.00  0.00     0.176 C 
HETATM   24  C   UNL     1     -39.992  51.936 -53.968  1.00  0.00     0.045 C 
ENDBRANCH  12  15
ENDBRANCH   1  11
BRANCH   8  25
HETATM   25  C   UNL     1     -44.740  54.852 -60.513  1.00  0.00     0.270 C 
HETATM   26  N   UNL     1     -45.141  53.813 -59.719  1.00  0.00    -0.365 N 
HETATM   27  H   UNL     1     -45.014  53.891 -58.716  1.00  0.00     0.159 HD
HETATM   28  H   UNL     1     -45.553  52.995 -60.138  1.00  0.00     0.159 HD
HETATM   29  O   UNL     1     -44.874  54.807 -61.730  1.00  0.00    -0.266 OA
ENDBRANCH   8  25
TORSDOF 3
ENDMDL
MODEL 2
REMARK VINA RESULT:      -9.3      1.689      2.970
REMARK  3 active torsions:
REMARK  status: ('A' for Active; 'I' for Inactive)
REMARK    1  A    between atoms: C_8  and  C_9 
REMARK       I    between atoms: C_9  and  N_10 
REMARK    2  A    between atoms: N_10  and  C_11 
REMARK    3  A    between atoms: C_18  and  C_19 
REMARK       I    between atoms: C_19  and  N_20 
ROOT
HETATM    1  C   UNL     1     -42.401  56.268 -55.044  1.00  0.00     0.035 A 
HETATM    2  C   UNL     1     -42.395  56.094 -56.434  1.00  0.00     0.046 A 
HETATM    3  C   UNL     1     -43.308  56.818 -57.233  1.00  0.00     0.030 A 
HETATM    4  C   UNL     1     -44.193  57.693 -56.614  1.00  0.00     0.063 A 
HETATM    5  N   UNL     1     -44.935  58.233 -57.627  1.00  0.00    -0.277 N 
HETATM    6  H   UNL     1     -45.682  58.915 -57.544  1.00  0.00     0.189 HD
HETATM    7  N   UNL     1     -44.613  57.790 -58.852  1.00  0.00    -0.168 NA
HETATM    8  C   UNL     1     -43.607  56.914 -58.626  1.00  0.00     0.156 A 
HETATM    9  C   UNL     1     -44.224  57.895 -55.234  1.00  0.00     0.034 A 
HETATM   10  C   UNL     1     -43.310  57.166 -54.465  1.00  0.00     0.032 A 
ENDROOT
BRANCH   1  11
HETATM   11  N   UNL     1     -41.536  55.590 -54.160  1.00  0.00    -0.327 N 
HETATM   12  C   UNL     1     -41.830  54.507 -53.346  1.00  0.00     0.231 C 
HETATM   13  O   UNL     1     -42.911  53.931 -53.271  1.00  0.00    -0.272 OA
HETATM   14  H   UNL     1     -40.603  55.977 -54.069  1.00  0.00     0.169 HD
BRANCH  12  15
HETATM   15  C   UNL     1     -40.639  54.000 -52.527  1.00  0.00     0.116 C 
HETATM   16  C   UNL     1     -40.277  52.553 -52.796  1.00  0.00    -0.012 A 
HETATM   17  C   UNL     1     -40.179  52.067 -54.110  1.00  0.00     0.011 A 
HETATM   18  C   UNL     1     -39.998  51.683 -51.734  1.00  0.00     0.075 A 
HETATM   19  C   UNL     1     -39.863  50.729 -54.351  1.00  0.00     0.001 A 
HETATM   20  C   UNL     1     -39.628  49.865 -53.283  1.00  0.00     0.003 A 
HETATM   21  C   UNL     1     -39.697  50.343 -51.975  1.00  0.00     0.037 A 
HETATM   22  O   UNL     1     -40.031  52.062 -50.419  1.00  0.00    -0.351 OA
HETATM   23  C   UNL     1     -39.897  53.471 -50.220  1.00  0.00     0.176 C 
HETATM   24  C   UNL     1     -40.918  54.233 -51.040  1.00  0.00     0.045 C 
ENDBRANCH  12  15
ENDBRANCH   1  11
BRANCH   8  25
HETATM   25  C   UNL     1     -42.961  56.197 -59.734  1.00  0.00     0.270 C 
HETATM   26  N   UNL     1     -41.678  56.601 -59.988  1.00  0.00    -0.365 N 
HETATM   27  H   UNL     1     -41.279  57.337 -59.417  1.00  0.00     0.159 HD
HETATM   28  H   UNL     1     -41.156  56.165 -60.731  1.00  0.00     0.159 HD
HETATM   29  O   UNL     1     -43.488  55.310 -60.396  1.00  0.00    -0.266 OA
ENDBRANCH   8  25
TORSDOF 3
ENDMDL
MODEL 3
REMARK VINA RESULT:      -9.0      1.573      1.770
REMARK  3 active torsions:
REMARK  status: ('A' for Active; 'I' for Inactive)
REMARK    1  A    between atoms: C_8  and  C_9 
REMARK       I    between atoms: C_9  and  N_10 
REMARK    2  A    between atoms: N_10  and  C_11 
REMARK    3  A    between atoms: C_18  and  C_19 
REMARK       I    between atoms: C_19  and  N_20 
ROOT
HETATM    1  C   UNL     1     -43.169  55.838 -55.437  1.00  0.00     0.035 A 
HETATM    2  C   UNL     1     -42.954  55.949 -56.817  1.00  0.00     0.046 A 
HETATM    3  C   UNL     1     -43.465  57.064 -57.516  1.00  0.00     0.030 A 
HETATM    4  C   UNL     1     -44.170  58.033 -56.811  1.00  0.00     0.063 A 
HETATM    5  N   UNL     1     -44.532  58.967 -57.741  1.00  0.00    -0.277 N 
HETATM    6  H   UNL     1     -45.062  59.817 -57.583  1.00  0.00     0.189 HD
HETATM    7  N   UNL     1     -44.125  58.696 -58.991  1.00  0.00    -0.168 NA
HETATM    8  C   UNL     1     -43.462  57.523 -58.869  1.00  0.00     0.156 A 
HETATM    9  C   UNL     1     -44.400  57.958 -55.437  1.00  0.00     0.034 A 
HETATM   10  C   UNL     1     -43.883  56.843 -54.767  1.00  0.00     0.032 A 
ENDROOT
BRANCH   1  11
HETATM   11  N   UNL     1     -42.706  54.763 -54.650  1.00  0.00    -0.327 N 
HETATM   12  C   UNL     1     -41.402  54.487 -54.271  1.00  0.00     0.231 C 
HETATM   13  O   UNL     1     -40.411  55.159 -54.544  1.00  0.00    -0.272 OA
HETATM   14  H   UNL     1     -43.404  54.079 -54.379  1.00  0.00     0.169 HD
BRANCH  12  15
HETATM   15  C   UNL     1     -41.257  53.243 -53.390  1.00  0.00     0.116 C 
HETATM   16  C   UNL     1     -41.187  53.543 -51.905  1.00  0.00    -0.012 A 
HETATM   17  C   UNL     1     -42.093  54.435 -51.308  1.00  0.00     0.011 A 
HETATM   18  C   UNL     1     -40.237  52.905 -51.097  1.00  0.00     0.075 A 
HETATM   19  C   UNL     1     -42.012  54.720 -49.944  1.00  0.00     0.001 A 
HETATM   20  C   UNL     1     -41.036  54.109 -49.160  1.00  0.00     0.003 A 
HETATM   21  C   UNL     1     -40.149  53.202 -49.737  1.00  0.00     0.037 A 
HETATM   22  O   UNL     1     -39.332  51.995 -51.571  1.00  0.00    -0.351 OA
HETATM   23  C   UNL     1     -39.714  51.389 -52.808  1.00  0.00     0.176 C 
HETATM   24  C   UNL     1     -40.036  52.442 -53.850  1.00  0.00     0.045 C 
ENDBRANCH  12  15
ENDBRANCH   1  11
BRANCH   8  25
HETATM   25  C   UNL     1     -42.848  56.872 -60.035  1.00  0.00     0.270 C 
HETATM   26  N   UNL     1     -41.517  57.149 -60.192  1.00  0.00    -0.365 N 
HETATM   27  H   UNL     1     -41.066  57.759 -59.519  1.00  0.00     0.159 HD
HETATM   28  H   UNL     1     -41.011  56.748 -60.965  1.00  0.00     0.159 HD
HETATM   29  O   UNL     1     -43.438  56.140 -60.820  1.00  0.00    -0.266 OA
ENDBRANCH   8  25
TORSDOF 3
ENDMDL
MODEL 4
REMARK VINA RESULT:      -9.0      2.946      8.391
REMARK  3 active torsions:
REMARK  status: ('A' for Active; 'I' for Inactive)
REMARK    1  A    between atoms: C_8  and  C_9 
REMARK       I    between atoms: C_9  and  N_10 
REMARK    2  A    between atoms: N_10  and  C_11 
REMARK    3  A    between atoms: C_18  and  C_19 
REMARK       I    between atoms: C_19  and  N_20 
ROOT
HETATM    1  C   UNL     1     -41.167  54.771 -54.200  1.00  0.00     0.035 A 
HETATM    2  C   UNL     1     -41.180  54.726 -52.799  1.00  0.00     0.046 A 
HETATM    3  C   UNL     1     -40.665  53.592 -52.132  1.00  0.00     0.030 A 
HETATM    4  C   UNL     1     -40.152  52.544 -52.888  1.00  0.00     0.063 A 
HETATM    5  N   UNL     1     -39.741  51.610 -51.980  1.00  0.00    -0.277 N 
HETATM    6  H   UNL     1     -39.315  50.710 -52.175  1.00  0.00     0.189 HD
HETATM    7  N   UNL     1     -39.937  51.954 -50.697  1.00  0.00    -0.168 NA
HETATM    8  C   UNL     1     -40.508  53.178 -50.774  1.00  0.00     0.156 A 
HETATM    9  C   UNL     1     -40.119  52.557 -54.283  1.00  0.00     0.034 A 
HETATM   10  C   UNL     1     -40.635  53.691 -54.920  1.00  0.00     0.032 A 
ENDROOT
BRANCH   1  11
HETATM   11  N   UNL     1     -41.661  55.853 -54.958  1.00  0.00    -0.327 N 
HETATM   12  C   UNL     1     -42.980  56.247 -55.117  1.00  0.00     0.231 C 
HETATM   13  O   UNL     1     -43.960  55.722 -54.597  1.00  0.00    -0.272 OA
HETATM   14  H   UNL     1     -40.973  56.368 -55.496  1.00  0.00     0.169 HD
BRANCH  12  15
HETATM   15  C   UNL     1     -43.159  57.488 -55.996  1.00  0.00     0.116 C 
HETATM   16  C   UNL     1     -42.846  57.258 -57.461  1.00  0.00    -0.012 A 
HETATM   17  C   UNL     1     -43.347  56.133 -58.136  1.00  0.00     0.011 A 
HETATM   18  C   UNL     1     -42.079  58.186 -58.177  1.00  0.00     0.075 A 
HETATM   19  C   UNL     1     -43.041  55.917 -59.481  1.00  0.00     0.001 A 
HETATM   20  C   UNL     1     -42.242  56.828 -60.169  1.00  0.00     0.003 A 
HETATM   21  C   UNL     1     -41.762  57.962 -59.516  1.00  0.00     0.037 A 
HETATM   22  O   UNL     1     -41.572  59.331 -57.624  1.00  0.00    -0.351 OA
HETATM   23  C   UNL     1     -42.253  59.754 -56.441  1.00  0.00     0.176 C 
HETATM   24  C   UNL     1     -42.319  58.633 -55.424  1.00  0.00     0.045 C 
ENDBRANCH  12  15
ENDBRANCH   1  11
BRANCH   8  25
HETATM   25  C   UNL     1     -40.886  53.918 -49.561  1.00  0.00     0.270 C 
HETATM   26  N   UNL     1     -39.847  54.146 -48.700  1.00  0.00    -0.365 N 
HETATM   27  H   UNL     1     -38.926  53.802 -48.949  1.00  0.00     0.159 HD
HETATM   28  H   UNL     1     -40.011  54.645 -47.841  1.00  0.00     0.159 HD
HETATM   29  O   UNL     1     -42.017  54.314 -49.307  1.00  0.00    -0.266 OA
ENDBRANCH   8  25
TORSDOF 3
ENDMDL
MODEL 5
REMARK VINA RESULT:      -8.7      4.779      7.758
REMARK  3 active torsions:
REMARK  status: ('A' for Active; 'I' for Inactive)
REMARK    1  A    between atoms: C_8  and  C_9 
REMARK       I    between atoms: C_9  and  N_10 
REMARK    2  A    between atoms: N_10  and  C_11 
REMARK    3  A    between atoms: C_18  and  C_19 
REMARK       I    between atoms: C_19  and  N_20 
ROOT
HETATM    1  C   UNL     1     -40.785  54.439 -52.852  1.00  0.00     0.035 A 
HETATM    2  C   UNL     1     -40.518  53.311 -52.064  1.00  0.00     0.046 A 
HETATM    3  C   UNL     1     -40.170  52.091 -52.686  1.00  0.00     0.030 A 
HETATM    4  C   UNL     1     -40.099  52.042 -54.073  1.00  0.00     0.063 A 
HETATM    5  N   UNL     1     -39.749  50.755 -54.372  1.00  0.00    -0.277 N 
HETATM    6  H   UNL     1     -39.608  50.356 -55.294  1.00  0.00     0.189 HD
HETATM    7  N   UNL     1     -39.584  49.959 -53.304  1.00  0.00    -0.168 NA
HETATM    8  C   UNL     1     -39.840  50.771 -52.253  1.00  0.00     0.156 A 
HETATM    9  C   UNL     1     -40.354  53.145 -54.889  1.00  0.00     0.034 A 
HETATM   10  C   UNL     1     -40.697  54.342 -54.248  1.00  0.00     0.032 A 
ENDROOT
BRANCH   1  11
HETATM   11  N   UNL     1     -41.145  55.698 -52.329  1.00  0.00    -0.327 N 
HETATM   12  C   UNL     1     -42.313  56.041 -51.665  1.00  0.00     0.231 C 
HETATM   13  O   UNL     1     -43.241  55.284 -51.396  1.00  0.00    -0.272 OA
HETATM   14  H   UNL     1     -40.497  56.456 -52.511  1.00  0.00     0.169 HD
BRANCH  12  15
HETATM   15  C   UNL     1     -42.366  57.501 -51.207  1.00  0.00     0.116 C 
HETATM   16  C   UNL     1     -42.723  58.480 -52.308  1.00  0.00    -0.012 A 
HETATM   17  C   UNL     1     -43.796  58.225 -53.178  1.00  0.00     0.011 A 
HETATM   18  C   UNL     1     -42.009  59.677 -52.452  1.00  0.00     0.075 A 
HETATM   19  C   UNL     1     -44.109  59.122 -54.200  1.00  0.00     0.001 A 
HETATM   20  C   UNL     1     -43.364  60.289 -54.358  1.00  0.00     0.003 A 
HETATM   21  C   UNL     1     -42.313  60.565 -53.483  1.00  0.00     0.037 A 
HETATM   22  O   UNL     1     -40.969  60.038 -51.638  1.00  0.00    -0.351 OA
HETATM   23  C   UNL     1     -40.968  59.373 -50.372  1.00  0.00     0.176 C 
HETATM   24  C   UNL     1     -41.033  57.870 -50.551  1.00  0.00     0.045 C 
ENDBRANCH  12  15
ENDBRANCH   1  11
BRANCH   8  25
HETATM   25  C   UNL     1     -39.764  50.273 -50.872  1.00  0.00     0.270 C 
HETATM   26  N   UNL     1     -38.931  49.199 -50.711  1.00  0.00    -0.365 N 
HETATM   27  H   UNL     1     -38.444  48.837 -51.524  1.00  0.00     0.159 HD
HETATM   28  H   UNL     1     -38.817  48.788 -49.799  1.00  0.00     0.159 HD
HETATM   29  O   UNL     1     -40.374  50.748 -49.921  1.00  0.00    -0.266 OA
ENDBRANCH   8  25
TORSDOF 3
ENDMDL
MODEL 6
REMARK VINA RESULT:      -8.6      1.455      2.630
REMARK  3 active torsions:
REMARK  status: ('A' for Active; 'I' for Inactive)
REMARK    1  A    between atoms: C_8  and  C_9 
REMARK       I    between atoms: C_9  and  N_10 
REMARK    2  A    between atoms: N_10  and  C_11 
REMARK    3  A    between atoms: C_18  and  C_19 
REMARK       I    between atoms: C_19  and  N_20 
ROOT
HETATM    1  C   UNL     1     -42.775  57.038 -56.353  1.00  0.00     0.035 A 
HETATM    2  C   UNL     1     -43.201  56.233 -57.418  1.00  0.00     0.046 A 
HETATM    3  C   UNL     1     -44.021  56.787 -58.426  1.00  0.00     0.030 A 
HETATM    4  C   UNL     1     -44.382  58.126 -58.337  1.00  0.00     0.063 A 
HETATM    5  N   UNL     1     -45.163  58.365 -59.434  1.00  0.00    -0.277 N 
HETATM    6  H   UNL     1     -45.605  59.240 -59.693  1.00  0.00     0.189 HD
HETATM    7  N   UNL     1     -45.342  57.301 -60.233  1.00  0.00    -0.168 NA
HETATM    8  C   UNL     1     -44.641  56.317 -59.624  1.00  0.00     0.156 A 
HETATM    9  C   UNL     1     -43.972  58.958 -57.295  1.00  0.00     0.034 A 
HETATM   10  C   UNL     1     -43.162  58.385 -56.308  1.00  0.00     0.032 A 
ENDROOT
BRANCH   1  11
HETATM   11  N   UNL     1     -41.961  56.579 -55.296  1.00  0.00    -0.327 N 
HETATM   12  C   UNL     1     -42.315  55.735 -54.255  1.00  0.00     0.231 C 
HETATM   13  O   UNL     1     -43.415  55.216 -54.086  1.00  0.00    -0.272 OA
HETATM   14  H   UNL     1     -41.021  56.959 -55.263  1.00  0.00     0.169 HD
BRANCH  12  15
HETATM   15  C   UNL     1     -41.170  55.421 -53.289  1.00  0.00     0.116 C 
HETATM   16  C   UNL     1     -40.686  53.985 -53.351  1.00  0.00    -0.012 A 
HETATM   17  C   UNL     1     -40.439  53.362 -54.585  1.00  0.00     0.011 A 
HETATM   18  C   UNL     1     -40.442  53.267 -52.173  1.00  0.00     0.075 A 
HETATM   19  C   UNL     1     -40.010  52.035 -54.637  1.00  0.00     0.001 A 
HETATM   20  C   UNL     1     -39.812  51.320 -53.457  1.00  0.00     0.003 A 
HETATM   21  C   UNL     1     -40.028  51.937 -52.226  1.00  0.00     0.037 A 
HETATM   22  O   UNL     1     -40.618  53.791 -50.920  1.00  0.00    -0.351 OA
HETATM   23  C   UNL     1     -40.600  55.220 -50.882  1.00  0.00     0.176 C 
HETATM   24  C   UNL     1     -41.594  55.800 -51.867  1.00  0.00     0.045 C 
ENDBRANCH  12  15
ENDBRANCH   1  11
BRANCH   8  25
HETATM   25  C   UNL     1     -44.581  54.963 -60.194  1.00  0.00     0.270 C 
HETATM   26  N   UNL     1     -44.549  53.965 -59.259  1.00  0.00    -0.365 N 
HETATM   27  H   UNL     1     -44.568  54.218 -58.277  1.00  0.00     0.159 HD
HETATM   28  H   UNL     1     -44.506  53.004 -59.557  1.00  0.00     0.159 HD
HETATM   29  O   UNL     1     -44.561  54.709 -61.392  1.00  0.00    -0.266 OA
ENDBRANCH   8  25
TORSDOF 3
ENDMDL
MODEL 7
REMARK VINA RESULT:      -8.5      1.970      2.239
REMARK  3 active torsions:
REMARK  status: ('A' for Active; 'I' for Inactive)
REMARK    1  A    between atoms: C_8  and  C_9 
REMARK       I    between atoms: C_9  and  N_10 
REMARK    2  A    between atoms: N_10  and  C_11 
REMARK    3  A    between atoms: C_18  and  C_19 
REMARK       I    between atoms: C_19  and  N_20 
ROOT
HETATM    1  C   UNL     1     -42.024  56.567 -55.337  1.00  0.00     0.035 A 
HETATM    2  C   UNL     1     -42.110  56.524 -56.735  1.00  0.00     0.046 A 
HETATM    3  C   UNL     1     -42.397  57.706 -57.454  1.00  0.00     0.030 A 
HETATM    4  C   UNL     1     -42.585  58.890 -56.751  1.00  0.00     0.063 A 
HETATM    5  N   UNL     1     -42.844  59.838 -57.701  1.00  0.00    -0.277 N 
HETATM    6  H   UNL     1     -43.033  60.823 -57.548  1.00  0.00     0.189 HD
HETATM    7  N   UNL     1     -42.841  59.380 -58.962  1.00  0.00    -0.168 NA
HETATM    8  C   UNL     1     -42.565  58.062 -58.827  1.00  0.00     0.156 A 
HETATM    9  C   UNL     1     -42.503  58.971 -55.360  1.00  0.00     0.034 A 
HETATM   10  C   UNL     1     -42.218  57.786 -54.671  1.00  0.00     0.032 A 
ENDROOT
BRANCH   1  11
HETATM   11  N   UNL     1     -41.749  55.444 -54.530  1.00  0.00    -0.327 N 
HETATM   12  C   UNL     1     -42.656  54.591 -53.921  1.00  0.00     0.231 C 
HETATM   13  O   UNL     1     -43.879  54.659 -54.001  1.00  0.00    -0.272 OA
HETATM   14  H   UNL     1     -40.770  55.276 -54.324  1.00  0.00     0.169 HD
BRANCH  12  15
HETATM   15  C   UNL     1     -42.009  53.451 -53.131  1.00  0.00     0.116 C 
HETATM   16  C   UNL     1     -41.523  53.854 -51.752  1.00  0.00    -0.012 A 
HETATM   17  C   UNL     1     -42.337  54.611 -50.895  1.00  0.00     0.011 A 
HETATM   18  C   UNL     1     -40.263  53.444 -51.296  1.00  0.00     0.075 A 
HETATM   19  C   UNL     1     -41.878  54.994 -49.634  1.00  0.00     0.001 A 
HETATM   20  C   UNL     1     -40.606  54.614 -49.210  1.00  0.00     0.003 A 
HETATM   21  C   UNL     1     -39.800  53.839 -50.042  1.00  0.00     0.037 A 
HETATM   22  O   UNL     1     -39.406  52.676 -52.037  1.00  0.00    -0.351 OA
HETATM   23  C   UNL     1     -40.046  51.934 -53.078  1.00  0.00     0.176 C 
HETATM   24  C   UNL     1     -40.874  52.846 -53.961  1.00  0.00     0.045 C 
ENDBRANCH  12  15
ENDBRANCH   1  11
BRANCH   8  25
HETATM   25  C   UNL     1     -42.468  57.182 -60.001  1.00  0.00     0.270 C 
HETATM   26  N   UNL     1     -41.185  56.876 -60.364  1.00  0.00    -0.365 N 
HETATM   27  H   UNL     1     -40.421  57.262 -59.821  1.00  0.00     0.159 HD
HETATM   28  H   UNL     1     -41.020  56.279 -61.158  1.00  0.00     0.159 HD
HETATM   29  O   UNL     1     -43.425  56.739 -60.624  1.00  0.00    -0.266 OA
ENDBRANCH   8  25
TORSDOF 3
ENDMDL
MODEL 8
REMARK VINA RESULT:      -8.4      2.448      3.581
REMARK  3 active torsions:
REMARK  status: ('A' for Active; 'I' for Inactive)
REMARK    1  A    between atoms: C_8  and  C_9 
REMARK       I    between atoms: C_9  and  N_10 
REMARK    2  A    between atoms: N_10  and  C_11 
REMARK    3  A    between atoms: C_18  and  C_19 
REMARK       I    between atoms: C_19  and  N_20 
ROOT
HETATM    1  C   UNL     1     -43.152  56.461 -57.236  1.00  0.00     0.035 A 
HETATM    2  C   UNL     1     -44.207  57.373 -57.372  1.00  0.00     0.046 A 
HETATM    3  C   UNL     1     -44.927  57.433 -58.586  1.00  0.00     0.030 A 
HETATM    4  C   UNL     1     -44.570  56.576 -59.620  1.00  0.00     0.063 A 
HETATM    5  N   UNL     1     -45.429  56.865 -60.643  1.00  0.00    -0.277 N 
HETATM    6  H   UNL     1     -45.458  56.433 -61.560  1.00  0.00     0.189 HD
HETATM    7  N   UNL     1     -46.317  57.834 -60.369  1.00  0.00    -0.168 NA
HETATM    8  C   UNL     1     -46.020  58.195 -59.099  1.00  0.00     0.156 A 
HETATM    9  C   UNL     1     -43.529  55.652 -59.519  1.00  0.00     0.034 A 
HETATM   10  C   UNL     1     -42.831  55.614 -58.306  1.00  0.00     0.032 A 
ENDROOT
BRANCH   1  11
HETATM   11  N   UNL     1     -42.370  56.328 -56.069  1.00  0.00    -0.327 N 
HETATM   12  C   UNL     1     -42.660  55.593 -54.931  1.00  0.00     0.231 C 
HETATM   13  O   UNL     1     -43.659  54.901 -54.751  1.00  0.00    -0.272 OA
HETATM   14  H   UNL     1     -41.522  56.883 -56.039  1.00  0.00     0.169 HD
BRANCH  12  15
HETATM   15  C   UNL     1     -41.572  55.650 -53.856  1.00  0.00     0.116 C 
HETATM   16  C   UNL     1     -40.948  54.306 -53.537  1.00  0.00    -0.012 A 
HETATM   17  C   UNL     1     -40.542  53.438 -54.564  1.00  0.00     0.011 A 
HETATM   18  C   UNL     1     -40.731  53.923 -52.207  1.00  0.00     0.075 A 
HETATM   19  C   UNL     1     -39.984  52.195 -54.264  1.00  0.00     0.001 A 
HETATM   20  C   UNL     1     -39.813  51.810 -52.936  1.00  0.00     0.003 A 
HETATM   21  C   UNL     1     -40.187  52.674 -51.908  1.00  0.00     0.037 A 
HETATM   22  O   UNL     1     -41.057  54.707 -51.133  1.00  0.00    -0.351 OA
HETATM   23  C   UNL     1     -41.180  56.096 -51.447  1.00  0.00     0.176 C 
HETATM   24  C   UNL     1     -42.144  56.307 -52.597  1.00  0.00     0.045 C 
ENDBRANCH  12  15
ENDBRANCH   1  11
BRANCH   8  25
HETATM   25  C   UNL     1     -46.780  59.249 -58.412  1.00  0.00     0.270 C 
HETATM   26  N   UNL     1     -47.620  58.786 -57.436  1.00  0.00    -0.365 N 
HETATM   27  H   UNL     1     -47.658  57.788 -57.262  1.00  0.00     0.159 HD
HETATM   28  H   UNL     1     -48.182  59.436 -56.912  1.00  0.00     0.159 HD
HETATM   29  O   UNL     1     -46.698  60.446 -58.660  1.00  0.00    -0.266 OA
ENDBRANCH   8  25
TORSDOF 3
ENDMDL
MODEL 9
REMARK VINA RESULT:      -8.3      2.960      7.933
REMARK  3 active torsions:
REMARK  status: ('A' for Active; 'I' for Inactive)
REMARK    1  A    between atoms: C_8  and  C_9 
REMARK       I    between atoms: C_9  and  N_10 
REMARK    2  A    between atoms: N_10  and  C_11 
REMARK    3  A    between atoms: C_18  and  C_19 
REMARK       I    between atoms: C_19  and  N_20 
ROOT
HETATM    1  C   UNL     1     -41.408  55.640 -53.350  1.00  0.00     0.035 A 
HETATM    2  C   UNL     1     -41.004  54.326 -53.622  1.00  0.00     0.046 A 
HETATM    3  C   UNL     1     -40.577  53.494 -52.563  1.00  0.00     0.030 A 
HETATM    4  C   UNL     1     -40.574  54.002 -51.270  1.00  0.00     0.063 A 
HETATM    5  N   UNL     1     -40.119  52.983 -50.481  1.00  0.00    -0.277 N 
HETATM    6  H   UNL     1     -39.985  52.998 -49.476  1.00  0.00     0.189 HD
HETATM    7  N   UNL     1     -39.826  51.853 -51.144  1.00  0.00    -0.168 NA
HETATM    8  C   UNL     1     -40.105  52.152 -52.433  1.00  0.00     0.156 A 
HETATM    9  C   UNL     1     -40.974  55.303 -50.962  1.00  0.00     0.034 A 
HETATM   10  C   UNL     1     -41.391  56.107 -52.028  1.00  0.00     0.032 A 
ENDROOT
BRANCH   1  11
HETATM   11  N   UNL     1     -41.844  56.550 -54.336  1.00  0.00    -0.327 N 
HETATM   12  C   UNL     1     -43.090  56.617 -54.940  1.00  0.00     0.231 C 
HETATM   13  O   UNL     1     -44.051  55.892 -54.698  1.00  0.00    -0.272 OA
HETATM   14  H   UNL     1     -41.144  57.195 -54.684  1.00  0.00     0.169 HD
BRANCH  12  15
HETATM   15  C   UNL     1     -43.231  57.752 -55.958  1.00  0.00     0.116 C 
HETATM   16  C   UNL     1     -42.885  57.353 -57.379  1.00  0.00    -0.012 A 
HETATM   17  C   UNL     1     -43.384  56.164 -57.935  1.00  0.00     0.011 A 
HETATM   18  C   UNL     1     -42.088  58.186 -58.175  1.00  0.00     0.075 A 
HETATM   19  C   UNL     1     -43.048  55.794 -59.238  1.00  0.00     0.001 A 
HETATM   20  C   UNL     1     -42.220  56.612 -60.004  1.00  0.00     0.003 A 
HETATM   21  C   UNL     1     -41.740  57.808 -59.471  1.00  0.00     0.037 A 
HETATM   22  O   UNL     1     -41.579  59.381 -57.742  1.00  0.00    -0.351 OA
HETATM   23  C   UNL     1     -42.283  59.943 -56.633  1.00  0.00     0.176 C 
HETATM   24  C   UNL     1     -42.389  58.945 -55.497  1.00  0.00     0.045 C 
ENDBRANCH  12  15
ENDBRANCH   1  11
BRANCH   8  25
HETATM   25  C   UNL     1     -39.917  51.159 -53.501  1.00  0.00     0.270 C 
HETATM   26  N   UNL     1     -39.654  49.895 -53.048  1.00  0.00    -0.365 N 
HETATM   27  H   UNL     1     -39.610  49.738 -52.047  1.00  0.00     0.159 HD
HETATM   28  H   UNL     1     -39.510  49.149 -53.708  1.00  0.00     0.159 HD
HETATM   29  O   UNL     1     -39.982  51.401 -54.701  1.00  0.00    -0.266 OA
ENDBRANCH   8  25
TORSDOF 3
ENDMDL
MODEL 10
REMARK VINA RESULT:      -8.2      3.057      8.268
REMARK  3 active torsions:
REMARK  status: ('A' for Active; 'I' for Inactive)
REMARK    1  A    between atoms: C_8  and  C_9 
REMARK       I    between atoms: C_9  and  N_10 
REMARK    2  A    between atoms: N_10  and  C_11 
REMARK    3  A    between atoms: C_18  and  C_19 
REMARK       I    between atoms: C_19  and  N_20 
ROOT
HETATM    1  C   UNL     1     -43.140  54.964 -55.270  1.00  0.00     0.035 A 
HETATM    2  C   UNL     1     -43.548  55.730 -54.170  1.00  0.00     0.046 A 
HETATM    3  C   UNL     1     -43.143  55.356 -52.870  1.00  0.00     0.030 A 
HETATM    4  C   UNL     1     -42.342  54.231 -52.714  1.00  0.00     0.063 A 
HETATM    5  N   UNL     1     -42.122  54.126 -51.369  1.00  0.00    -0.277 N 
HETATM    6  H   UNL     1     -41.577  53.417 -50.891  1.00  0.00     0.189 HD
HETATM    7  N   UNL     1     -42.707  55.083 -50.632  1.00  0.00    -0.168 NA
HETATM    8  C   UNL     1     -43.342  55.853 -51.545  1.00  0.00     0.156 A 
HETATM    9  C   UNL     1     -41.913  53.447 -53.786  1.00  0.00     0.034 A 
HETATM   10  C   UNL     1     -42.329  53.839 -55.064  1.00  0.00     0.032 A 
ENDROOT
BRANCH   1  11
HETATM   11  N   UNL     1     -43.495  55.250 -56.605  1.00  0.00    -0.327 N 
HETATM   12  C   UNL     1     -43.019  56.272 -57.411  1.00  0.00     0.231 C 
HETATM   13  O   UNL     1     -42.174  57.106 -57.098  1.00  0.00    -0.272 OA
HETATM   14  H   UNL     1     -44.228  54.673 -57.002  1.00  0.00     0.169 HD
BRANCH  12  15
HETATM   15  C   UNL     1     -43.604  56.276 -58.826  1.00  0.00     0.116 C 
HETATM   16  C   UNL     1     -44.824  57.161 -58.986  1.00  0.00    -0.012 A 
HETATM   17  C   UNL     1     -44.839  58.468 -58.472  1.00  0.00     0.011 A 
HETATM   18  C   UNL     1     -45.948  56.699 -59.685  1.00  0.00     0.075 A 
HETATM   19  C   UNL     1     -45.972  59.271 -58.608  1.00  0.00     0.001 A 
HETATM   20  C   UNL     1     -47.098  58.784 -59.269  1.00  0.00     0.003 A 
HETATM   21  C   UNL     1     -47.085  57.497 -59.807  1.00  0.00     0.037 A 
HETATM   22  O   UNL     1     -46.024  55.457 -60.254  1.00  0.00    -0.351 OA
HETATM   23  C   UNL     1     -44.752  54.856 -60.505  1.00  0.00     0.176 C 
HETATM   24  C   UNL     1     -43.905  54.836 -59.248  1.00  0.00     0.045 C 
ENDBRANCH  12  15
ENDBRANCH   1  11
BRANCH   8  25
HETATM   25  C   UNL     1     -44.117  57.034 -51.137  1.00  0.00     0.270 C 
HETATM   26  N   UNL     1     -43.521  58.226 -51.446  1.00  0.00    -0.365 N 
HETATM   27  H   UNL     1     -42.623  58.212 -51.917  1.00  0.00     0.159 HD
HETATM   28  H   UNL     1     -43.979  59.090 -51.204  1.00  0.00     0.159 HD
HETATM   29  O   UNL     1     -45.202  56.997 -50.569  1.00  0.00    -0.266 OA
ENDBRANCH   8  25
TORSDOF 3
ENDMDL
