MODEL 1
REMARK VINA RESULT:      -7.9      0.000      0.000
REMARK  5 active torsions:
REMARK  status: ('A' for Active; 'I' for Inactive)
REMARK    1  A    between atoms: C_2  and  O_3 
REMARK    2  A    between atoms: O_3  and  C_4 
REMARK    3  A    between atoms: C_5  and  C_6 
REMARK    4  A    between atoms: N_7  and  N_8 
REMARK       I    between atoms: N_8  and  C_9 
REMARK    5  A    between atoms: C_9  and  C_10 
ROOT
HETATM    1  N   UNL     1     -41.706  54.569 -55.225  1.00  0.00    -0.243 N 
HETATM    2  C   UNL     1     -42.830  55.388 -55.237  1.00  0.00     0.274 C 
HETATM    3  O   UNL     1     -43.807  55.260 -54.504  1.00  0.00    -0.266 OA
HETATM    4  H   UNL     1     -40.860  54.961 -55.624  1.00  0.00     0.192 HD
ENDROOT
BRANCH   1   5
HETATM    5  N   UNL     1     -41.460  53.505 -54.393  1.00  0.00    -0.183 NA
HETATM    6  C   UNL     1     -40.255  53.038 -54.306  1.00  0.00     0.153 C 
BRANCH   6   7
HETATM    7  C   UNL     1     -39.952  51.857 -53.473  1.00  0.00     0.016 A 
HETATM    8  C   UNL     1     -39.760  51.987 -52.093  1.00  0.00     0.080 A 
HETATM    9  C   UNL     1     -39.570  50.848 -51.307  1.00  0.00     0.037 A 
HETATM   10  C   UNL     1     -39.524  49.585 -51.901  1.00  0.00     0.003 A 
HETATM   11  C   UNL     1     -39.676  49.457 -53.281  1.00  0.00     0.001 A 
HETATM   12  C   UNL     1     -39.892  50.590 -54.069  1.00  0.00     0.016 A 
BRANCH   8  13
HETATM   13  O   UNL     1     -39.769  53.185 -51.430  1.00  0.00    -0.351 OA
BRANCH  13  14
HETATM   14  C   UNL     1     -40.369  53.077 -50.129  1.00  0.00     0.171 C 
HETATM   15  C   UNL     1     -39.955  54.284 -49.309  1.00  0.00     0.034 C 
ENDBRANCH  13  14
ENDBRANCH   8  13
ENDBRANCH   6   7
ENDBRANCH   1   5
BRANCH   2  16
HETATM   16  C   UNL     1     -42.739  56.513 -56.175  1.00  0.00     0.061 A 
HETATM   17  C   UNL     1     -42.933  56.580 -57.601  1.00  0.00     0.008 A 
HETATM   18  C   UNL     1     -42.674  57.896 -57.994  1.00  0.00     0.043 A 
HETATM   19  C   UNL     1     -43.314  55.660 -58.607  1.00  0.00     0.015 A 
HETATM   20  C   UNL     1     -42.734  58.324 -59.326  1.00  0.00     0.030 A 
HETATM   21  N   UNL     1     -42.387  58.615 -56.859  1.00  0.00    -0.364 N 
HETATM   22  C   UNL     1     -43.080  57.383 -60.298  1.00  0.00     0.002 A 
HETATM   23  C   UNL     1     -43.374  56.071 -59.944  1.00  0.00     0.001 A 
HETATM   24  H   UNL     1     -42.181  59.604 -56.842  1.00  0.00     0.165 HD
HETATM   25  C   UNL     1     -42.437  57.802 -55.764  1.00  0.00     0.106 A 
ENDBRANCH   2  16
TORSDOF 5
ENDMDL
MODEL 2
REMARK VINA RESULT:      -7.5      1.796      7.888
REMARK  5 active torsions:
REMARK  status: ('A' for Active; 'I' for Inactive)
REMARK    1  A    between atoms: C_2  and  O_3 
REMARK    2  A    between atoms: O_3  and  C_4 
REMARK    3  A    between atoms: C_5  and  C_6 
REMARK    4  A    between atoms: N_7  and  N_8 
REMARK       I    between atoms: N_8  and  C_9 
REMARK    5  A    between atoms: C_9  and  C_10 
ROOT
HETATM    1  N   UNL     1     -42.251  53.946 -54.854  1.00  0.00    -0.243 N 
HETATM    2  C   UNL     1     -41.317  54.511 -53.992  1.00  0.00     0.274 C 
HETATM    3  O   UNL     1     -41.031  55.705 -53.943  1.00  0.00    -0.266 OA
HETATM    4  H   UNL     1     -42.627  53.046 -54.580  1.00  0.00     0.192 HD
ENDROOT
BRANCH   1   5
HETATM    5  N   UNL     1     -43.038  54.597 -55.771  1.00  0.00    -0.183 NA
HETATM    6  C   UNL     1     -42.474  55.343 -56.669  1.00  0.00     0.153 C 
BRANCH   6   7
HETATM    7  C   UNL     1     -43.279  56.112 -57.637  1.00  0.00     0.016 A 
HETATM    8  C   UNL     1     -43.820  57.354 -57.290  1.00  0.00     0.080 A 
HETATM    9  C   UNL     1     -44.498  58.112 -58.249  1.00  0.00     0.037 A 
HETATM   10  C   UNL     1     -44.679  57.610 -59.539  1.00  0.00     0.003 A 
HETATM   11  C   UNL     1     -44.175  56.354 -59.876  1.00  0.00     0.001 A 
HETATM   12  C   UNL     1     -43.474  55.604 -58.929  1.00  0.00     0.016 A 
BRANCH   8  13
HETATM   13  O   UNL     1     -43.709  57.915 -56.045  1.00  0.00    -0.351 OA
BRANCH  13  14
HETATM   14  C   UNL     1     -44.896  57.728 -55.260  1.00  0.00     0.171 C 
HETATM   15  C   UNL     1     -44.484  57.348 -53.851  1.00  0.00     0.034 C 
ENDBRANCH  13  14
ENDBRANCH   8  13
ENDBRANCH   6   7
ENDBRANCH   1   5
BRANCH   2  16
HETATM   16  C   UNL     1     -40.720  53.558 -53.050  1.00  0.00     0.061 A 
HETATM   17  C   UNL     1     -40.336  52.178 -53.208  1.00  0.00     0.008 A 
HETATM   18  C   UNL     1     -39.860  51.736 -51.971  1.00  0.00     0.043 A 
HETATM   19  C   UNL     1     -40.332  51.254 -54.279  1.00  0.00     0.015 A 
HETATM   20  C   UNL     1     -39.425  50.424 -51.742  1.00  0.00     0.030 A 
HETATM   21  N   UNL     1     -39.898  52.804 -51.109  1.00  0.00    -0.364 N 
HETATM   22  C   UNL     1     -39.466  49.528 -52.813  1.00  0.00     0.002 A 
HETATM   23  C   UNL     1     -39.905  49.937 -54.066  1.00  0.00     0.001 A 
HETATM   24  H   UNL     1     -39.590  52.778 -50.147  1.00  0.00     0.165 HD
HETATM   25  C   UNL     1     -40.397  53.903 -51.746  1.00  0.00     0.106 A 
ENDBRANCH   2  16
TORSDOF 5
ENDMDL
MODEL 3
REMARK VINA RESULT:      -7.4      2.647      4.041
REMARK  5 active torsions:
REMARK  status: ('A' for Active; 'I' for Inactive)
REMARK    1  A    between atoms: C_2  and  O_3 
REMARK    2  A    between atoms: O_3  and  C_4 
REMARK    3  A    between atoms: C_5  and  C_6 
REMARK    4  A    between atoms: N_7  and  N_8 
REMARK       I    between atoms: N_8  and  C_9 
REMARK    5  A    between atoms: C_9  and  C_10 
ROOT
HETATM    1  N   UNL     1     -43.281  54.877 -56.695  1.00  0.00    -0.243 N 
HETATM    2  C   UNL     1     -43.221  55.872 -57.664  1.00  0.00     0.274 C 
HETATM    3  O   UNL     1     -42.474  56.847 -57.633  1.00  0.00    -0.266 OA
HETATM    4  H   UNL     1     -43.676  53.990 -56.986  1.00  0.00     0.192 HD
ENDROOT
BRANCH   1   5
HETATM    5  N   UNL     1     -42.516  54.774 -55.559  1.00  0.00    -0.183 NA
HETATM    6  C   UNL     1     -42.781  53.838 -54.703  1.00  0.00     0.153 C 
BRANCH   6   7
HETATM    7  C   UNL     1     -42.028  53.725 -53.439  1.00  0.00     0.016 A 
HETATM    8  C   UNL     1     -40.794  53.067 -53.399  1.00  0.00     0.080 A 
HETATM    9  C   UNL     1     -40.050  53.053 -52.216  1.00  0.00     0.037 A 
HETATM   10  C   UNL     1     -40.557  53.652 -51.062  1.00  0.00     0.003 A 
HETATM   11  C   UNL     1     -41.805  54.275 -51.089  1.00  0.00     0.001 A 
HETATM   12  C   UNL     1     -42.541  54.314 -52.276  1.00  0.00     0.016 A 
BRANCH   8  13
HETATM   13  O   UNL     1     -40.229  52.436 -54.475  1.00  0.00    -0.351 OA
BRANCH  13  14
HETATM   14  C   UNL     1     -39.607  51.195 -54.109  1.00  0.00     0.171 C 
HETATM   15  C   UNL     1     -40.566  50.065 -54.430  1.00  0.00     0.034 C 
ENDBRANCH  13  14
ENDBRANCH   8  13
ENDBRANCH   6   7
ENDBRANCH   1   5
BRANCH   2  16
HETATM   16  C   UNL     1     -44.095  55.634 -58.819  1.00  0.00     0.061 A 
HETATM   17  C   UNL     1     -45.160  56.425 -59.384  1.00  0.00     0.008 A 
HETATM   18  C   UNL     1     -45.690  55.700 -60.455  1.00  0.00     0.043 A 
HETATM   19  C   UNL     1     -45.726  57.691 -59.107  1.00  0.00     0.015 A 
HETATM   20  C   UNL     1     -46.770  56.151 -61.225  1.00  0.00     0.030 A 
HETATM   21  N   UNL     1     -44.955  54.546 -60.576  1.00  0.00    -0.364 N 
HETATM   22  C   UNL     1     -47.328  57.390 -60.903  1.00  0.00     0.002 A 
HETATM   23  C   UNL     1     -46.809  58.154 -59.864  1.00  0.00     0.001 A 
HETATM   24  H   UNL     1     -45.104  53.841 -61.284  1.00  0.00     0.165 HD
HETATM   25  C   UNL     1     -43.990  54.503 -59.613  1.00  0.00     0.106 A 
ENDBRANCH   2  16
TORSDOF 5
ENDMDL
MODEL 4
REMARK VINA RESULT:      -7.4      2.040      8.436
REMARK  5 active torsions:
REMARK  status: ('A' for Active; 'I' for Inactive)
REMARK    1  A    between atoms: C_2  and  O_3 
REMARK    2  A    between atoms: O_3  and  C_4 
REMARK    3  A    between atoms: C_5  and  C_6 
REMARK    4  A    between atoms: N_7  and  N_8 
REMARK       I    between atoms: N_8  and  C_9 
REMARK    5  A    between atoms: C_9  and  C_10 
ROOT
HETATM    1  N   UNL     1     -42.069  55.255 -53.489  1.00  0.00    -0.243 N 
HETATM    2  C   UNL     1     -40.905  54.588 -53.854  1.00  0.00     0.274 C 
HETATM    3  O   UNL     1     -40.217  54.851 -54.837  1.00  0.00    -0.266 OA
HETATM    4  H   UNL     1     -42.350  55.172 -52.519  1.00  0.00     0.192 HD
ENDROOT
BRANCH   1   5
HETATM    5  N   UNL     1     -42.646  56.329 -54.122  1.00  0.00    -0.183 NA
HETATM    6  C   UNL     1     -43.305  56.134 -55.221  1.00  0.00     0.153 C 
BRANCH   6   7
HETATM    7  C   UNL     1     -43.889  57.263 -55.970  1.00  0.00     0.016 A 
HETATM    8  C   UNL     1     -43.670  57.398 -57.346  1.00  0.00     0.080 A 
HETATM    9  C   UNL     1     -44.309  58.417 -58.056  1.00  0.00     0.037 A 
HETATM   10  C   UNL     1     -45.126  59.331 -57.389  1.00  0.00     0.003 A 
HETATM   11  C   UNL     1     -45.314  59.223 -56.011  1.00  0.00     0.001 A 
HETATM   12  C   UNL     1     -44.699  58.190 -55.300  1.00  0.00     0.016 A 
BRANCH   8  13
HETATM   13  O   UNL     1     -42.870  56.561 -58.077  1.00  0.00    -0.351 OA
BRANCH  13  14
HETATM   14  C   UNL     1     -43.404  56.312 -59.387  1.00  0.00     0.171 C 
HETATM   15  C   UNL     1     -44.105  54.966 -59.371  1.00  0.00     0.034 C 
ENDBRANCH  13  14
ENDBRANCH   8  13
ENDBRANCH   6   7
ENDBRANCH   1   5
BRANCH   2  16
HETATM   16  C   UNL     1     -40.490  53.549 -52.904  1.00  0.00     0.061 A 
HETATM   17  C   UNL     1     -40.174  52.156 -53.096  1.00  0.00     0.008 A 
HETATM   18  C   UNL     1     -39.885  51.619 -51.838  1.00  0.00     0.043 A 
HETATM   19  C   UNL     1     -40.090  51.290 -54.212  1.00  0.00     0.015 A 
HETATM   20  C   UNL     1     -39.563  50.271 -51.637  1.00  0.00     0.030 A 
HETATM   21  N   UNL     1     -39.967  52.642 -50.926  1.00  0.00    -0.364 N 
HETATM   22  C   UNL     1     -39.522  49.436 -52.756  1.00  0.00     0.002 A 
HETATM   23  C   UNL     1     -39.774  49.939 -54.027  1.00  0.00     0.001 A 
HETATM   24  H   UNL     1     -39.785  52.545 -49.936  1.00  0.00     0.165 HD
HETATM   25  C   UNL     1     -40.314  53.803 -51.552  1.00  0.00     0.106 A 
ENDBRANCH   2  16
TORSDOF 5
ENDMDL
MODEL 5
REMARK VINA RESULT:      -7.4      1.761      3.434
REMARK  5 active torsions:
REMARK  status: ('A' for Active; 'I' for Inactive)
REMARK    1  A    between atoms: C_2  and  O_3 
REMARK    2  A    between atoms: O_3  and  C_4 
REMARK    3  A    between atoms: C_5  and  C_6 
REMARK    4  A    between atoms: N_7  and  N_8 
REMARK       I    between atoms: N_8  and  C_9 
REMARK    5  A    between atoms: C_9  and  C_10 
ROOT
HETATM    1  N   UNL     1     -42.078  55.303 -56.328  1.00  0.00    -0.243 N 
HETATM    2  C   UNL     1     -42.888  56.387 -56.648  1.00  0.00     0.274 C 
HETATM    3  O   UNL     1     -43.663  56.944 -55.875  1.00  0.00    -0.266 OA
HETATM    4  H   UNL     1     -41.272  55.153 -56.924  1.00  0.00     0.192 HD
ENDROOT
BRANCH   1   5
HETATM    5  N   UNL     1     -41.965  54.679 -55.109  1.00  0.00    -0.183 NA
HETATM    6  C   UNL     1     -41.040  55.065 -54.288  1.00  0.00     0.153 C 
BRANCH   6   7
HETATM    7  C   UNL     1     -40.839  54.386 -52.993  1.00  0.00     0.016 A 
HETATM    8  C   UNL     1     -40.315  53.090 -52.940  1.00  0.00     0.080 A 
HETATM    9  C   UNL     1     -40.042  52.499 -51.703  1.00  0.00     0.037 A 
HETATM   10  C   UNL     1     -40.334  53.182 -50.520  1.00  0.00     0.003 A 
HETATM   11  C   UNL     1     -40.893  54.459 -50.572  1.00  0.00     0.001 A 
HETATM   12  C   UNL     1     -41.144  55.063 -51.805  1.00  0.00     0.016 A 
BRANCH   8  13
HETATM   13  O   UNL     1     -40.017  52.340 -54.046  1.00  0.00    -0.351 OA
BRANCH  13  14
HETATM   14  C   UNL     1     -39.376  51.101 -53.703  1.00  0.00     0.171 C 
HETATM   15  C   UNL     1     -40.052  49.982 -54.472  1.00  0.00     0.034 C 
ENDBRANCH  13  14
ENDBRANCH   8  13
ENDBRANCH   6   7
ENDBRANCH   1   5
BRANCH   2  16
HETATM   16  C   UNL     1     -42.696  56.894 -58.012  1.00  0.00     0.061 A 
HETATM   17  C   UNL     1     -42.336  58.202 -58.498  1.00  0.00     0.008 A 
HETATM   18  C   UNL     1     -42.339  58.140 -59.894  1.00  0.00     0.043 A 
HETATM   19  C   UNL     1     -41.995  59.437 -57.898  1.00  0.00     0.015 A 
HETATM   20  C   UNL     1     -42.064  59.246 -60.710  1.00  0.00     0.030 A 
HETATM   21  N   UNL     1     -42.634  56.847 -60.249  1.00  0.00    -0.364 N 
HETATM   22  C   UNL     1     -41.764  60.458 -60.086  1.00  0.00     0.002 A 
HETATM   23  C   UNL     1     -41.722  60.552 -58.700  1.00  0.00     0.001 A 
HETATM   24  H   UNL     1     -42.682  56.508 -61.200  1.00  0.00     0.165 HD
HETATM   25  C   UNL     1     -42.834  56.089 -59.132  1.00  0.00     0.106 A 
ENDBRANCH   2  16
TORSDOF 5
ENDMDL
MODEL 6
REMARK VINA RESULT:      -7.3      2.094      2.560
REMARK  5 active torsions:
REMARK  status: ('A' for Active; 'I' for Inactive)
REMARK    1  A    between atoms: C_2  and  O_3 
REMARK    2  A    between atoms: O_3  and  C_4 
REMARK    3  A    between atoms: C_5  and  C_6 
REMARK    4  A    between atoms: N_7  and  N_8 
REMARK       I    between atoms: N_8  and  C_9 
REMARK    5  A    between atoms: C_9  and  C_10 
ROOT
HETATM    1  N   UNL     1     -42.913  55.409 -56.223  1.00  0.00    -0.243 N 
HETATM    2  C   UNL     1     -42.875  56.677 -56.793  1.00  0.00     0.274 C 
HETATM    3  O   UNL     1     -41.955  57.482 -56.670  1.00  0.00    -0.266 OA
HETATM    4  H   UNL     1     -43.541  54.741 -56.654  1.00  0.00     0.192 HD
ENDROOT
BRANCH   1   5
HETATM    5  N   UNL     1     -41.942  54.812 -55.457  1.00  0.00    -0.183 NA
HETATM    6  C   UNL     1     -42.258  53.795 -54.719  1.00  0.00     0.153 C 
BRANCH   6   7
HETATM    7  C   UNL     1     -41.265  53.158 -53.833  1.00  0.00     0.016 A 
HETATM    8  C   UNL     1     -41.032  53.656 -52.546  1.00  0.00     0.080 A 
HETATM    9  C   UNL     1     -40.159  52.984 -51.686  1.00  0.00     0.037 A 
HETATM   10  C   UNL     1     -39.482  51.844 -52.125  1.00  0.00     0.003 A 
HETATM   11  C   UNL     1     -39.683  51.369 -53.421  1.00  0.00     0.001 A 
HETATM   12  C   UNL     1     -40.574  52.022 -54.275  1.00  0.00     0.016 A 
BRANCH   8  13
HETATM   13  O   UNL     1     -41.636  54.776 -52.039  1.00  0.00    -0.351 OA
BRANCH  13  14
HETATM   14  C   UNL     1     -41.094  55.151 -50.763  1.00  0.00     0.171 C 
HETATM   15  C   UNL     1     -41.394  56.620 -50.528  1.00  0.00     0.034 C 
ENDBRANCH  13  14
ENDBRANCH   8  13
ENDBRANCH   6   7
ENDBRANCH   1   5
BRANCH   2  16
HETATM   16  C   UNL     1     -44.026  56.979 -57.653  1.00  0.00     0.061 A 
HETATM   17  C   UNL     1     -44.519  56.333 -58.843  1.00  0.00     0.008 A 
HETATM   18  C   UNL     1     -45.624  57.068 -59.285  1.00  0.00     0.043 A 
HETATM   19  C   UNL     1     -44.152  55.190 -59.591  1.00  0.00     0.015 A 
HETATM   20  C   UNL     1     -46.342  56.746 -60.444  1.00  0.00     0.030 A 
HETATM   21  N   UNL     1     -45.831  58.083 -58.383  1.00  0.00    -0.364 N 
HETATM   22  C   UNL     1     -45.932  55.631 -61.177  1.00  0.00     0.002 A 
HETATM   23  C   UNL     1     -44.857  54.858 -60.754  1.00  0.00     0.001 A 
HETATM   24  H   UNL     1     -46.579  58.759 -58.442  1.00  0.00     0.165 HD
HETATM   25  C   UNL     1     -44.891  58.031 -57.396  1.00  0.00     0.106 A 
ENDBRANCH   2  16
TORSDOF 5
ENDMDL
MODEL 7
REMARK VINA RESULT:      -7.3      1.761      8.316
REMARK  5 active torsions:
REMARK  status: ('A' for Active; 'I' for Inactive)
REMARK    1  A    between atoms: C_2  and  O_3 
REMARK    2  A    between atoms: O_3  and  C_4 
REMARK    3  A    between atoms: C_5  and  C_6 
REMARK    4  A    between atoms: N_7  and  N_8 
REMARK       I    between atoms: N_8  and  C_9 
REMARK    5  A    between atoms: C_9  and  C_10 
ROOT
HETATM    1  N   UNL     1     -40.941  55.521 -54.045  1.00  0.00    -0.243 N 
HETATM    2  C   UNL     1     -41.708  54.754 -53.175  1.00  0.00     0.274 C 
HETATM    3  O   UNL     1     -42.915  54.887 -52.990  1.00  0.00    -0.266 OA
HETATM    4  H   UNL     1     -40.064  55.114 -54.350  1.00  0.00     0.192 HD
ENDROOT
BRANCH   1   5
HETATM    5  N   UNL     1     -41.376  56.530 -54.870  1.00  0.00    -0.183 NA
HETATM    6  C   UNL     1     -42.108  56.232 -55.897  1.00  0.00     0.153 C 
BRANCH   6   7
HETATM    7  C   UNL     1     -42.549  57.272 -56.847  1.00  0.00     0.016 A 
HETATM    8  C   UNL     1     -43.287  56.933 -57.986  1.00  0.00     0.080 A 
HETATM    9  C   UNL     1     -43.778  57.939 -58.823  1.00  0.00     0.037 A 
HETATM   10  C   UNL     1     -43.493  59.278 -58.550  1.00  0.00     0.003 A 
HETATM   11  C   UNL     1     -42.724  59.616 -57.436  1.00  0.00     0.001 A 
HETATM   12  C   UNL     1     -42.253  58.616 -56.583  1.00  0.00     0.016 A 
BRANCH   8  13
HETATM   13  O   UNL     1     -43.596  55.647 -58.341  1.00  0.00    -0.351 OA
BRANCH  13  14
HETATM   14  C   UNL     1     -43.895  55.530 -59.741  1.00  0.00     0.171 C 
HETATM   15  C   UNL     1     -44.734  54.284 -59.950  1.00  0.00     0.034 C 
ENDBRANCH  13  14
ENDBRANCH   8  13
ENDBRANCH   6   7
ENDBRANCH   1   5
BRANCH   2  16
HETATM   16  C   UNL     1     -40.962  53.675 -52.515  1.00  0.00     0.061 A 
HETATM   17  C   UNL     1     -40.528  52.388 -52.996  1.00  0.00     0.008 A 
HETATM   18  C   UNL     1     -39.897  51.740 -51.930  1.00  0.00     0.043 A 
HETATM   19  C   UNL     1     -40.593  51.703 -54.232  1.00  0.00     0.015 A 
HETATM   20  C   UNL     1     -39.373  50.444 -52.024  1.00  0.00     0.030 A 
HETATM   21  N   UNL     1     -39.896  52.605 -50.864  1.00  0.00    -0.364 N 
HETATM   22  C   UNL     1     -39.484  49.784 -53.250  1.00  0.00     0.002 A 
HETATM   23  C   UNL     1     -40.078  50.406 -54.341  1.00  0.00     0.001 A 
HETATM   24  H   UNL     1     -39.484  52.407 -49.963  1.00  0.00     0.165 HD
HETATM   25  C   UNL     1     -40.517  53.771 -51.206  1.00  0.00     0.106 A 
ENDBRANCH   2  16
TORSDOF 5
ENDMDL
MODEL 8
REMARK VINA RESULT:      -7.3      3.211      8.409
REMARK  5 active torsions:
REMARK  status: ('A' for Active; 'I' for Inactive)
REMARK    1  A    between atoms: C_2  and  O_3 
REMARK    2  A    between atoms: O_3  and  C_4 
REMARK    3  A    between atoms: C_5  and  C_6 
REMARK    4  A    between atoms: N_7  and  N_8 
REMARK       I    between atoms: N_8  and  C_9 
REMARK    5  A    between atoms: C_9  and  C_10 
ROOT
HETATM    1  N   UNL     1     -41.761  55.709 -52.076  1.00  0.00    -0.243 N 
HETATM    2  C   UNL     1     -40.993  54.932 -52.936  1.00  0.00     0.274 C 
HETATM    3  O   UNL     1     -40.673  55.247 -54.080  1.00  0.00    -0.266 OA
HETATM    4  H   UNL     1     -41.677  55.502 -51.088  1.00  0.00     0.192 HD
ENDROOT
BRANCH   1   5
HETATM    5  N   UNL     1     -42.274  56.960 -52.319  1.00  0.00    -0.183 NA
HETATM    6  C   UNL     1     -41.557  58.001 -52.032  1.00  0.00     0.153 C 
BRANCH   6   7
HETATM    7  C   UNL     1     -42.086  59.366 -52.217  1.00  0.00     0.016 A 
HETATM    8  C   UNL     1     -42.025  59.993 -53.466  1.00  0.00     0.080 A 
HETATM    9  C   UNL     1     -42.617  61.246 -53.646  1.00  0.00     0.037 A 
HETATM   10  C   UNL     1     -43.227  61.894 -52.570  1.00  0.00     0.003 A 
HETATM   11  C   UNL     1     -43.255  61.288 -51.315  1.00  0.00     0.001 A 
HETATM   12  C   UNL     1     -42.687  60.024 -51.136  1.00  0.00     0.016 A 
BRANCH   8  13
HETATM   13  O   UNL     1     -41.431  59.442 -54.570  1.00  0.00    -0.351 OA
BRANCH  13  14
HETATM   14  C   UNL     1     -42.396  58.954 -55.516  1.00  0.00     0.171 C 
HETATM   15  C   UNL     1     -42.059  59.524 -56.881  1.00  0.00     0.034 C 
ENDBRANCH  13  14
ENDBRANCH   8  13
ENDBRANCH   6   7
ENDBRANCH   1   5
BRANCH   2  16
HETATM   16  C   UNL     1     -40.502  53.686 -52.337  1.00  0.00     0.061 A 
HETATM   17  C   UNL     1     -40.233  52.394 -52.916  1.00  0.00     0.008 A 
HETATM   18  C   UNL     1     -39.826  51.551 -51.877  1.00  0.00     0.043 A 
HETATM   19  C   UNL     1     -40.281  51.848 -54.220  1.00  0.00     0.015 A 
HETATM   20  C   UNL     1     -39.510  50.199 -52.067  1.00  0.00     0.030 A 
HETATM   21  N   UNL     1     -39.795  52.301 -50.727  1.00  0.00    -0.364 N 
HETATM   22  C   UNL     1     -39.601  49.685 -53.362  1.00  0.00     0.002 A 
HETATM   23  C   UNL     1     -39.973  50.498 -54.426  1.00  0.00     0.001 A 
HETATM   24  H   UNL     1     -39.515  51.952 -49.821  1.00  0.00     0.165 HD
HETATM   25  C   UNL     1     -40.183  53.581 -50.992  1.00  0.00     0.106 A 
ENDBRANCH   2  16
TORSDOF 5
ENDMDL
MODEL 9
REMARK VINA RESULT:      -7.2      1.863      2.687
REMARK  5 active torsions:
REMARK  status: ('A' for Active; 'I' for Inactive)
REMARK    1  A    between atoms: C_2  and  O_3 
REMARK    2  A    between atoms: O_3  and  C_4 
REMARK    3  A    between atoms: C_5  and  C_6 
REMARK    4  A    between atoms: N_7  and  N_8 
REMARK       I    between atoms: N_8  and  C_9 
REMARK    5  A    between atoms: C_9  and  C_10 
ROOT
HETATM    1  N   UNL     1     -42.238  55.285 -56.542  1.00  0.00    -0.243 N 
HETATM    2  C   UNL     1     -42.475  56.653 -56.604  1.00  0.00     0.274 C 
HETATM    3  O   UNL     1     -42.516  57.410 -55.637  1.00  0.00    -0.266 OA
HETATM    4  H   UNL     1     -41.907  54.847 -57.394  1.00  0.00     0.192 HD
ENDROOT
BRANCH   1   5
HETATM    5  N   UNL     1     -41.977  54.536 -55.420  1.00  0.00    -0.183 NA
HETATM    6  C   UNL     1     -40.745  54.309 -55.087  1.00  0.00     0.153 C 
BRANCH   6   7
HETATM    7  C   UNL     1     -40.414  53.459 -53.926  1.00  0.00     0.016 A 
HETATM    8  C   UNL     1     -40.620  53.920 -52.621  1.00  0.00     0.080 A 
HETATM    9  C   UNL     1     -40.391  53.068 -51.537  1.00  0.00     0.037 A 
HETATM   10  C   UNL     1     -39.912  51.774 -51.752  1.00  0.00     0.003 A 
HETATM   11  C   UNL     1     -39.669  51.326 -53.050  1.00  0.00     0.001 A 
HETATM   12  C   UNL     1     -39.920  52.165 -54.138  1.00  0.00     0.016 A 
BRANCH   8  13
HETATM   13  O   UNL     1     -41.068  55.178 -52.316  1.00  0.00    -0.351 OA
BRANCH  13  14
HETATM   14  C   UNL     1     -41.057  55.427 -50.902  1.00  0.00     0.171 C 
HETATM   15  C   UNL     1     -41.176  56.923 -50.678  1.00  0.00     0.034 C 
ENDBRANCH  13  14
ENDBRANCH   8  13
ENDBRANCH   6   7
ENDBRANCH   1   5
BRANCH   2  16
HETATM   16  C   UNL     1     -42.608  57.174 -57.969  1.00  0.00     0.061 A 
HETATM   17  C   UNL     1     -42.313  58.471 -58.525  1.00  0.00     0.008 A 
HETATM   18  C   UNL     1     -42.674  58.435 -59.875  1.00  0.00     0.043 A 
HETATM   19  C   UNL     1     -41.763  59.676 -58.027  1.00  0.00     0.015 A 
HETATM   20  C   UNL     1     -42.555  59.539 -60.729  1.00  0.00     0.030 A 
HETATM   21  N   UNL     1     -43.119  57.165 -60.149  1.00  0.00    -0.364 N 
HETATM   22  C   UNL     1     -42.040  60.723 -60.196  1.00  0.00     0.002 A 
HETATM   23  C   UNL     1     -41.642  60.790 -58.866  1.00  0.00     0.001 A 
HETATM   24  H   UNL     1     -43.427  56.847 -61.057  1.00  0.00     0.165 HD
HETATM   25  C   UNL     1     -43.071  56.399 -59.021  1.00  0.00     0.106 A 
ENDBRANCH   2  16
TORSDOF 5
ENDMDL
MODEL 10
REMARK VINA RESULT:      -7.2      3.730      5.287
REMARK  5 active torsions:
REMARK  status: ('A' for Active; 'I' for Inactive)
REMARK    1  A    between atoms: C_2  and  O_3 
REMARK    2  A    between atoms: O_3  and  C_4 
REMARK    3  A    between atoms: C_5  and  C_6 
REMARK    4  A    between atoms: N_7  and  N_8 
REMARK       I    between atoms: N_8  and  C_9 
REMARK    5  A    between atoms: C_9  and  C_10 
ROOT
HETATM    1  N   UNL     1     -41.543  57.437 -53.413  1.00  0.00    -0.243 N 
HETATM    2  C   UNL     1     -40.918  58.670 -53.264  1.00  0.00     0.274 C 
HETATM    3  O   UNL     1     -39.703  58.845 -53.207  1.00  0.00    -0.266 OA
HETATM    4  H   UNL     1     -42.491  57.454 -53.771  1.00  0.00     0.192 HD
ENDROOT
BRANCH   1   5
HETATM    5  N   UNL     1     -40.942  56.210 -53.554  1.00  0.00    -0.183 NA
HETATM    6  C   UNL     1     -41.443  55.188 -52.935  1.00  0.00     0.153 C 
BRANCH   6   7
HETATM    7  C   UNL     1     -40.797  53.863 -53.005  1.00  0.00     0.016 A 
HETATM    8  C   UNL     1     -40.096  53.350 -51.908  1.00  0.00     0.080 A 
HETATM    9  C   UNL     1     -39.573  52.056 -51.958  1.00  0.00     0.037 A 
HETATM   10  C   UNL     1     -39.708  51.290 -53.117  1.00  0.00     0.003 A 
HETATM   11  C   UNL     1     -40.372  51.813 -54.226  1.00  0.00     0.001 A 
HETATM   12  C   UNL     1     -40.918  53.097 -54.172  1.00  0.00     0.016 A 
BRANCH   8  13
HETATM   13  O   UNL     1     -39.898  54.037 -50.739  1.00  0.00    -0.351 OA
BRANCH  13  14
HETATM   14  C   UNL     1     -40.610  53.447 -49.640  1.00  0.00     0.171 C 
HETATM   15  C   UNL     1     -40.914  54.535 -48.627  1.00  0.00     0.034 C 
ENDBRANCH  13  14
ENDBRANCH   8  13
ENDBRANCH   6   7
ENDBRANCH   1   5
BRANCH   2  16
HETATM   16  C   UNL     1     -41.841  59.810 -53.253  1.00  0.00     0.061 A 
HETATM   17  C   UNL     1     -42.470  60.513 -52.163  1.00  0.00     0.008 A 
HETATM   18  C   UNL     1     -43.295  61.493 -52.724  1.00  0.00     0.043 A 
HETATM   19  C   UNL     1     -42.419  60.431 -50.752  1.00  0.00     0.015 A 
HETATM   20  C   UNL     1     -44.092  62.353 -51.957  1.00  0.00     0.030 A 
HETATM   21  N   UNL     1     -43.140  61.430 -54.087  1.00  0.00    -0.364 N 
HETATM   22  C   UNL     1     -44.043  62.222 -50.568  1.00  0.00     0.002 A 
HETATM   23  C   UNL     1     -43.213  61.280 -49.972  1.00  0.00     0.001 A 
HETATM   24  H   UNL     1     -43.603  62.040 -54.746  1.00  0.00     0.165 HD
HETATM   25  C   UNL     1     -42.263  60.438 -54.414  1.00  0.00     0.106 A 
ENDBRANCH   2  16
TORSDOF 5
ENDMDL
