MODEL 1
REMARK VINA RESULT:      -8.0      0.000      0.000
REMARK  3 active torsions:
REMARK  status: ('A' for Active; 'I' for Inactive)
REMARK    1  A    between atoms: C_2  and  C_3 
REMARK    2  A    between atoms: C_10  and  C_12 
REMARK    3  A    between atoms: C_10  and  O_11 
ROOT
HETATM    1  C   UNL     1     -40.779  58.325 -51.227  1.00  0.00    -0.058 A 
HETATM    2  C   UNL     1     -40.750  56.993 -50.785  1.00  0.00     0.020 A 
HETATM    3  C   UNL     1     -41.942  56.285 -50.732  1.00  0.00     0.018 A 
HETATM    4  C   UNL     1     -43.144  56.899 -51.091  1.00  0.00     0.045 A 
HETATM    5  N   UNL     1     -44.197  56.005 -50.977  1.00  0.00    -0.323 N 
HETATM    6  C   UNL     1     -43.760  54.748 -50.555  1.00  0.00     0.266 A 
HETATM    7  O   UNL     1     -44.498  53.791 -50.371  1.00  0.00    -0.269 OA
HETATM    8  C   UNL     1     -42.212  54.857 -50.310  1.00  0.00     0.198 A 
HETATM    9  C   UNL     1     -43.208  58.208 -51.517  1.00  0.00     0.031 A 
HETATM   10  C   UNL     1     -42.008  58.921 -51.589  1.00  0.00     0.009 A 
HETATM   11  H   UNL     1     -45.164  56.196 -51.194  1.00  0.00     0.169 HD
ENDROOT
BRANCH   8  12
HETATM   12  C   UNL     1     -41.402  53.953 -51.205  1.00  0.00     0.018 A 
HETATM   13  C   UNL     1     -41.212  54.019 -52.636  1.00  0.00     0.002 A 
HETATM   14  C   UNL     1     -40.362  52.972 -52.997  1.00  0.00     0.043 A 
HETATM   15  C   UNL     1     -41.669  54.875 -53.661  1.00  0.00     0.014 A 
HETATM   16  C   UNL     1     -39.945  52.744 -54.314  1.00  0.00     0.030 A 
HETATM   17  N   UNL     1     -40.062  52.276 -51.851  1.00  0.00    -0.365 N 
HETATM   18  C   UNL     1     -40.408  53.613 -55.304  1.00  0.00     0.002 A 
HETATM   19  C   UNL     1     -41.260  54.665 -54.984  1.00  0.00     0.001 A 
HETATM   20  H   UNL     1     -39.473  51.456 -51.816  1.00  0.00     0.165 HD
HETATM   21  C   UNL     1     -40.671  52.854 -50.776  1.00  0.00     0.100 A 
ENDBRANCH   8  12
BRANCH   8  22
HETATM   22  O   UNL     1     -41.878  54.711 -48.931  1.00  0.00    -0.371 OA
HETATM   23  H   UNL     1     -41.917  55.601 -48.544  1.00  0.00     0.212 HD
ENDBRANCH   8  22
BRANCH   1  24
HETATM   24  C   UNL     1     -39.491  59.101 -51.360  1.00  0.00     0.034 C 
HETATM   25  C   UNL     1     -39.107  59.777 -50.052  1.00  0.00     0.010 C 
ENDBRANCH   1  24
TORSDOF 3
ENDMDL
MODEL 2
REMARK VINA RESULT:      -8.0      2.342      5.082
REMARK  3 active torsions:
REMARK  status: ('A' for Active; 'I' for Inactive)
REMARK    1  A    between atoms: C_2  and  C_3 
REMARK    2  A    between atoms: C_10  and  C_12 
REMARK    3  A    between atoms: C_10  and  O_11 
ROOT
HETATM    1  C   UNL     1     -40.111  52.258 -52.932  1.00  0.00    -0.058 A 
HETATM    2  C   UNL     1     -41.191  53.068 -53.316  1.00  0.00     0.020 A 
HETATM    3  C   UNL     1     -41.780  53.885 -52.362  1.00  0.00     0.018 A 
HETATM    4  C   UNL     1     -41.316  53.880 -51.045  1.00  0.00     0.045 A 
HETATM    5  N   UNL     1     -42.036  54.779 -50.274  1.00  0.00    -0.323 N 
HETATM    6  C   UNL     1     -43.004  55.444 -51.030  1.00  0.00     0.266 A 
HETATM    7  O   UNL     1     -43.773  56.279 -50.579  1.00  0.00    -0.269 OA
HETATM    8  C   UNL     1     -42.936  54.854 -52.485  1.00  0.00     0.198 A 
HETATM    9  C   UNL     1     -40.267  53.088 -50.632  1.00  0.00     0.031 A 
HETATM   10  C   UNL     1     -39.658  52.275 -51.593  1.00  0.00     0.009 A 
HETATM   11  H   UNL     1     -41.886  54.976 -49.295  1.00  0.00     0.169 HD
ENDROOT
BRANCH   8  12
HETATM   12  C   UNL     1     -42.567  55.880 -53.527  1.00  0.00     0.018 A 
HETATM   13  C   UNL     1     -42.714  55.814 -54.963  1.00  0.00     0.002 A 
HETATM   14  C   UNL     1     -42.245  57.019 -55.490  1.00  0.00     0.043 A 
HETATM   15  C   UNL     1     -43.212  54.852 -55.869  1.00  0.00     0.014 A 
HETATM   16  C   UNL     1     -42.255  57.310 -56.860  1.00  0.00     0.030 A 
HETATM   17  N   UNL     1     -41.806  57.782 -54.436  1.00  0.00    -0.365 N 
HETATM   18  C   UNL     1     -42.761  56.341 -57.728  1.00  0.00     0.002 A 
HETATM   19  C   UNL     1     -43.233  55.127 -57.242  1.00  0.00     0.001 A 
HETATM   20  H   UNL     1     -41.401  58.703 -54.524  1.00  0.00     0.165 HD
HETATM   21  C   UNL     1     -41.997  57.117 -53.261  1.00  0.00     0.100 A 
ENDBRANCH   8  12
BRANCH   8  22
HETATM   22  O   UNL     1     -44.116  54.126 -52.821  1.00  0.00    -0.371 OA
HETATM   23  H   UNL     1     -44.057  53.930 -53.770  1.00  0.00     0.212 HD
ENDBRANCH   8  22
BRANCH   1  24
HETATM   24  C   UNL     1     -39.406  51.408 -53.961  1.00  0.00     0.034 C 
HETATM   25  C   UNL     1     -40.220  50.173 -54.320  1.00  0.00     0.010 C 
ENDBRANCH   1  24
TORSDOF 3
ENDMDL
MODEL 3
REMARK VINA RESULT:      -7.9      3.088      5.552
REMARK  3 active torsions:
REMARK  status: ('A' for Active; 'I' for Inactive)
REMARK    1  A    between atoms: C_2  and  C_3 
REMARK    2  A    between atoms: C_10  and  C_12 
REMARK    3  A    between atoms: C_10  and  O_11 
ROOT
HETATM    1  C   UNL     1     -40.770  53.175 -53.741  1.00  0.00    -0.058 A 
HETATM    2  C   UNL     1     -41.759  53.949 -54.369  1.00  0.00     0.020 A 
HETATM    3  C   UNL     1     -42.479  54.853 -53.603  1.00  0.00     0.018 A 
HETATM    4  C   UNL     1     -42.236  54.970 -52.233  1.00  0.00     0.045 A 
HETATM    5  N   UNL     1     -43.055  55.939 -51.676  1.00  0.00    -0.323 N 
HETATM    6  C   UNL     1     -43.875  56.533 -52.638  1.00  0.00     0.266 A 
HETATM    7  O   UNL     1     -44.691  57.410 -52.397  1.00  0.00    -0.269 OA
HETATM    8  C   UNL     1     -43.582  55.810 -54.002  1.00  0.00     0.198 A 
HETATM    9  C   UNL     1     -41.282  54.217 -51.584  1.00  0.00     0.031 A 
HETATM   10  C   UNL     1     -40.540  53.316 -52.353  1.00  0.00     0.009 A 
HETATM   11  H   UNL     1     -43.062  56.227 -50.709  1.00  0.00     0.169 HD
ENDROOT
BRANCH   8  12
HETATM   12  C   UNL     1     -43.030  56.732 -55.059  1.00  0.00     0.018 A 
HETATM   13  C   UNL     1     -42.958  56.540 -56.489  1.00  0.00     0.002 A 
HETATM   14  C   UNL     1     -42.381  57.686 -57.040  1.00  0.00     0.043 A 
HETATM   15  C   UNL     1     -43.339  55.507 -57.374  1.00  0.00     0.014 A 
HETATM   16  C   UNL     1     -42.174  57.853 -58.416  1.00  0.00     0.030 A 
HETATM   17  N   UNL     1     -42.087  58.534 -56.001  1.00  0.00    -0.365 N 
HETATM   18  C   UNL     1     -42.569  56.816 -59.264  1.00  0.00     0.002 A 
HETATM   19  C   UNL     1     -43.142  55.658 -58.753  1.00  0.00     0.001 A 
HETATM   20  H   UNL     1     -41.647  59.438 -56.106  1.00  0.00     0.165 HD
HETATM   21  C   UNL     1     -42.474  57.980 -54.817  1.00  0.00     0.100 A 
ENDBRANCH   8  12
BRANCH   8  22
HETATM   22  O   UNL     1     -44.705  55.056 -54.458  1.00  0.00    -0.371 OA
HETATM   23  H   UNL     1     -44.388  54.510 -55.195  1.00  0.00     0.212 HD
ENDBRANCH   8  22
BRANCH   1  24
HETATM   24  C   UNL     1     -39.923  52.230 -54.558  1.00  0.00     0.034 C 
HETATM   25  C   UNL     1     -40.246  50.776 -54.247  1.00  0.00     0.010 C 
ENDBRANCH   1  24
TORSDOF 3
ENDMDL
MODEL 4
REMARK VINA RESULT:      -7.6      2.389      4.680
REMARK  3 active torsions:
REMARK  status: ('A' for Active; 'I' for Inactive)
REMARK    1  A    between atoms: C_2  and  C_3 
REMARK    2  A    between atoms: C_10  and  C_12 
REMARK    3  A    between atoms: C_10  and  O_11 
ROOT
HETATM    1  C   UNL     1     -40.026  52.864 -51.624  1.00  0.00    -0.058 A 
HETATM    2  C   UNL     1     -41.294  53.196 -52.128  1.00  0.00     0.020 A 
HETATM    3  C   UNL     1     -42.002  54.222 -51.521  1.00  0.00     0.018 A 
HETATM    4  C   UNL     1     -41.468  54.892 -50.418  1.00  0.00     0.045 A 
HETATM    5  N   UNL     1     -42.335  55.885 -49.987  1.00  0.00    -0.323 N 
HETATM    6  C   UNL     1     -43.482  55.944 -50.782  1.00  0.00     0.266 A 
HETATM    7  O   UNL     1     -44.401  56.729 -50.602  1.00  0.00    -0.269 OA
HETATM    8  C   UNL     1     -43.365  54.794 -51.846  1.00  0.00     0.198 A 
HETATM    9  C   UNL     1     -40.233  54.584 -49.891  1.00  0.00     0.031 A 
HETATM   10  C   UNL     1     -39.507  53.562 -50.509  1.00  0.00     0.009 A 
HETATM   11  H   UNL     1     -42.175  56.521 -49.221  1.00  0.00     0.169 HD
ENDROOT
BRANCH   8  12
HETATM   12  C   UNL     1     -43.325  55.298 -53.267  1.00  0.00     0.018 A 
HETATM   13  C   UNL     1     -42.799  56.543 -53.777  1.00  0.00     0.002 A 
HETATM   14  C   UNL     1     -42.976  56.539 -55.163  1.00  0.00     0.043 A 
HETATM   15  C   UNL     1     -42.178  57.673 -53.199  1.00  0.00     0.014 A 
HETATM   16  C   UNL     1     -42.562  57.590 -55.991  1.00  0.00     0.030 A 
HETATM   17  N   UNL     1     -43.602  55.361 -55.490  1.00  0.00    -0.365 N 
HETATM   18  C   UNL     1     -41.944  58.688 -55.389  1.00  0.00     0.002 A 
HETATM   19  C   UNL     1     -41.755  58.732 -54.012  1.00  0.00     0.001 A 
HETATM   20  H   UNL     1     -43.868  55.095 -56.428  1.00  0.00     0.165 HD
HETATM   21  C   UNL     1     -43.811  54.611 -54.370  1.00  0.00     0.100 A 
ENDBRANCH   8  12
BRANCH   8  22
HETATM   22  O   UNL     1     -44.350  53.782 -51.648  1.00  0.00    -0.371 OA
HETATM   23  H   UNL     1     -43.906  53.054 -51.183  1.00  0.00     0.212 HD
ENDBRANCH   8  22
BRANCH   1  24
HETATM   24  C   UNL     1     -39.202  51.797 -52.303  1.00  0.00     0.034 C 
HETATM   25  C   UNL     1     -39.712  51.505 -53.707  1.00  0.00     0.010 C 
ENDBRANCH   1  24
TORSDOF 3
ENDMDL
MODEL 5
REMARK VINA RESULT:      -7.3      2.897      5.640
REMARK  3 active torsions:
REMARK  status: ('A' for Active; 'I' for Inactive)
REMARK    1  A    between atoms: C_2  and  C_3 
REMARK    2  A    between atoms: C_10  and  C_12 
REMARK    3  A    between atoms: C_10  and  O_11 
ROOT
HETATM    1  C   UNL     1     -40.564  51.823 -53.425  1.00  0.00    -0.058 A 
HETATM    2  C   UNL     1     -41.592  52.748 -53.668  1.00  0.00     0.020 A 
HETATM    3  C   UNL     1     -41.691  53.862 -52.847  1.00  0.00     0.018 A 
HETATM    4  C   UNL     1     -40.797  54.040 -51.789  1.00  0.00     0.045 A 
HETATM    5  N   UNL     1     -41.071  55.221 -51.117  1.00  0.00    -0.323 N 
HETATM    6  C   UNL     1     -42.145  55.902 -51.693  1.00  0.00     0.266 A 
HETATM    7  O   UNL     1     -42.586  56.964 -51.279  1.00  0.00    -0.269 OA
HETATM    8  C   UNL     1     -42.675  55.011 -52.874  1.00  0.00     0.198 A 
HETATM    9  C   UNL     1     -39.785  53.145 -51.516  1.00  0.00     0.031 A 
HETATM   10  C   UNL     1     -39.670  52.030 -52.350  1.00  0.00     0.009 A 
HETATM   11  H   UNL     1     -40.560  55.588 -50.328  1.00  0.00     0.169 HD
ENDROOT
BRANCH   8  12
HETATM   12  C   UNL     1     -42.565  55.679 -54.221  1.00  0.00     0.018 A 
HETATM   13  C   UNL     1     -43.489  56.580 -54.870  1.00  0.00     0.002 A 
HETATM   14  C   UNL     1     -42.932  56.943 -56.098  1.00  0.00     0.043 A 
HETATM   15  C   UNL     1     -44.743  57.134 -54.530  1.00  0.00     0.014 A 
HETATM   16  C   UNL     1     -43.553  57.827 -56.989  1.00  0.00     0.030 A 
HETATM   17  N   UNL     1     -41.735  56.280 -56.214  1.00  0.00    -0.365 N 
HETATM   18  C   UNL     1     -44.788  58.364 -56.619  1.00  0.00     0.002 A 
HETATM   19  C   UNL     1     -45.378  58.022 -55.407  1.00  0.00     0.001 A 
HETATM   20  H   UNL     1     -41.119  56.345 -57.012  1.00  0.00     0.165 HD
HETATM   21  C   UNL     1     -41.502  55.528 -55.100  1.00  0.00     0.100 A 
ENDBRANCH   8  12
BRANCH   8  22
HETATM   22  O   UNL     1     -43.984  54.505 -52.614  1.00  0.00    -0.371 OA
HETATM   23  H   UNL     1     -43.921  53.988 -51.794  1.00  0.00     0.212 HD
ENDBRANCH   8  22
BRANCH   1  24
HETATM   24  C   UNL     1     -40.389  50.636 -54.341  1.00  0.00     0.034 C 
HETATM   25  C   UNL     1     -39.112  49.871 -54.028  1.00  0.00     0.010 C 
ENDBRANCH   1  24
TORSDOF 3
ENDMDL
MODEL 6
REMARK VINA RESULT:      -7.3      1.919      2.699
REMARK  3 active torsions:
REMARK  status: ('A' for Active; 'I' for Inactive)
REMARK    1  A    between atoms: C_2  and  C_3 
REMARK    2  A    between atoms: C_10  and  C_12 
REMARK    3  A    between atoms: C_10  and  O_11 
ROOT
HETATM    1  C   UNL     1     -42.518  58.972 -53.242  1.00  0.00    -0.058 A 
HETATM    2  C   UNL     1     -41.990  57.745 -52.811  1.00  0.00     0.020 A 
HETATM    3  C   UNL     1     -42.789  56.911 -52.044  1.00  0.00     0.018 A 
HETATM    4  C   UNL     1     -44.083  57.302 -51.692  1.00  0.00     0.045 A 
HETATM    5  N   UNL     1     -44.701  56.313 -50.941  1.00  0.00    -0.323 N 
HETATM    6  C   UNL     1     -43.867  55.207 -50.764  1.00  0.00     0.266 A 
HETATM    7  O   UNL     1     -44.177  54.209 -50.133  1.00  0.00    -0.269 OA
HETATM    8  C   UNL     1     -42.497  55.549 -51.453  1.00  0.00     0.198 A 
HETATM    9  C   UNL     1     -44.627  58.505 -52.087  1.00  0.00     0.031 A 
HETATM   10  C   UNL     1     -43.832  59.341 -52.876  1.00  0.00     0.009 A 
HETATM   11  H   UNL     1     -45.643  56.343 -50.580  1.00  0.00     0.169 HD
ENDROOT
BRANCH   8  12
HETATM   12  C   UNL     1     -42.153  54.620 -52.590  1.00  0.00     0.018 A 
HETATM   13  C   UNL     1     -41.199  53.536 -52.625  1.00  0.00     0.002 A 
HETATM   14  C   UNL     1     -41.259  52.962 -53.897  1.00  0.00     0.043 A 
HETATM   15  C   UNL     1     -40.295  52.976 -51.696  1.00  0.00     0.014 A 
HETATM   16  C   UNL     1     -40.476  51.865 -54.280  1.00  0.00     0.030 A 
HETATM   17  N   UNL     1     -42.186  53.672 -54.621  1.00  0.00    -0.365 N 
HETATM   18  C   UNL     1     -39.599  51.330 -53.334  1.00  0.00     0.002 A 
HETATM   19  C   UNL     1     -39.507  51.877 -52.059  1.00  0.00     0.001 A 
HETATM   20  H   UNL     1     -42.426  53.484 -55.584  1.00  0.00     0.165 HD
HETATM   21  C   UNL     1     -42.730  54.658 -53.852  1.00  0.00     0.100 A 
ENDBRANCH   8  12
BRANCH   8  22
HETATM   22  O   UNL     1     -41.439  55.674 -50.504  1.00  0.00    -0.371 OA
HETATM   23  H   UNL     1     -40.671  55.219 -50.887  1.00  0.00     0.212 HD
ENDBRANCH   8  22
BRANCH   1  24
HETATM   24  C   UNL     1     -41.698  59.872 -54.134  1.00  0.00     0.034 C 
HETATM   25  C   UNL     1     -42.117  59.750 -55.592  1.00  0.00     0.010 C 
ENDBRANCH   1  24
TORSDOF 3
ENDMDL
MODEL 7
REMARK VINA RESULT:      -7.3      3.328      5.691
REMARK  3 active torsions:
REMARK  status: ('A' for Active; 'I' for Inactive)
REMARK    1  A    between atoms: C_2  and  C_3 
REMARK    2  A    between atoms: C_10  and  C_12 
REMARK    3  A    between atoms: C_10  and  O_11 
ROOT
HETATM    1  C   UNL     1     -40.715  52.982 -53.589  1.00  0.00    -0.058 A 
HETATM    2  C   UNL     1     -41.775  53.538 -54.322  1.00  0.00     0.020 A 
HETATM    3  C   UNL     1     -42.430  54.646 -53.806  1.00  0.00     0.018 A 
HETATM    4  C   UNL     1     -42.051  55.178 -52.571  1.00  0.00     0.045 A 
HETATM    5  N   UNL     1     -42.827  56.285 -52.262  1.00  0.00    -0.323 N 
HETATM    6  C   UNL     1     -43.750  56.563 -53.272  1.00  0.00     0.266 A 
HETATM    7  O   UNL     1     -44.553  57.483 -53.233  1.00  0.00    -0.269 OA
HETATM    8  C   UNL     1     -43.584  55.448 -54.367  1.00  0.00     0.198 A 
HETATM    9  C   UNL     1     -41.024  54.649 -51.821  1.00  0.00     0.031 A 
HETATM   10  C   UNL     1     -40.348  53.543 -52.345  1.00  0.00     0.009 A 
HETATM   11  H   UNL     1     -42.741  56.858 -51.436  1.00  0.00     0.169 HD
ENDROOT
BRANCH   8  12
HETATM   12  C   UNL     1     -43.159  55.989 -55.708  1.00  0.00     0.018 A 
HETATM   13  C   UNL     1     -42.747  57.327 -56.063  1.00  0.00     0.002 A 
HETATM   14  C   UNL     1     -42.432  57.325 -57.423  1.00  0.00     0.043 A 
HETATM   15  C   UNL     1     -42.598  58.542 -55.358  1.00  0.00     0.014 A 
HETATM   16  C   UNL     1     -41.975  58.460 -58.105  1.00  0.00     0.030 A 
HETATM   17  N   UNL     1     -42.662  56.055 -57.893  1.00  0.00    -0.365 N 
HETATM   18  C   UNL     1     -41.831  59.643 -57.377  1.00  0.00     0.002 A 
HETATM   19  C   UNL     1     -42.139  59.686 -56.022  1.00  0.00     0.001 A 
HETATM   20  H   UNL     1     -42.531  55.767 -58.853  1.00  0.00     0.165 HD
HETATM   21  C   UNL     1     -43.090  55.248 -56.880  1.00  0.00     0.100 A 
ENDBRANCH   8  12
BRANCH   8  22
HETATM   22  O   UNL     1     -44.734  54.608 -54.450  1.00  0.00    -0.371 OA
HETATM   23  H   UNL     1     -45.224  54.890 -55.239  1.00  0.00     0.212 HD
ENDBRANCH   8  22
BRANCH   1  24
HETATM   24  C   UNL     1     -39.938  51.818 -54.155  1.00  0.00     0.034 C 
HETATM   25  C   UNL     1     -39.586  50.803 -53.078  1.00  0.00     0.010 C 
ENDBRANCH   1  24
TORSDOF 3
ENDMDL
MODEL 8
REMARK VINA RESULT:      -7.1      2.747      5.901
REMARK  3 active torsions:
REMARK  status: ('A' for Active; 'I' for Inactive)
REMARK    1  A    between atoms: C_2  and  C_3 
REMARK    2  A    between atoms: C_10  and  C_12 
REMARK    3  A    between atoms: C_10  and  O_11 
ROOT
HETATM    1  C   UNL     1     -40.473  53.560 -51.995  1.00  0.00    -0.058 A 
HETATM    2  C   UNL     1     -40.797  54.913 -52.185  1.00  0.00     0.020 A 
HETATM    3  C   UNL     1     -41.131  55.343 -53.460  1.00  0.00     0.018 A 
HETATM    4  C   UNL     1     -41.122  54.447 -54.532  1.00  0.00     0.045 A 
HETATM    5  N   UNL     1     -41.501  55.086 -55.702  1.00  0.00    -0.323 N 
HETATM    6  C   UNL     1     -41.800  56.432 -55.477  1.00  0.00     0.266 A 
HETATM    7  O   UNL     1     -42.151  57.212 -56.350  1.00  0.00    -0.269 OA
HETATM    8  C   UNL     1     -41.524  56.717 -53.957  1.00  0.00     0.198 A 
HETATM    9  C   UNL     1     -40.797  53.116 -54.382  1.00  0.00     0.031 A 
HETATM   10  C   UNL     1     -40.476  52.673 -53.095  1.00  0.00     0.009 A 
HETATM   11  H   UNL     1     -41.592  54.658 -56.611  1.00  0.00     0.169 HD
ENDROOT
BRANCH   8  12
HETATM   12  C   UNL     1     -42.755  57.145 -53.198  1.00  0.00     0.018 A 
HETATM   13  C   UNL     1     -42.937  58.276 -52.319  1.00  0.00     0.002 A 
HETATM   14  C   UNL     1     -44.260  58.256 -51.873  1.00  0.00     0.043 A 
HETATM   15  C   UNL     1     -42.108  59.326 -51.865  1.00  0.00     0.014 A 
HETATM   16  C   UNL     1     -44.793  59.224 -51.013  1.00  0.00     0.030 A 
HETATM   17  N   UNL     1     -44.860  57.153 -52.428  1.00  0.00    -0.365 N 
HETATM   18  C   UNL     1     -43.950  60.254 -50.589  1.00  0.00     0.002 A 
HETATM   19  C   UNL     1     -42.625  60.305 -51.007  1.00  0.00     0.001 A 
HETATM   20  H   UNL     1     -45.820  56.880 -52.267  1.00  0.00     0.165 HD
HETATM   21  C   UNL     1     -43.976  56.485 -53.224  1.00  0.00     0.100 A 
ENDBRANCH   8  12
BRANCH   8  22
HETATM   22  O   UNL     1     -40.425  57.607 -53.772  1.00  0.00    -0.371 OA
HETATM   23  H   UNL     1     -40.760  58.500 -53.957  1.00  0.00     0.212 HD
ENDBRANCH   8  22
BRANCH   1  24
HETATM   24  C   UNL     1     -40.170  53.048 -50.608  1.00  0.00     0.034 C 
HETATM   25  C   UNL     1     -39.719  54.168 -49.682  1.00  0.00     0.010 C 
ENDBRANCH   1  24
TORSDOF 3
ENDMDL
MODEL 9
REMARK VINA RESULT:      -7.0      2.657      4.032
REMARK  3 active torsions:
REMARK  status: ('A' for Active; 'I' for Inactive)
REMARK    1  A    between atoms: C_2  and  C_3 
REMARK    2  A    between atoms: C_10  and  C_12 
REMARK    3  A    between atoms: C_10  and  O_11 
ROOT
HETATM    1  C   UNL     1     -41.882  58.453 -54.227  1.00  0.00    -0.058 A 
HETATM    2  C   UNL     1     -42.223  57.183 -53.735  1.00  0.00     0.020 A 
HETATM    3  C   UNL     1     -42.665  56.220 -54.630  1.00  0.00     0.018 A 
HETATM    4  C   UNL     1     -42.789  56.523 -55.988  1.00  0.00     0.045 A 
HETATM    5  N   UNL     1     -43.230  55.414 -56.693  1.00  0.00    -0.323 N 
HETATM    6  C   UNL     1     -43.410  54.312 -55.856  1.00  0.00     0.266 A 
HETATM    7  O   UNL     1     -43.800  53.218 -56.236  1.00  0.00    -0.269 OA
HETATM    8  C   UNL     1     -43.089  54.787 -54.393  1.00  0.00     0.198 A 
HETATM    9  C   UNL     1     -42.475  57.762 -56.502  1.00  0.00     0.031 A 
HETATM   10  C   UNL     1     -42.011  58.731 -55.607  1.00  0.00     0.009 A 
HETATM   11  H   UNL     1     -43.382  55.366 -57.690  1.00  0.00     0.169 HD
ENDROOT
BRANCH   8  12
HETATM   12  C   UNL     1     -41.924  54.060 -53.771  1.00  0.00     0.018 A 
HETATM   13  C   UNL     1     -41.552  53.956 -52.379  1.00  0.00     0.002 A 
HETATM   14  C   UNL     1     -40.406  53.160 -52.308  1.00  0.00     0.043 A 
HETATM   15  C   UNL     1     -42.083  54.451 -51.168  1.00  0.00     0.014 A 
HETATM   16  C   UNL     1     -39.777  52.832 -51.100  1.00  0.00     0.030 A 
HETATM   17  N   UNL     1     -40.072  52.810 -53.593  1.00  0.00    -0.365 N 
HETATM   18  C   UNL     1     -40.332  53.331 -49.920  1.00  0.00     0.002 A 
HETATM   19  C   UNL     1     -41.469  54.131 -49.951  1.00  0.00     0.001 A 
HETATM   20  H   UNL     1     -39.273  52.244 -53.843  1.00  0.00     0.165 HD
HETATM   21  C   UNL     1     -40.971  53.336 -54.474  1.00  0.00     0.100 A 
ENDBRANCH   8  12
BRANCH   8  22
HETATM   22  O   UNL     1     -44.250  54.780 -53.563  1.00  0.00    -0.371 OA
HETATM   23  H   UNL     1     -44.065  54.162 -52.837  1.00  0.00     0.212 HD
ENDBRANCH   8  22
BRANCH   1  24
HETATM   24  C   UNL     1     -41.334  59.500 -53.289  1.00  0.00     0.034 C 
HETATM   25  C   UNL     1     -41.365  59.029 -51.842  1.00  0.00     0.010 C 
ENDBRANCH   1  24
TORSDOF 3
ENDMDL
MODEL 10
REMARK VINA RESULT:      -6.8      3.249      5.989
REMARK  3 active torsions:
REMARK  status: ('A' for Active; 'I' for Inactive)
REMARK    1  A    between atoms: C_2  and  C_3 
REMARK    2  A    between atoms: C_10  and  C_12 
REMARK    3  A    between atoms: C_10  and  O_11 
ROOT
HETATM    1  C   UNL     1     -41.329  54.215 -54.040  1.00  0.00    -0.058 A 
HETATM    2  C   UNL     1     -41.324  55.614 -53.930  1.00  0.00     0.020 A 
HETATM    3  C   UNL     1     -42.454  56.316 -54.323  1.00  0.00     0.018 A 
HETATM    4  C   UNL     1     -43.560  55.638 -54.840  1.00  0.00     0.045 A 
HETATM    5  N   UNL     1     -44.574  56.532 -55.151  1.00  0.00    -0.323 N 
HETATM    6  C   UNL     1     -44.210  57.845 -54.847  1.00  0.00     0.266 A 
HETATM    7  O   UNL     1     -44.927  58.817 -55.036  1.00  0.00    -0.269 OA
HETATM    8  C   UNL     1     -42.733  57.803 -54.312  1.00  0.00     0.198 A 
HETATM    9  C   UNL     1     -43.594  54.267 -54.973  1.00  0.00     0.031 A 
HETATM   10  C   UNL     1     -42.465  53.553 -54.561  1.00  0.00     0.009 A 
HETATM   11  H   UNL     1     -45.482  56.295 -55.521  1.00  0.00     0.169 HD
ENDROOT
BRANCH   8  12
HETATM   12  C   UNL     1     -42.601  58.284 -52.890  1.00  0.00     0.018 A 
HETATM   13  C   UNL     1     -41.415  58.691 -52.172  1.00  0.00     0.002 A 
HETATM   14  C   UNL     1     -41.809  59.071 -50.887  1.00  0.00     0.043 A 
HETATM   15  C   UNL     1     -40.042  58.785 -52.491  1.00  0.00     0.014 A 
HETATM   16  C   UNL     1     -40.913  59.543 -49.919  1.00  0.00     0.030 A 
HETATM   17  N   UNL     1     -43.167  58.885 -50.806  1.00  0.00    -0.365 N 
HETATM   18  C   UNL     1     -39.564  59.632 -50.270  1.00  0.00     0.002 A 
HETATM   19  C   UNL     1     -39.132  59.257 -51.537  1.00  0.00     0.001 A 
HETATM   20  H   UNL     1     -43.723  59.067 -49.981  1.00  0.00     0.165 HD
HETATM   21  C   UNL     1     -43.652  58.422 -51.994  1.00  0.00     0.100 A 
ENDBRANCH   8  12
BRANCH   8  22
HETATM   22  O   UNL     1     -41.825  58.451 -55.201  1.00  0.00    -0.371 OA
HETATM   23  H   UNL     1     -41.134  57.801 -55.410  1.00  0.00     0.212 HD
ENDBRANCH   8  22
BRANCH   1  24
HETATM   24  C   UNL     1     -40.141  53.418 -53.558  1.00  0.00     0.034 C 
HETATM   25  C   UNL     1     -40.138  52.010 -54.136  1.00  0.00     0.010 C 
ENDBRANCH   1  24
TORSDOF 3
ENDMDL
