MODEL 1
REMARK VINA RESULT:      -8.7      0.000      0.000
REMARK  3 active torsions:
REMARK  status: ('A' for Active; 'I' for Inactive)
REMARK    1  A    between atoms: N_5  and  C_6 
REMARK    2  A    between atoms: C_7  and  C_8 
REMARK       I    between atoms: C_8  and  N_9 
REMARK    3  A    between atoms: N_9  and  N_10 
ROOT
HETATM    1  C   UNL     1     -44.229  54.622 -50.137  1.00  0.00     0.056 C 
HETATM    2  C   UNL     1     -42.998  55.192 -50.817  1.00  0.00     0.158 C 
HETATM    3  C   UNL     1     -43.331  56.327 -51.792  1.00  0.00     0.267 C 
HETATM    4  O   UNL     1     -44.113  56.224 -52.732  1.00  0.00    -0.269 OA
HETATM    5  N   UNL     1     -42.484  57.382 -51.519  1.00  0.00    -0.230 N 
HETATM    6  C   UNL     1     -41.622  57.044 -50.501  1.00  0.00     0.333 C 
HETATM    7  O   UNL     1     -40.611  57.648 -50.170  1.00  0.00    -0.246 OA
HETATM    8  N   UNL     1     -42.079  55.865 -49.905  1.00  0.00    -0.309 N 
HETATM    9  C   UNL     1     -41.183  55.055 -49.072  1.00  0.00     0.134 C 
HETATM   10  C   UNL     1     -40.228  54.190 -49.924  1.00  0.00     0.061 C 
HETATM   11  C   UNL     1     -40.923  53.693 -51.155  1.00  0.00    -0.018 A 
HETATM   12  C   UNL     1     -42.172  54.154 -51.535  1.00  0.00     0.055 A 
HETATM   13  N   UNL     1     -42.487  53.587 -52.743  1.00  0.00    -0.356 N 
HETATM   14  H   UNL     1     -43.321  53.779 -53.285  1.00  0.00     0.166 HD
HETATM   15  C   UNL     1     -41.433  52.812 -53.179  1.00  0.00     0.043 A 
HETATM   16  C   UNL     1     -40.448  52.842 -52.188  1.00  0.00    -0.001 A 
HETATM   17  C   UNL     1     -41.269  52.112 -54.380  1.00  0.00     0.030 A 
HETATM   18  C   UNL     1     -40.067  51.424 -54.572  1.00  0.00     0.002 A 
HETATM   19  C   UNL     1     -39.073  51.428 -53.597  1.00  0.00     0.001 A 
HETATM   20  C   UNL     1     -39.249  52.134 -52.401  1.00  0.00     0.014 A 
ENDROOT
BRANCH   5  21
HETATM   21  C   UNL     1     -42.191  58.331 -52.520  1.00  0.00     0.063 A 
HETATM   22  C   UNL     1     -42.457  59.696 -52.334  1.00  0.00     0.060 A 
HETATM   23  C   UNL     1     -42.364  60.581 -53.418  1.00  0.00     0.019 A 
HETATM   24  C   UNL     1     -41.976  60.114 -54.673  1.00  0.00     0.001 A 
HETATM   25  C   UNL     1     -41.666  58.766 -54.851  1.00  0.00     0.002 A 
HETATM   26  C   UNL     1     -41.771  57.875 -53.780  1.00  0.00     0.031 A 
BRANCH  22  27
HETATM   27  C   UNL     1     -42.768  60.279 -51.006  1.00  0.00     0.268 C 
HETATM   28  N   UNL     1     -44.069  60.080 -50.555  1.00  0.00    -0.290 N 
HETATM   29  H   UNL     1     -44.725  59.498 -51.076  1.00  0.00     0.183 HD
HETATM   30  O   UNL     1     -41.898  60.831 -50.338  1.00  0.00    -0.266 OA
BRANCH  28  31
HETATM   31  N   UNL     1     -44.431  60.524 -49.268  1.00  0.00    -0.247 NA
HETATM   32  H   UNL     1     -43.867  61.363 -49.076  1.00  0.00     0.143 HD
HETATM   33  H   UNL     1     -44.061  59.844 -48.595  1.00  0.00     0.143 HD
ENDBRANCH  28  31
ENDBRANCH  22  27
ENDBRANCH   5  21
TORSDOF 3
ENDMDL
MODEL 2
REMARK VINA RESULT:      -8.7      2.178      6.103
REMARK  3 active torsions:
REMARK  status: ('A' for Active; 'I' for Inactive)
REMARK    1  A    between atoms: N_5  and  C_6 
REMARK    2  A    between atoms: C_7  and  C_8 
REMARK       I    between atoms: C_8  and  N_9 
REMARK    3  A    between atoms: N_9  and  N_10 
ROOT
HETATM    1  C   UNL     1     -42.262  60.371 -51.524  1.00  0.00     0.056 C 
HETATM    2  C   UNL     1     -42.557  58.956 -51.987  1.00  0.00     0.158 C 
HETATM    3  C   UNL     1     -41.409  57.984 -51.694  1.00  0.00     0.267 C 
HETATM    4  O   UNL     1     -40.255  58.141 -52.082  1.00  0.00    -0.269 OA
HETATM    5  N   UNL     1     -41.945  56.867 -51.087  1.00  0.00    -0.230 N 
HETATM    6  C   UNL     1     -43.311  56.994 -50.985  1.00  0.00     0.333 C 
HETATM    7  O   UNL     1     -44.107  56.107 -50.712  1.00  0.00    -0.246 OA
HETATM    8  N   UNL     1     -43.656  58.319 -51.269  1.00  0.00    -0.309 N 
HETATM    9  C   UNL     1     -45.036  58.669 -51.623  1.00  0.00     0.134 C 
HETATM   10  C   UNL     1     -45.359  58.327 -53.094  1.00  0.00     0.061 C 
HETATM   11  C   UNL     1     -44.168  58.577 -53.968  1.00  0.00    -0.018 A 
HETATM   12  C   UNL     1     -42.917  58.865 -53.449  1.00  0.00     0.055 A 
HETATM   13  N   UNL     1     -42.030  58.943 -54.491  1.00  0.00    -0.356 N 
HETATM   14  H   UNL     1     -41.032  59.094 -54.405  1.00  0.00     0.166 HD
HETATM   15  C   UNL     1     -42.677  58.650 -55.673  1.00  0.00     0.043 A 
HETATM   16  C   UNL     1     -44.027  58.441 -55.375  1.00  0.00    -0.001 A 
HETATM   17  C   UNL     1     -42.167  58.531 -56.970  1.00  0.00     0.030 A 
HETATM   18  C   UNL     1     -43.061  58.191 -57.991  1.00  0.00     0.002 A 
HETATM   19  C   UNL     1     -44.412  57.987 -57.724  1.00  0.00     0.001 A 
HETATM   20  C   UNL     1     -44.908  58.108 -56.421  1.00  0.00     0.014 A 
ENDROOT
BRANCH   5  21
HETATM   21  C   UNL     1     -41.270  55.631 -51.159  1.00  0.00     0.063 A 
HETATM   22  C   UNL     1     -41.541  54.707 -52.180  1.00  0.00     0.060 A 
HETATM   23  C   UNL     1     -41.022  53.407 -52.104  1.00  0.00     0.019 A 
HETATM   24  C   UNL     1     -40.211  53.037 -51.031  1.00  0.00     0.001 A 
HETATM   25  C   UNL     1     -39.902  53.966 -50.038  1.00  0.00     0.002 A 
HETATM   26  C   UNL     1     -40.427  55.259 -50.100  1.00  0.00     0.031 A 
BRANCH  22  27
HETATM   27  C   UNL     1     -42.303  55.063 -53.402  1.00  0.00     0.268 C 
HETATM   28  N   UNL     1     -43.636  54.663 -53.412  1.00  0.00    -0.290 N 
HETATM   29  H   UNL     1     -44.064  54.232 -52.593  1.00  0.00     0.183 HD
HETATM   30  O   UNL     1     -41.791  55.730 -54.296  1.00  0.00    -0.266 OA
BRANCH  28  31
HETATM   31  N   UNL     1     -44.461  55.032 -54.494  1.00  0.00    -0.247 NA
HETATM   32  H   UNL     1     -43.945  54.795 -55.352  1.00  0.00     0.143 HD
HETATM   33  H   UNL     1     -44.487  56.057 -54.522  1.00  0.00     0.143 HD
ENDBRANCH  28  31
ENDBRANCH  22  27
ENDBRANCH   5  21
TORSDOF 3
ENDMDL
MODEL 3
REMARK VINA RESULT:      -8.6      2.466      6.237
REMARK  3 active torsions:
REMARK  status: ('A' for Active; 'I' for Inactive)
REMARK    1  A    between atoms: N_5  and  C_6 
REMARK    2  A    between atoms: C_7  and  C_8 
REMARK       I    between atoms: C_8  and  N_9 
REMARK    3  A    between atoms: N_9  and  N_10 
ROOT
HETATM    1  C   UNL     1     -41.317  59.429 -52.213  1.00  0.00     0.056 C 
HETATM    2  C   UNL     1     -42.047  58.152 -52.590  1.00  0.00     0.158 C 
HETATM    3  C   UNL     1     -41.104  56.954 -52.746  1.00  0.00     0.267 C 
HETATM    4  O   UNL     1     -40.140  56.928 -53.507  1.00  0.00    -0.269 OA
HETATM    5  N   UNL     1     -41.633  55.902 -52.027  1.00  0.00    -0.230 N 
HETATM    6  C   UNL     1     -42.825  56.276 -51.452  1.00  0.00     0.333 C 
HETATM    7  O   UNL     1     -43.656  55.534 -50.947  1.00  0.00    -0.246 OA
HETATM    8  N   UNL     1     -42.952  57.665 -51.555  1.00  0.00    -0.309 N 
HETATM    9  C   UNL     1     -44.262  58.307 -51.395  1.00  0.00     0.134 C 
HETATM   10  C   UNL     1     -45.123  58.188 -52.671  1.00  0.00     0.061 C 
HETATM   11  C   UNL     1     -44.268  58.296 -53.897  1.00  0.00    -0.018 A 
HETATM   12  C   UNL     1     -42.885  58.285 -53.837  1.00  0.00     0.055 A 
HETATM   13  N   UNL     1     -42.402  58.300 -55.119  1.00  0.00    -0.356 N 
HETATM   14  H   UNL     1     -41.424  58.248 -55.382  1.00  0.00     0.166 HD
HETATM   15  C   UNL     1     -43.454  58.261 -56.011  1.00  0.00     0.043 A 
HETATM   16  C   UNL     1     -44.638  58.283 -55.268  1.00  0.00    -0.001 A 
HETATM   17  C   UNL     1     -43.444  58.183 -57.407  1.00  0.00     0.030 A 
HETATM   18  C   UNL     1     -44.678  58.128 -58.063  1.00  0.00     0.002 A 
HETATM   19  C   UNL     1     -45.873  58.158 -57.350  1.00  0.00     0.001 A 
HETATM   20  C   UNL     1     -45.867  58.235 -55.952  1.00  0.00     0.014 A 
ENDROOT
BRANCH   5  21
HETATM   21  C   UNL     1     -41.303  54.575 -52.370  1.00  0.00     0.063 A 
HETATM   22  C   UNL     1     -40.475  53.792 -51.552  1.00  0.00     0.060 A 
HETATM   23  C   UNL     1     -39.986  52.564 -52.020  1.00  0.00     0.019 A 
HETATM   24  C   UNL     1     -40.347  52.103 -53.286  1.00  0.00     0.001 A 
HETATM   25  C   UNL     1     -41.207  52.856 -54.084  1.00  0.00     0.002 A 
HETATM   26  C   UNL     1     -41.686  54.088 -53.630  1.00  0.00     0.031 A 
BRANCH  22  27
HETATM   27  C   UNL     1     -40.140  54.168 -50.156  1.00  0.00     0.268 C 
HETATM   28  N   UNL     1     -41.174  54.029 -49.235  1.00  0.00    -0.290 N 
HETATM   29  H   UNL     1     -42.067  53.617 -49.503  1.00  0.00     0.183 HD
HETATM   30  O   UNL     1     -39.000  54.503 -49.847  1.00  0.00    -0.266 OA
BRANCH  28  31
HETATM   31  N   UNL     1     -40.924  54.281 -47.871  1.00  0.00    -0.247 NA
HETATM   32  H   UNL     1     -41.625  54.969 -47.566  1.00  0.00     0.143 HD
HETATM   33  H   UNL     1     -40.047  54.810 -47.814  1.00  0.00     0.143 HD
ENDBRANCH  28  31
ENDBRANCH  22  27
ENDBRANCH   5  21
TORSDOF 3
ENDMDL
MODEL 4
REMARK VINA RESULT:      -8.4      3.258      5.615
REMARK  3 active torsions:
REMARK  status: ('A' for Active; 'I' for Inactive)
REMARK    1  A    between atoms: N_5  and  C_6 
REMARK    2  A    between atoms: C_7  and  C_8 
REMARK       I    between atoms: C_8  and  N_9 
REMARK    3  A    between atoms: N_9  and  N_10 
ROOT
HETATM    1  C   UNL     1     -45.110  59.790 -53.184  1.00  0.00     0.056 C 
HETATM    2  C   UNL     1     -44.150  58.864 -53.908  1.00  0.00     0.158 C 
HETATM    3  C   UNL     1     -44.773  58.213 -55.147  1.00  0.00     0.267 C 
HETATM    4  O   UNL     1     -45.804  57.546 -55.133  1.00  0.00    -0.269 OA
HETATM    5  N   UNL     1     -43.893  58.372 -56.197  1.00  0.00    -0.230 N 
HETATM    6  C   UNL     1     -42.759  59.022 -55.769  1.00  0.00     0.333 C 
HETATM    7  O   UNL     1     -41.701  59.121 -56.375  1.00  0.00    -0.246 OA
HETATM    8  N   UNL     1     -43.003  59.548 -54.496  1.00  0.00    -0.309 N 
HETATM    9  C   UNL     1     -41.888  59.944 -53.628  1.00  0.00     0.134 C 
HETATM   10  C   UNL     1     -41.231  58.727 -52.940  1.00  0.00     0.061 C 
HETATM   11  C   UNL     1     -42.263  57.702 -52.582  1.00  0.00    -0.018 A 
HETATM   12  C   UNL     1     -43.573  57.786 -53.024  1.00  0.00     0.055 A 
HETATM   13  N   UNL     1     -44.236  56.659 -52.613  1.00  0.00    -0.356 N 
HETATM   14  H   UNL     1     -45.197  56.426 -52.834  1.00  0.00     0.166 HD
HETATM   15  C   UNL     1     -43.358  55.817 -51.963  1.00  0.00     0.043 A 
HETATM   16  C   UNL     1     -42.118  56.460 -51.908  1.00  0.00    -0.001 A 
HETATM   17  C   UNL     1     -43.562  54.534 -51.445  1.00  0.00     0.030 A 
HETATM   18  C   UNL     1     -42.469  53.890 -50.854  1.00  0.00     0.002 A 
HETATM   19  C   UNL     1     -41.225  54.511 -50.778  1.00  0.00     0.001 A 
HETATM   20  C   UNL     1     -41.035  55.795 -51.301  1.00  0.00     0.014 A 
ENDROOT
BRANCH   5  21
HETATM   21  C   UNL     1     -43.927  57.481 -57.290  1.00  0.00     0.063 A 
HETATM   22  C   UNL     1     -43.211  56.274 -57.273  1.00  0.00     0.060 A 
HETATM   23  C   UNL     1     -43.085  55.519 -58.447  1.00  0.00     0.019 A 
HETATM   24  C   UNL     1     -43.696  55.946 -59.625  1.00  0.00     0.001 A 
HETATM   25  C   UNL     1     -44.446  57.121 -59.635  1.00  0.00     0.002 A 
HETATM   26  C   UNL     1     -44.564  57.888 -58.473  1.00  0.00     0.031 A 
BRANCH  22  27
HETATM   27  C   UNL     1     -42.630  55.704 -56.033  1.00  0.00     0.268 C 
HETATM   28  N   UNL     1     -41.258  55.884 -55.878  1.00  0.00    -0.290 N 
HETATM   29  H   UNL     1     -40.721  56.444 -56.540  1.00  0.00     0.183 HD
HETATM   30  O   UNL     1     -43.342  55.181 -55.182  1.00  0.00    -0.266 OA
BRANCH  28  31
HETATM   31  N   UNL     1     -40.633  55.451 -54.692  1.00  0.00    -0.247 NA
HETATM   32  H   UNL     1     -39.620  55.471 -54.869  1.00  0.00     0.143 HD
HETATM   33  H   UNL     1     -40.826  54.449 -54.592  1.00  0.00     0.143 HD
ENDBRANCH  28  31
ENDBRANCH  22  27
ENDBRANCH   5  21
TORSDOF 3
ENDMDL
MODEL 5
REMARK VINA RESULT:      -8.3      2.455      6.585
REMARK  3 active torsions:
REMARK  status: ('A' for Active; 'I' for Inactive)
REMARK    1  A    between atoms: N_5  and  C_6 
REMARK    2  A    between atoms: C_7  and  C_8 
REMARK       I    between atoms: C_8  and  N_9 
REMARK    3  A    between atoms: N_9  and  N_10 
ROOT
HETATM    1  C   UNL     1     -41.214  59.880 -51.231  1.00  0.00     0.056 C 
HETATM    2  C   UNL     1     -42.021  58.905 -52.069  1.00  0.00     0.158 C 
HETATM    3  C   UNL     1     -41.189  57.715 -52.559  1.00  0.00     0.267 C 
HETATM    4  O   UNL     1     -40.156  57.816 -53.214  1.00  0.00    -0.269 OA
HETATM    5  N   UNL     1     -41.894  56.562 -52.280  1.00  0.00    -0.230 N 
HETATM    6  C   UNL     1     -43.099  56.875 -51.695  1.00  0.00     0.333 C 
HETATM    7  O   UNL     1     -44.049  56.122 -51.532  1.00  0.00    -0.246 OA
HETATM    8  N   UNL     1     -43.077  58.225 -51.327  1.00  0.00    -0.309 N 
HETATM    9  C   UNL     1     -44.327  58.941 -51.049  1.00  0.00     0.134 C 
HETATM   10  C   UNL     1     -45.052  59.363 -52.346  1.00  0.00     0.061 C 
HETATM   11  C   UNL     1     -44.063  59.758 -53.399  1.00  0.00    -0.018 A 
HETATM   12  C   UNL     1     -42.702  59.549 -53.251  1.00  0.00     0.055 A 
HETATM   13  N   UNL     1     -42.083  59.924 -54.415  1.00  0.00    -0.356 N 
HETATM   14  H   UNL     1     -41.093  59.836 -54.612  1.00  0.00     0.166 HD
HETATM   15  C   UNL     1     -43.031  60.318 -55.337  1.00  0.00     0.043 A 
HETATM   16  C   UNL     1     -44.280  60.247 -54.715  1.00  0.00    -0.001 A 
HETATM   17  C   UNL     1     -42.877  60.704 -56.673  1.00  0.00     0.030 A 
HETATM   18  C   UNL     1     -44.032  61.029 -57.392  1.00  0.00     0.002 A 
HETATM   19  C   UNL     1     -45.289  60.976 -56.795  1.00  0.00     0.001 A 
HETATM   20  C   UNL     1     -45.427  60.586 -55.458  1.00  0.00     0.014 A 
ENDROOT
BRANCH   5  21
HETATM   21  C   UNL     1     -41.661  55.391 -53.030  1.00  0.00     0.063 A 
HETATM   22  C   UNL     1     -42.409  55.098 -54.181  1.00  0.00     0.060 A 
HETATM   23  C   UNL     1     -42.310  53.833 -54.777  1.00  0.00     0.019 A 
HETATM   24  C   UNL     1     -41.446  52.874 -54.248  1.00  0.00     0.001 A 
HETATM   25  C   UNL     1     -40.668  53.177 -53.132  1.00  0.00     0.002 A 
HETATM   26  C   UNL     1     -40.772  54.430 -52.523  1.00  0.00     0.031 A 
BRANCH  22  27
HETATM   27  C   UNL     1     -43.263  56.103 -54.860  1.00  0.00     0.268 C 
HETATM   28  N   UNL     1     -44.625  56.011 -54.589  1.00  0.00    -0.290 N 
HETATM   29  H   UNL     1     -44.983  55.347 -53.904  1.00  0.00     0.183 HD
HETATM   30  O   UNL     1     -42.769  56.991 -55.548  1.00  0.00    -0.266 OA
BRANCH  28  31
HETATM   31  N   UNL     1     -45.503  56.977 -55.121  1.00  0.00    -0.247 NA
HETATM   32  H   UNL     1     -45.336  56.999 -56.136  1.00  0.00     0.143 HD
HETATM   33  H   UNL     1     -45.167  57.897 -54.816  1.00  0.00     0.143 HD
ENDBRANCH  28  31
ENDBRANCH  22  27
ENDBRANCH   5  21
TORSDOF 3
ENDMDL
MODEL 6
REMARK VINA RESULT:      -8.2      2.059      6.408
REMARK  3 active torsions:
REMARK  status: ('A' for Active; 'I' for Inactive)
REMARK    1  A    between atoms: N_5  and  C_6 
REMARK    2  A    between atoms: C_7  and  C_8 
REMARK       I    between atoms: C_8  and  N_9 
REMARK    3  A    between atoms: N_9  and  N_10 
ROOT
HETATM    1  C   UNL     1     -44.345  57.838 -55.614  1.00  0.00     0.056 C 
HETATM    2  C   UNL     1     -43.441  57.738 -54.398  1.00  0.00     0.158 C 
HETATM    3  C   UNL     1     -43.259  56.296 -53.912  1.00  0.00     0.267 C 
HETATM    4  O   UNL     1     -44.182  55.548 -53.603  1.00  0.00    -0.269 OA
HETATM    5  N   UNL     1     -41.908  56.077 -53.734  1.00  0.00    -0.230 N 
HETATM    6  C   UNL     1     -41.202  57.223 -54.018  1.00  0.00     0.333 C 
HETATM    7  O   UNL     1     -40.030  57.443 -53.750  1.00  0.00    -0.246 OA
HETATM    8  N   UNL     1     -42.059  58.124 -54.658  1.00  0.00    -0.309 N 
HETATM    9  C   UNL     1     -41.721  59.550 -54.730  1.00  0.00     0.134 C 
HETATM   10  C   UNL     1     -42.026  60.284 -53.406  1.00  0.00     0.061 C 
HETATM   11  C   UNL     1     -43.269  59.737 -52.775  1.00  0.00    -0.018 A 
HETATM   12  C   UNL     1     -43.894  58.593 -53.241  1.00  0.00     0.055 A 
HETATM   13  N   UNL     1     -44.937  58.302 -52.400  1.00  0.00    -0.356 N 
HETATM   14  H   UNL     1     -45.541  57.492 -52.469  1.00  0.00     0.166 HD
HETATM   15  C   UNL     1     -44.959  59.208 -51.361  1.00  0.00     0.043 A 
HETATM   16  C   UNL     1     -43.937  60.135 -51.586  1.00  0.00    -0.001 A 
HETATM   17  C   UNL     1     -45.786  59.260 -50.233  1.00  0.00     0.030 A 
HETATM   18  C   UNL     1     -45.564  60.289 -49.312  1.00  0.00     0.002 A 
HETATM   19  C   UNL     1     -44.560  61.232 -49.516  1.00  0.00     0.001 A 
HETATM   20  C   UNL     1     -43.739  61.167 -50.648  1.00  0.00     0.014 A 
ENDROOT
BRANCH   5  21
HETATM   21  C   UNL     1     -41.465  55.077 -52.843  1.00  0.00     0.063 A 
HETATM   22  C   UNL     1     -41.259  55.349 -51.482  1.00  0.00     0.060 A 
HETATM   23  C   UNL     1     -40.612  54.406 -50.670  1.00  0.00     0.019 A 
HETATM   24  C   UNL     1     -40.202  53.185 -51.204  1.00  0.00     0.001 A 
HETATM   25  C   UNL     1     -40.446  52.893 -52.545  1.00  0.00     0.002 A 
HETATM   26  C   UNL     1     -41.076  53.833 -53.365  1.00  0.00     0.031 A 
BRANCH  22  27
HETATM   27  C   UNL     1     -41.765  56.578 -50.824  1.00  0.00     0.268 C 
HETATM   28  N   UNL     1     -40.813  57.562 -50.581  1.00  0.00    -0.290 N 
HETATM   29  H   UNL     1     -39.854  57.464 -50.916  1.00  0.00     0.183 HD
HETATM   30  O   UNL     1     -42.961  56.722 -50.587  1.00  0.00    -0.266 OA
BRANCH  28  31
HETATM   31  N   UNL     1     -41.217  58.798 -50.038  1.00  0.00    -0.247 NA
HETATM   32  H   UNL     1     -41.670  59.321 -50.800  1.00  0.00     0.143 HD
HETATM   33  H   UNL     1     -40.369  59.346 -49.860  1.00  0.00     0.143 HD
ENDBRANCH  28  31
ENDBRANCH  22  27
ENDBRANCH   5  21
TORSDOF 3
ENDMDL
MODEL 7
REMARK VINA RESULT:      -8.0      2.796      6.941
REMARK  3 active torsions:
REMARK  status: ('A' for Active; 'I' for Inactive)
REMARK    1  A    between atoms: N_5  and  C_6 
REMARK    2  A    between atoms: C_7  and  C_8 
REMARK       I    between atoms: C_8  and  N_9 
REMARK    3  A    between atoms: N_9  and  N_10 
ROOT
HETATM    1  C   UNL     1     -42.495  60.635 -52.614  1.00  0.00     0.056 C 
HETATM    2  C   UNL     1     -42.768  59.493 -53.576  1.00  0.00     0.158 C 
HETATM    3  C   UNL     1     -41.777  58.335 -53.419  1.00  0.00     0.267 C 
HETATM    4  O   UNL     1     -40.557  58.452 -53.506  1.00  0.00    -0.269 OA
HETATM    5  N   UNL     1     -42.502  57.164 -53.339  1.00  0.00    -0.230 N 
HETATM    6  C   UNL     1     -43.846  57.432 -53.460  1.00  0.00     0.333 C 
HETATM    7  O   UNL     1     -44.737  56.619 -53.658  1.00  0.00    -0.246 OA
HETATM    8  N   UNL     1     -44.036  58.812 -53.337  1.00  0.00    -0.309 N 
HETATM    9  C   UNL     1     -45.278  59.437 -53.805  1.00  0.00     0.134 C 
HETATM   10  C   UNL     1     -45.288  59.627 -55.338  1.00  0.00     0.061 C 
HETATM   11  C   UNL     1     -43.920  59.981 -55.834  1.00  0.00    -0.018 A 
HETATM   12  C   UNL     1     -42.800  59.920 -55.022  1.00  0.00     0.055 A 
HETATM   13  N   UNL     1     -41.700  60.206 -55.789  1.00  0.00    -0.356 N 
HETATM   14  H   UNL     1     -40.738  60.188 -55.471  1.00  0.00     0.166 HD
HETATM   15  C   UNL     1     -42.086  60.393 -57.100  1.00  0.00     0.043 A 
HETATM   16  C   UNL     1     -43.479  60.282 -57.150  1.00  0.00    -0.001 A 
HETATM   17  C   UNL     1     -41.309  60.626 -58.240  1.00  0.00     0.030 A 
HETATM   18  C   UNL     1     -41.974  60.750 -59.464  1.00  0.00     0.002 A 
HETATM   19  C   UNL     1     -43.361  60.654 -59.543  1.00  0.00     0.001 A 
HETATM   20  C   UNL     1     -44.125  60.419 -58.394  1.00  0.00     0.014 A 
ENDROOT
BRANCH   5  21
HETATM   21  C   UNL     1     -41.907  55.937 -53.698  1.00  0.00     0.063 A 
HETATM   22  C   UNL     1     -41.774  54.890 -52.773  1.00  0.00     0.060 A 
HETATM   23  C   UNL     1     -40.986  53.774 -53.087  1.00  0.00     0.019 A 
HETATM   24  C   UNL     1     -40.360  53.685 -54.330  1.00  0.00     0.001 A 
HETATM   25  C   UNL     1     -40.526  54.702 -55.269  1.00  0.00     0.002 A 
HETATM   26  C   UNL     1     -41.297  55.825 -54.957  1.00  0.00     0.031 A 
BRANCH  22  27
HETATM   27  C   UNL     1     -42.498  54.867 -51.479  1.00  0.00     0.268 C 
HETATM   28  N   UNL     1     -43.817  54.425 -51.540  1.00  0.00    -0.290 N 
HETATM   29  H   UNL     1     -44.214  54.066 -52.408  1.00  0.00     0.183 HD
HETATM   30  O   UNL     1     -41.929  55.151 -50.429  1.00  0.00    -0.266 OA
BRANCH  28  31
HETATM   31  N   UNL     1     -44.557  54.288 -50.348  1.00  0.00    -0.247 NA
HETATM   32  H   UNL     1     -43.996  53.696 -49.720  1.00  0.00     0.143 HD
HETATM   33  H   UNL     1     -45.366  53.693 -50.558  1.00  0.00     0.143 HD
ENDBRANCH  28  31
ENDBRANCH  22  27
ENDBRANCH   5  21
TORSDOF 3
ENDMDL
MODEL 8
REMARK VINA RESULT:      -8.0      2.166      7.318
REMARK  3 active torsions:
REMARK  status: ('A' for Active; 'I' for Inactive)
REMARK    1  A    between atoms: N_5  and  C_6 
REMARK    2  A    between atoms: C_7  and  C_8 
REMARK       I    between atoms: C_8  and  N_9 
REMARK    3  A    between atoms: N_9  and  N_10 
ROOT
HETATM    1  C   UNL     1     -45.046  58.047 -54.447  1.00  0.00     0.056 C 
HETATM    2  C   UNL     1     -43.907  58.193 -53.455  1.00  0.00     0.158 C 
HETATM    3  C   UNL     1     -43.600  56.890 -52.709  1.00  0.00     0.267 C 
HETATM    4  O   UNL     1     -44.425  56.256 -52.056  1.00  0.00    -0.269 OA
HETATM    5  N   UNL     1     -42.238  56.677 -52.771  1.00  0.00    -0.230 N 
HETATM    6  C   UNL     1     -41.629  57.711 -53.443  1.00  0.00     0.333 C 
HETATM    7  O   UNL     1     -40.431  57.952 -53.480  1.00  0.00    -0.246 OA
HETATM    8  N   UNL     1     -42.617  58.473 -54.075  1.00  0.00    -0.309 N 
HETATM    9  C   UNL     1     -42.328  59.837 -54.531  1.00  0.00     0.134 C 
HETATM   10  C   UNL     1     -42.364  60.854 -53.370  1.00  0.00     0.061 C 
HETATM   11  C   UNL     1     -43.438  60.497 -52.388  1.00  0.00    -0.018 A 
HETATM   12  C   UNL     1     -44.125  59.296 -52.449  1.00  0.00     0.055 A 
HETATM   13  N   UNL     1     -44.963  59.228 -51.366  1.00  0.00    -0.356 N 
HETATM   14  H   UNL     1     -45.553  58.440 -51.126  1.00  0.00     0.166 HD
HETATM   15  C   UNL     1     -44.784  60.342 -50.573  1.00  0.00     0.043 A 
HETATM   16  C   UNL     1     -43.850  61.167 -51.206  1.00  0.00    -0.001 A 
HETATM   17  C   UNL     1     -45.359  60.666 -49.339  1.00  0.00     0.030 A 
HETATM   18  C   UNL     1     -44.969  61.866 -48.736  1.00  0.00     0.002 A 
HETATM   19  C   UNL     1     -44.047  62.712 -49.349  1.00  0.00     0.001 A 
HETATM   20  C   UNL     1     -43.480  62.374 -50.583  1.00  0.00     0.014 A 
ENDROOT
BRANCH   5  21
HETATM   21  C   UNL     1     -41.600  55.888 -51.792  1.00  0.00     0.063 A 
HETATM   22  C   UNL     1     -41.197  54.571 -52.063  1.00  0.00     0.060 A 
HETATM   23  C   UNL     1     -40.770  53.741 -51.017  1.00  0.00     0.019 A 
HETATM   24  C   UNL     1     -40.716  54.229 -49.712  1.00  0.00     0.001 A 
HETATM   25  C   UNL     1     -41.073  55.549 -49.446  1.00  0.00     0.002 A 
HETATM   26  C   UNL     1     -41.513  56.379 -50.480  1.00  0.00     0.031 A 
BRANCH  22  27
HETATM   27  C   UNL     1     -41.125  54.022 -53.439  1.00  0.00     0.268 C 
HETATM   28  N   UNL     1     -40.266  54.691 -54.305  1.00  0.00    -0.290 N 
HETATM   29  H   UNL     1     -39.671  55.451 -53.977  1.00  0.00     0.183 HD
HETATM   30  O   UNL     1     -41.733  53.001 -53.745  1.00  0.00    -0.266 OA
BRANCH  28  31
HETATM   31  N   UNL     1     -40.067  54.189 -55.607  1.00  0.00    -0.247 NA
HETATM   32  H   UNL     1     -39.756  53.214 -55.503  1.00  0.00     0.143 HD
HETATM   33  H   UNL     1     -39.236  54.652 -55.990  1.00  0.00     0.143 HD
ENDBRANCH  28  31
ENDBRANCH  22  27
ENDBRANCH   5  21
TORSDOF 3
ENDMDL
MODEL 9
REMARK VINA RESULT:      -8.0      3.649      5.609
REMARK  3 active torsions:
REMARK  status: ('A' for Active; 'I' for Inactive)
REMARK    1  A    between atoms: N_5  and  C_6 
REMARK    2  A    between atoms: C_7  and  C_8 
REMARK       I    between atoms: C_8  and  N_9 
REMARK    3  A    between atoms: N_9  and  N_10 
ROOT
HETATM    1  C   UNL     1     -45.484  59.615 -52.637  1.00  0.00     0.056 C 
HETATM    2  C   UNL     1     -44.281  58.903 -53.227  1.00  0.00     0.158 C 
HETATM    3  C   UNL     1     -44.607  58.170 -54.533  1.00  0.00     0.267 C 
HETATM    4  O   UNL     1     -45.484  57.319 -54.647  1.00  0.00    -0.269 OA
HETATM    5  N   UNL     1     -43.647  58.514 -55.463  1.00  0.00    -0.230 N 
HETATM    6  C   UNL     1     -42.722  59.360 -54.896  1.00  0.00     0.333 C 
HETATM    7  O   UNL     1     -41.635  59.670 -55.362  1.00  0.00    -0.246 OA
HETATM    8  N   UNL     1     -43.221  59.804 -53.668  1.00  0.00    -0.309 N 
HETATM    9  C   UNL     1     -42.322  60.388 -52.666  1.00  0.00     0.134 C 
HETATM   10  C   UNL     1     -41.536  59.306 -51.894  1.00  0.00     0.061 C 
HETATM   11  C   UNL     1     -42.390  58.096 -51.666  1.00  0.00    -0.018 A 
HETATM   12  C   UNL     1     -43.625  57.938 -52.272  1.00  0.00     0.055 A 
HETATM   13  N   UNL     1     -44.106  56.697 -51.943  1.00  0.00    -0.356 N 
HETATM   14  H   UNL     1     -44.970  56.290 -52.284  1.00  0.00     0.166 HD
HETATM   15  C   UNL     1     -43.173  56.026 -51.182  1.00  0.00     0.043 A 
HETATM   16  C   UNL     1     -42.096  56.892 -50.973  1.00  0.00    -0.001 A 
HETATM   17  C   UNL     1     -43.191  54.717 -50.689  1.00  0.00     0.030 A 
HETATM   18  C   UNL     1     -42.079  54.282 -49.960  1.00  0.00     0.002 A 
HETATM   19  C   UNL     1     -40.997  55.126 -49.728  1.00  0.00     0.001 A 
HETATM   20  C   UNL     1     -40.992  56.433 -50.229  1.00  0.00     0.014 A 
ENDROOT
BRANCH   5  21
HETATM   21  C   UNL     1     -43.372  57.655 -56.546  1.00  0.00     0.063 A 
HETATM   22  C   UNL     1     -43.661  58.027 -57.868  1.00  0.00     0.060 A 
HETATM   23  C   UNL     1     -43.584  57.077 -58.896  1.00  0.00     0.019 A 
HETATM   24  C   UNL     1     -43.191  55.769 -58.614  1.00  0.00     0.001 A 
HETATM   25  C   UNL     1     -42.859  55.406 -57.309  1.00  0.00     0.002 A 
HETATM   26  C   UNL     1     -42.948  56.344 -56.277  1.00  0.00     0.031 A 
BRANCH  22  27
HETATM   27  C   UNL     1     -43.978  59.423 -58.257  1.00  0.00     0.268 C 
HETATM   28  N   UNL     1     -42.882  60.270 -58.391  1.00  0.00    -0.290 N 
HETATM   29  H   UNL     1     -41.929  59.917 -58.307  1.00  0.00     0.183 HD
HETATM   30  O   UNL     1     -45.130  59.763 -58.510  1.00  0.00    -0.266 OA
BRANCH  28  31
HETATM   31  N   UNL     1     -43.079  61.591 -58.840  1.00  0.00    -0.247 NA
HETATM   32  H   UNL     1     -43.962  61.594 -59.368  1.00  0.00     0.143 HD
HETATM   33  H   UNL     1     -42.380  61.774 -59.567  1.00  0.00     0.143 HD
ENDBRANCH  28  31
ENDBRANCH  22  27
ENDBRANCH   5  21
TORSDOF 3
ENDMDL
MODEL 10
REMARK VINA RESULT:      -7.9      2.369      4.811
REMARK  3 active torsions:
REMARK  status: ('A' for Active; 'I' for Inactive)
REMARK    1  A    between atoms: N_5  and  C_6 
REMARK    2  A    between atoms: C_7  and  C_8 
REMARK       I    between atoms: C_8  and  N_9 
REMARK    3  A    between atoms: N_9  and  N_10 
ROOT
HETATM    1  C   UNL     1     -42.264  58.671 -56.434  1.00  0.00     0.056 C 
HETATM    2  C   UNL     1     -42.850  58.702 -55.034  1.00  0.00     0.158 C 
HETATM    3  C   UNL     1     -42.330  59.878 -54.199  1.00  0.00     0.267 C 
HETATM    4  O   UNL     1     -41.142  60.098 -53.981  1.00  0.00    -0.269 OA
HETATM    5  N   UNL     1     -43.418  60.504 -53.627  1.00  0.00    -0.230 N 
HETATM    6  C   UNL     1     -44.576  59.847 -53.971  1.00  0.00     0.333 C 
HETATM    7  O   UNL     1     -45.678  59.995 -53.461  1.00  0.00    -0.246 OA
HETATM    8  N   UNL     1     -44.287  58.948 -55.003  1.00  0.00    -0.309 N 
HETATM    9  C   UNL     1     -45.205  57.845 -55.308  1.00  0.00     0.134 C 
HETATM   10  C   UNL     1     -45.049  56.672 -54.316  1.00  0.00     0.061 C 
HETATM   11  C   UNL     1     -43.613  56.498 -53.926  1.00  0.00    -0.018 A 
HETATM   12  C   UNL     1     -42.638  57.422 -54.265  1.00  0.00     0.055 A 
HETATM   13  N   UNL     1     -41.459  57.031 -53.685  1.00  0.00    -0.356 N 
HETATM   14  H   UNL     1     -40.585  57.543 -53.722  1.00  0.00     0.166 HD
HETATM   15  C   UNL     1     -41.671  55.900 -52.925  1.00  0.00     0.043 A 
HETATM   16  C   UNL     1     -43.010  55.530 -53.080  1.00  0.00    -0.001 A 
HETATM   17  C   UNL     1     -40.788  55.196 -52.098  1.00  0.00     0.030 A 
HETATM   18  C   UNL     1     -41.287  54.084 -51.413  1.00  0.00     0.002 A 
HETATM   19  C   UNL     1     -42.615  53.687 -51.556  1.00  0.00     0.001 A 
HETATM   20  C   UNL     1     -43.486  54.402 -52.385  1.00  0.00     0.014 A 
ENDROOT
BRANCH   5  21
HETATM   21  C   UNL     1     -43.258  61.258 -52.446  1.00  0.00     0.063 A 
HETATM   22  C   UNL     1     -43.372  60.667 -51.178  1.00  0.00     0.060 A 
HETATM   23  C   UNL     1     -43.430  61.473 -50.033  1.00  0.00     0.019 A 
HETATM   24  C   UNL     1     -43.342  62.861 -50.146  1.00  0.00     0.001 A 
HETATM   25  C   UNL     1     -43.183  63.449 -51.400  1.00  0.00     0.002 A 
HETATM   26  C   UNL     1     -43.140  62.654 -52.548  1.00  0.00     0.031 A 
BRANCH  22  27
HETATM   27  C   UNL     1     -43.360  59.198 -50.975  1.00  0.00     0.268 C 
HETATM   28  N   UNL     1     -44.602  58.617 -50.739  1.00  0.00    -0.290 N 
HETATM   29  H   UNL     1     -45.461  59.166 -50.791  1.00  0.00     0.183 HD
HETATM   30  O   UNL     1     -42.322  58.552 -51.085  1.00  0.00    -0.266 OA
BRANCH  28  31
HETATM   31  N   UNL     1     -44.700  57.216 -50.620  1.00  0.00    -0.247 NA
HETATM   32  H   UNL     1     -44.279  56.818 -51.470  1.00  0.00     0.143 HD
HETATM   33  H   UNL     1     -45.690  56.969 -50.721  1.00  0.00     0.143 HD
ENDBRANCH  28  31
ENDBRANCH  22  27
ENDBRANCH   5  21
TORSDOF 3
ENDMDL
