MODEL 1
REMARK VINA RESULT:      -7.8      0.000      0.000
REMARK  8 active torsions:
REMARK  status: ('A' for Active; 'I' for Inactive)
REMARK    1  A    between atoms: C_3  and  N_4 
REMARK    2  A    between atoms: N_7  and  C_9 
REMARK    3  A    between atoms: C_9  and  C_10 
REMARK    4  A    between atoms: C_10  and  C_11 
REMARK    5  A    between atoms: C_11  and  N_12 
REMARK       I    between atoms: N_12  and  C_13 
REMARK    6  A    between atoms: C_13  and  C_14 
REMARK    7  A    between atoms: C_14  and  O_15 
REMARK    8  A    between atoms: O_15  and  C_16 
ROOT
HETATM    1  C   UNL     1     -43.378  58.358 -51.341  1.00  0.00     0.236 C 
ENDROOT
BRANCH   1   2
HETATM    2  N   UNL     1     -42.933  56.912 -51.273  1.00  0.00    -0.069 N 
HETATM    3  C   UNL     1     -43.412  56.079 -52.477  1.00  0.00     0.249 C 
HETATM    4  C   UNL     1     -42.854  54.640 -52.424  1.00  0.00     0.123 C 
HETATM    5  N   UNL     1     -41.382  54.689 -52.322  1.00  0.00    -0.280 NA
HETATM    6  C   UNL     1     -40.903  55.383 -51.116  1.00  0.00     0.123 C 
HETATM    7  C   UNL     1     -41.400  56.842 -51.141  1.00  0.00     0.249 C 
HETATM    8  H   UNL     1     -43.330  56.481 -50.427  1.00  0.00     0.280 HD
BRANCH   5   9
HETATM    9  C   UNL     1     -40.758  53.476 -52.660  1.00  0.00     0.018 A 
HETATM   10  C   UNL     1     -40.410  53.212 -54.006  1.00  0.00    -0.041 A 
HETATM   11  C   UNL     1     -40.671  54.201 -55.113  1.00  0.00     0.050 C 
HETATM   12  C   UNL     1     -39.808  51.989 -54.351  1.00  0.00     0.010 A 
HETATM   13  C   UNL     1     -39.514  51.038 -53.378  1.00  0.00     0.024 A 
HETATM   14  C   UNL     1     -39.833  51.302 -52.053  1.00  0.00     0.035 A 
HETATM   15  C   UNL     1     -40.452  52.502 -51.695  1.00  0.00     0.048 A 
HETATM   16 CL   UNL     1     -39.470  50.138 -50.838  1.00  0.00    -0.084 Cl
ENDBRANCH   5   9
ENDBRANCH   1   2
BRANCH   1  17
HETATM   17  C   UNL     1     -44.202  58.640 -52.588  1.00  0.00     0.047 C 
BRANCH  17  18
HETATM   18  C   UNL     1     -43.831  60.009 -53.161  1.00  0.00     0.124 C 
BRANCH  18  19
HETATM   19  N   UNL     1     -43.635  59.973 -54.590  1.00  0.00    -0.359 N 
HETATM   20  C   UNL     1     -42.369  59.973 -55.145  1.00  0.00     0.241 C 
HETATM   21  O   UNL     1     -41.356  59.821 -54.464  1.00  0.00    -0.271 OA
HETATM   22  H   UNL     1     -44.393  60.229 -55.220  1.00  0.00     0.162 HD
BRANCH  20  23
HETATM   23  C   UNL     1     -42.327  60.198 -56.658  1.00  0.00     0.278 C 
BRANCH  23  24
HETATM   24  O   UNL     1     -41.502  59.215 -57.279  1.00  0.00    -0.342 OA
BRANCH  24  25
HETATM   25  C   UNL     1     -42.130  58.123 -57.811  1.00  0.00     0.069 A 
HETATM   26  C   UNL     1     -42.559  56.997 -57.107  1.00  0.00     0.038 A 
HETATM   27  C   UNL     1     -43.181  55.941 -57.784  1.00  0.00     0.026 A 
HETATM   28  C   UNL     1     -43.375  56.012 -59.162  1.00  0.00     0.034 A 
HETATM   29 CL   UNL     1     -44.139  54.713 -59.988  1.00  0.00    -0.084 Cl
HETATM   30  C   UNL     1     -42.950  57.131 -59.872  1.00  0.00     0.026 A 
HETATM   31  C   UNL     1     -42.326  58.182 -59.195  1.00  0.00     0.038 A 
ENDBRANCH  24  25
ENDBRANCH  23  24
ENDBRANCH  20  23
ENDBRANCH  18  19
ENDBRANCH  17  18
ENDBRANCH   1  17
TORSDOF 8
ENDMDL
MODEL 2
REMARK VINA RESULT:      -7.8      1.066      1.492
REMARK  8 active torsions:
REMARK  status: ('A' for Active; 'I' for Inactive)
REMARK    1  A    between atoms: C_3  and  N_4 
REMARK    2  A    between atoms: N_7  and  C_9 
REMARK    3  A    between atoms: C_9  and  C_10 
REMARK    4  A    between atoms: C_10  and  C_11 
REMARK    5  A    between atoms: C_11  and  N_12 
REMARK       I    between atoms: N_12  and  C_13 
REMARK    6  A    between atoms: C_13  and  C_14 
REMARK    7  A    between atoms: C_14  and  O_15 
REMARK    8  A    between atoms: O_15  and  C_16 
ROOT
HETATM    1  C   UNL     1     -43.225  58.265 -51.382  1.00  0.00     0.236 C 
ENDROOT
BRANCH   1   2
HETATM    2  N   UNL     1     -42.836  56.804 -51.312  1.00  0.00    -0.069 N 
HETATM    3  C   UNL     1     -43.281  56.003 -52.551  1.00  0.00     0.249 C 
HETATM    4  C   UNL     1     -42.777  54.545 -52.490  1.00  0.00     0.123 C 
HETATM    5  N   UNL     1     -41.311  54.540 -52.313  1.00  0.00    -0.280 NA
HETATM    6  C   UNL     1     -40.870  55.201 -51.074  1.00  0.00     0.123 C 
HETATM    7  C   UNL     1     -41.315  56.678 -51.104  1.00  0.00     0.249 C 
HETATM    8  H   UNL     1     -43.290  56.377 -50.494  1.00  0.00     0.280 HD
BRANCH   5   9
HETATM    9  C   UNL     1     -40.714  53.310 -52.635  1.00  0.00     0.018 A 
HETATM   10  C   UNL     1     -40.403  53.008 -53.983  1.00  0.00    -0.041 A 
HETATM   11  C   UNL     1     -40.677  53.973 -55.108  1.00  0.00     0.050 C 
HETATM   12  C   UNL     1     -39.827  51.768 -54.312  1.00  0.00     0.010 A 
HETATM   13  C   UNL     1     -39.523  50.836 -53.323  1.00  0.00     0.024 A 
HETATM   14  C   UNL     1     -39.805  51.137 -51.998  1.00  0.00     0.035 A 
HETATM   15  C   UNL     1     -40.398  52.355 -51.655  1.00  0.00     0.048 A 
HETATM   16 CL   UNL     1     -39.429  49.999 -50.764  1.00  0.00    -0.084 Cl
ENDBRANCH   5   9
ENDBRANCH   1   2
BRANCH   1  17
HETATM   17  C   UNL     1     -42.012  59.169 -51.543  1.00  0.00     0.047 C 
BRANCH  17  18
HETATM   18  C   UNL     1     -42.022  59.815 -52.930  1.00  0.00     0.124 C 
BRANCH  18  19
HETATM   19  N   UNL     1     -41.800  58.857 -53.985  1.00  0.00    -0.359 N 
HETATM   20  C   UNL     1     -42.616  58.807 -55.099  1.00  0.00     0.241 C 
HETATM   21  O   UNL     1     -43.451  59.678 -55.338  1.00  0.00    -0.271 OA
HETATM   22  H   UNL     1     -41.232  58.028 -53.816  1.00  0.00     0.162 HD
BRANCH  20  23
HETATM   23  C   UNL     1     -42.416  57.581 -55.992  1.00  0.00     0.278 C 
BRANCH  23  24
HETATM   24  O   UNL     1     -42.114  57.987 -57.325  1.00  0.00    -0.342 OA
BRANCH  24  25
HETATM   25  C   UNL     1     -42.800  57.368 -58.334  1.00  0.00     0.069 A 
HETATM   26  C   UNL     1     -43.280  57.976 -59.495  1.00  0.00     0.038 A 
HETATM   27  C   UNL     1     -43.981  57.221 -60.444  1.00  0.00     0.026 A 
HETATM   28  C   UNL     1     -44.199  55.862 -60.233  1.00  0.00     0.034 A 
HETATM   29 CL   UNL     1     -45.059  54.940 -61.401  1.00  0.00    -0.084 Cl
HETATM   30  C   UNL     1     -43.723  55.248 -59.078  1.00  0.00     0.026 A 
HETATM   31  C   UNL     1     -43.028  56.003 -58.130  1.00  0.00     0.038 A 
ENDBRANCH  24  25
ENDBRANCH  23  24
ENDBRANCH  20  23
ENDBRANCH  18  19
ENDBRANCH  17  18
ENDBRANCH   1  17
TORSDOF 8
ENDMDL
MODEL 3
REMARK VINA RESULT:      -7.8      1.977      2.746
REMARK  8 active torsions:
REMARK  status: ('A' for Active; 'I' for Inactive)
REMARK    1  A    between atoms: C_3  and  N_4 
REMARK    2  A    between atoms: N_7  and  C_9 
REMARK    3  A    between atoms: C_9  and  C_10 
REMARK    4  A    between atoms: C_10  and  C_11 
REMARK    5  A    between atoms: C_11  and  N_12 
REMARK       I    between atoms: N_12  and  C_13 
REMARK    6  A    between atoms: C_13  and  C_14 
REMARK    7  A    between atoms: C_14  and  O_15 
REMARK    8  A    between atoms: O_15  and  C_16 
ROOT
HETATM    1  C   UNL     1     -43.492  58.063 -55.170  1.00  0.00     0.236 C 
ENDROOT
BRANCH   1   2
HETATM    2  N   UNL     1     -42.696  56.775 -55.159  1.00  0.00    -0.069 N 
HETATM    3  C   UNL     1     -41.372  56.894 -54.380  1.00  0.00     0.249 C 
HETATM    4  C   UNL     1     -40.640  55.536 -54.305  1.00  0.00     0.123 C 
HETATM    5  N   UNL     1     -41.546  54.523 -53.726  1.00  0.00    -0.280 NA
HETATM    6  C   UNL     1     -42.767  54.311 -54.519  1.00  0.00     0.123 C 
HETATM    7  C   UNL     1     -43.558  55.633 -54.591  1.00  0.00     0.249 C 
HETATM    8  H   UNL     1     -42.459  56.522 -56.127  1.00  0.00     0.280 HD
BRANCH   5   9
HETATM    9  C   UNL     1     -40.877  53.381 -53.254  1.00  0.00     0.018 A 
HETATM   10  C   UNL     1     -40.484  53.304 -51.896  1.00  0.00    -0.041 A 
HETATM   11  C   UNL     1     -40.771  54.409 -50.911  1.00  0.00     0.050 C 
HETATM   12  C   UNL     1     -39.793  52.173 -51.425  1.00  0.00     0.010 A 
HETATM   13  C   UNL     1     -39.516  51.103 -52.271  1.00  0.00     0.024 A 
HETATM   14  C   UNL     1     -39.919  51.164 -53.597  1.00  0.00     0.035 A 
HETATM   15  C   UNL     1     -40.586  52.289 -54.088  1.00  0.00     0.048 A 
HETATM   16 CL   UNL     1     -39.588  49.845 -54.653  1.00  0.00    -0.084 Cl
ENDBRANCH   5   9
ENDBRANCH   1   2
BRANCH   1  17
HETATM   17  C   UNL     1     -42.791  59.169 -54.394  1.00  0.00     0.047 C 
BRANCH  17  18
HETATM   18  C   UNL     1     -42.139  60.155 -55.365  1.00  0.00     0.124 C 
BRANCH  18  19
HETATM   19  N   UNL     1     -42.641  60.018 -56.710  1.00  0.00    -0.359 N 
HETATM   20  C   UNL     1     -42.001  60.607 -57.783  1.00  0.00     0.241 C 
HETATM   21  O   UNL     1     -40.887  61.118 -57.681  1.00  0.00    -0.271 OA
HETATM   22  H   UNL     1     -43.607  59.736 -56.872  1.00  0.00     0.162 HD
BRANCH  20  23
HETATM   23  C   UNL     1     -42.791  60.593 -59.094  1.00  0.00     0.278 C 
BRANCH  23  24
HETATM   24  O   UNL     1     -42.226  59.646 -59.999  1.00  0.00    -0.342 OA
BRANCH  24  25
HETATM   25  C   UNL     1     -42.741  58.380 -59.974  1.00  0.00     0.069 A 
HETATM   26  C   UNL     1     -42.013  57.199 -59.815  1.00  0.00     0.038 A 
HETATM   27  C   UNL     1     -42.671  55.963 -59.820  1.00  0.00     0.026 A 
HETATM   28  C   UNL     1     -44.053  55.908 -59.982  1.00  0.00     0.034 A 
HETATM   29 CL   UNL     1     -44.856  54.388 -59.988  1.00  0.00    -0.084 Cl
HETATM   30  C   UNL     1     -44.787  57.081 -60.141  1.00  0.00     0.026 A 
HETATM   31  C   UNL     1     -44.128  58.313 -60.139  1.00  0.00     0.038 A 
ENDBRANCH  24  25
ENDBRANCH  23  24
ENDBRANCH  20  23
ENDBRANCH  18  19
ENDBRANCH  17  18
ENDBRANCH   1  17
TORSDOF 8
ENDMDL
MODEL 4
REMARK VINA RESULT:      -7.7      2.129      6.904
REMARK  8 active torsions:
REMARK  status: ('A' for Active; 'I' for Inactive)
REMARK    1  A    between atoms: C_3  and  N_4 
REMARK    2  A    between atoms: N_7  and  C_9 
REMARK    3  A    between atoms: C_9  and  C_10 
REMARK    4  A    between atoms: C_10  and  C_11 
REMARK    5  A    between atoms: C_11  and  N_12 
REMARK       I    between atoms: N_12  and  C_13 
REMARK    6  A    between atoms: C_13  and  C_14 
REMARK    7  A    between atoms: C_14  and  O_15 
REMARK    8  A    between atoms: O_15  and  C_16 
ROOT
HETATM    1  C   UNL     1     -42.170  60.008 -52.541  1.00  0.00     0.236 C 
ENDROOT
BRANCH   1   2
HETATM    2  N   UNL     1     -42.691  59.104 -53.639  1.00  0.00    -0.069 N 
HETATM    3  C   UNL     1     -43.404  59.877 -54.766  1.00  0.00     0.249 C 
HETATM    4  C   UNL     1     -43.828  58.934 -55.912  1.00  0.00     0.123 C 
HETATM    5  N   UNL     1     -42.649  58.190 -56.397  1.00  0.00    -0.280 NA
HETATM    6  C   UNL     1     -42.020  57.354 -55.363  1.00  0.00     0.123 C 
HETATM    7  C   UNL     1     -41.539  58.256 -54.208  1.00  0.00     0.249 C 
HETATM    8  H   UNL     1     -43.377  58.452 -53.236  1.00  0.00     0.280 HD
BRANCH   5   9
HETATM    9  C   UNL     1     -42.834  57.616 -57.666  1.00  0.00     0.018 A 
HETATM   10  C   UNL     1     -42.418  58.314 -58.825  1.00  0.00    -0.041 A 
HETATM   11  C   UNL     1     -41.759  59.668 -58.755  1.00  0.00     0.050 C 
HETATM   12  C   UNL     1     -42.624  57.754 -60.098  1.00  0.00     0.010 A 
HETATM   13  C   UNL     1     -43.204  56.496 -60.239  1.00  0.00     0.024 A 
HETATM   14  C   UNL     1     -43.593  55.797 -59.105  1.00  0.00     0.035 A 
HETATM   15  C   UNL     1     -43.417  56.349 -57.833  1.00  0.00     0.048 A 
HETATM   16 CL   UNL     1     -44.306  54.239 -59.263  1.00  0.00    -0.084 Cl
ENDBRANCH   5   9
ENDBRANCH   1   2
BRANCH   1  17
HETATM   17  C   UNL     1     -40.995  59.385 -51.802  1.00  0.00     0.047 C 
BRANCH  17  18
HETATM   18  C   UNL     1     -41.485  58.702 -50.523  1.00  0.00     0.124 C 
BRANCH  18  19
HETATM   19  N   UNL     1     -41.304  57.272 -50.559  1.00  0.00    -0.359 N 
HETATM   20  C   UNL     1     -42.303  56.429 -51.007  1.00  0.00     0.241 C 
HETATM   21  O   UNL     1     -43.316  56.852 -51.562  1.00  0.00    -0.271 OA
HETATM   22  H   UNL     1     -40.571  56.832 -50.005  1.00  0.00     0.162 HD
BRANCH  20  23
HETATM   23  C   UNL     1     -42.062  54.942 -50.739  1.00  0.00     0.278 C 
BRANCH  23  24
HETATM   24  O   UNL     1     -40.712  54.599 -51.044  1.00  0.00    -0.342 OA
BRANCH  24  25
HETATM   25  C   UNL     1     -40.515  53.588 -51.943  1.00  0.00     0.069 A 
HETATM   26  C   UNL     1     -41.013  53.539 -53.246  1.00  0.00     0.038 A 
HETATM   27  C   UNL     1     -40.744  52.431 -54.059  1.00  0.00     0.026 A 
HETATM   28  C   UNL     1     -39.976  51.377 -53.571  1.00  0.00     0.034 A 
HETATM   29 CL   UNL     1     -39.647  50.019 -54.573  1.00  0.00    -0.084 Cl
HETATM   30  C   UNL     1     -39.475  51.418 -52.272  1.00  0.00     0.026 A 
HETATM   31  C   UNL     1     -39.748  52.523 -51.462  1.00  0.00     0.038 A 
ENDBRANCH  24  25
ENDBRANCH  23  24
ENDBRANCH  20  23
ENDBRANCH  18  19
ENDBRANCH  17  18
ENDBRANCH   1  17
TORSDOF 8
ENDMDL
MODEL 5
REMARK VINA RESULT:      -7.7      4.967      8.071
REMARK  8 active torsions:
REMARK  status: ('A' for Active; 'I' for Inactive)
REMARK    1  A    between atoms: C_3  and  N_4 
REMARK    2  A    between atoms: N_7  and  C_9 
REMARK    3  A    between atoms: C_9  and  C_10 
REMARK    4  A    between atoms: C_10  and  C_11 
REMARK    5  A    between atoms: C_11  and  N_12 
REMARK       I    between atoms: N_12  and  C_13 
REMARK    6  A    between atoms: C_13  and  C_14 
REMARK    7  A    between atoms: C_14  and  O_15 
REMARK    8  A    between atoms: O_15  and  C_16 
ROOT
HETATM    1  C   UNL     1     -44.054  58.163 -54.757  1.00  0.00     0.236 C 
ENDROOT
BRANCH   1   2
HETATM    2  N   UNL     1     -43.169  56.936 -54.821  1.00  0.00    -0.069 N 
HETATM    3  C   UNL     1     -41.826  57.126 -54.090  1.00  0.00     0.249 C 
HETATM    4  C   UNL     1     -40.997  55.823 -54.089  1.00  0.00     0.123 C 
HETATM    5  N   UNL     1     -41.803  54.729 -53.513  1.00  0.00    -0.280 NA
HETATM    6  C   UNL     1     -43.038  54.454 -54.265  1.00  0.00     0.123 C 
HETATM    7  C   UNL     1     -43.923  55.717 -54.260  1.00  0.00     0.249 C 
HETATM    8  H   UNL     1     -42.953  56.733 -55.806  1.00  0.00     0.280 HD
BRANCH   5   9
HETATM    9  C   UNL     1     -41.036  53.624 -53.106  1.00  0.00     0.018 A 
HETATM   10  C   UNL     1     -40.538  53.559 -51.783  1.00  0.00    -0.041 A 
HETATM   11  C   UNL     1     -40.811  54.638 -50.766  1.00  0.00     0.050 C 
HETATM   12  C   UNL     1     -39.749  52.467 -51.379  1.00  0.00     0.010 A 
HETATM   13  C   UNL     1     -39.476  51.421 -52.257  1.00  0.00     0.024 A 
HETATM   14  C   UNL     1     -39.981  51.469 -53.548  1.00  0.00     0.035 A 
HETATM   15  C   UNL     1     -40.748  52.557 -53.973  1.00  0.00     0.048 A 
HETATM   16 CL   UNL     1     -39.657  50.181 -54.642  1.00  0.00    -0.084 Cl
ENDBRANCH   5   9
ENDBRANCH   1   2
BRANCH   1  17
HETATM   17  C   UNL     1     -43.756  59.014 -53.531  1.00  0.00     0.047 C 
BRANCH  17  18
HETATM   18  C   UNL     1     -45.025  59.184 -52.693  1.00  0.00     0.124 C 
BRANCH  18  19
HETATM   19  N   UNL     1     -44.876  60.185 -51.665  1.00  0.00    -0.359 N 
HETATM   20  C   UNL     1     -45.529  60.077 -50.453  1.00  0.00     0.241 C 
HETATM   21  O   UNL     1     -46.118  59.051 -50.115  1.00  0.00    -0.271 OA
HETATM   22  H   UNL     1     -44.528  61.113 -51.898  1.00  0.00     0.162 HD
BRANCH  20  23
HETATM   23  C   UNL     1     -45.482  61.333 -49.579  1.00  0.00     0.278 C 
BRANCH  23  24
HETATM   24  O   UNL     1     -46.276  61.149 -48.409  1.00  0.00    -0.342 OA
BRANCH  24  25
HETATM   25  C   UNL     1     -45.777  61.644 -47.236  1.00  0.00     0.069 A 
HETATM   26  C   UNL     1     -45.777  62.983 -46.843  1.00  0.00     0.038 A 
HETATM   27  C   UNL     1     -45.219  63.354 -45.613  1.00  0.00     0.026 A 
HETATM   28  C   UNL     1     -44.665  62.388 -44.778  1.00  0.00     0.034 A 
HETATM   29 CL   UNL     1     -43.982  62.848 -43.269  1.00  0.00    -0.084 Cl
HETATM   30  C   UNL     1     -44.662  61.049 -45.161  1.00  0.00     0.026 A 
HETATM   31  C   UNL     1     -45.215  60.682 -46.390  1.00  0.00     0.038 A 
ENDBRANCH  24  25
ENDBRANCH  23  24
ENDBRANCH  20  23
ENDBRANCH  18  19
ENDBRANCH  17  18
ENDBRANCH   1  17
TORSDOF 8
ENDMDL
MODEL 6
REMARK VINA RESULT:      -7.5      2.408      7.011
REMARK  8 active torsions:
REMARK  status: ('A' for Active; 'I' for Inactive)
REMARK    1  A    between atoms: C_3  and  N_4 
REMARK    2  A    between atoms: N_7  and  C_9 
REMARK    3  A    between atoms: C_9  and  C_10 
REMARK    4  A    between atoms: C_10  and  C_11 
REMARK    5  A    between atoms: C_11  and  N_12 
REMARK       I    between atoms: N_12  and  C_13 
REMARK    6  A    between atoms: C_13  and  C_14 
REMARK    7  A    between atoms: C_14  and  O_15 
REMARK    8  A    between atoms: O_15  and  C_16 
ROOT
HETATM    1  C   UNL     1     -43.302  58.880 -51.768  1.00  0.00     0.236 C 
ENDROOT
BRANCH   1   2
HETATM    2  N   UNL     1     -43.047  59.034 -53.252  1.00  0.00    -0.069 N 
HETATM    3  C   UNL     1     -41.822  58.234 -53.737  1.00  0.00     0.249 C 
HETATM    4  C   UNL     1     -41.656  58.334 -55.269  1.00  0.00     0.123 C 
HETATM    5  N   UNL     1     -42.906  57.904 -55.926  1.00  0.00    -0.280 NA
HETATM    6  C   UNL     1     -44.070  58.728 -55.564  1.00  0.00     0.123 C 
HETATM    7  C   UNL     1     -44.305  58.630 -54.044  1.00  0.00     0.249 C 
HETATM    8  H   UNL     1     -42.865  60.025 -53.458  1.00  0.00     0.280 HD
BRANCH   5   9
HETATM    9  C   UNL     1     -42.741  57.581 -57.284  1.00  0.00     0.018 A 
HETATM   10  C   UNL     1     -42.852  56.236 -57.709  1.00  0.00    -0.041 A 
HETATM   11  C   UNL     1     -43.162  55.113 -56.752  1.00  0.00     0.050 C 
HETATM   12  C   UNL     1     -42.663  55.906 -59.063  1.00  0.00     0.010 A 
HETATM   13  C   UNL     1     -42.399  56.894 -60.008  1.00  0.00     0.024 A 
HETATM   14  C   UNL     1     -42.312  58.218 -59.600  1.00  0.00     0.035 A 
HETATM   15  C   UNL     1     -42.475  58.560 -58.255  1.00  0.00     0.048 A 
HETATM   16 CL   UNL     1     -41.993  59.450 -60.758  1.00  0.00    -0.084 Cl
ENDBRANCH   5   9
ENDBRANCH   1   2
BRANCH   1  17
HETATM   17  C   UNL     1     -44.712  58.384 -51.482  1.00  0.00     0.047 C 
BRANCH  17  18
HETATM   18  C   UNL     1     -44.664  56.951 -50.948  1.00  0.00     0.124 C 
BRANCH  18  19
HETATM   19  N   UNL     1     -43.344  56.377 -51.030  1.00  0.00    -0.359 N 
HETATM   20  C   UNL     1     -43.090  55.088 -50.604  1.00  0.00     0.241 C 
HETATM   21  O   UNL     1     -43.993  54.307 -50.306  1.00  0.00    -0.271 OA
HETATM   22  H   UNL     1     -42.527  56.977 -51.133  1.00  0.00     0.162 HD
BRANCH  20  23
HETATM   23  C   UNL     1     -41.608  54.718 -50.511  1.00  0.00     0.278 C 
BRANCH  23  24
HETATM   24  O   UNL     1     -40.974  54.904 -51.775  1.00  0.00    -0.342 OA
BRANCH  24  25
HETATM   25  C   UNL     1     -40.632  53.777 -52.470  1.00  0.00     0.069 A 
HETATM   26  C   UNL     1     -40.865  53.545 -53.827  1.00  0.00     0.038 A 
HETATM   27  C   UNL     1     -40.471  52.335 -54.410  1.00  0.00     0.026 A 
HETATM   28  C   UNL     1     -39.842  51.361 -53.639  1.00  0.00     0.034 A 
HETATM   29 CL   UNL     1     -39.359  49.876 -54.360  1.00  0.00    -0.084 Cl
HETATM   30  C   UNL     1     -39.604  51.584 -52.285  1.00  0.00     0.026 A 
HETATM   31  C   UNL     1     -40.002  52.790 -51.705  1.00  0.00     0.038 A 
ENDBRANCH  24  25
ENDBRANCH  23  24
ENDBRANCH  20  23
ENDBRANCH  18  19
ENDBRANCH  17  18
ENDBRANCH   1  17
TORSDOF 8
ENDMDL
MODEL 7
REMARK VINA RESULT:      -7.4      1.957      6.884
REMARK  8 active torsions:
REMARK  status: ('A' for Active; 'I' for Inactive)
REMARK    1  A    between atoms: C_3  and  N_4 
REMARK    2  A    between atoms: N_7  and  C_9 
REMARK    3  A    between atoms: C_9  and  C_10 
REMARK    4  A    between atoms: C_10  and  C_11 
REMARK    5  A    between atoms: C_11  and  N_12 
REMARK       I    between atoms: N_12  and  C_13 
REMARK    6  A    between atoms: C_13  and  C_14 
REMARK    7  A    between atoms: C_14  and  O_15 
REMARK    8  A    between atoms: O_15  and  C_16 
ROOT
HETATM    1  C   UNL     1     -42.990  60.711 -53.082  1.00  0.00     0.236 C 
ENDROOT
BRANCH   1   2
HETATM    2  N   UNL     1     -43.560  60.209 -54.392  1.00  0.00    -0.069 N 
HETATM    3  C   UNL     1     -42.476  59.945 -55.456  1.00  0.00     0.249 C 
HETATM    4  C   UNL     1     -43.084  59.338 -56.739  1.00  0.00     0.123 C 
HETATM    5  N   UNL     1     -43.844  58.121 -56.393  1.00  0.00    -0.280 NA
HETATM    6  C   UNL     1     -44.958  58.371 -55.466  1.00  0.00     0.123 C 
HETATM    7  C   UNL     1     -44.398  58.941 -54.147  1.00  0.00     0.249 C 
HETATM    8  H   UNL     1     -44.194  60.922 -54.774  1.00  0.00     0.280 HD
BRANCH   5   9
HETATM    9  C   UNL     1     -44.098  57.289 -57.497  1.00  0.00     0.018 A 
HETATM   10  C   UNL     1     -43.373  56.084 -57.655  1.00  0.00    -0.041 A 
HETATM   11  C   UNL     1     -42.330  55.636 -56.663  1.00  0.00     0.050 C 
HETATM   12  C   UNL     1     -43.607  55.261 -58.771  1.00  0.00     0.010 A 
HETATM   13  C   UNL     1     -44.574  55.597 -59.716  1.00  0.00     0.024 A 
HETATM   14  C   UNL     1     -45.303  56.767 -59.554  1.00  0.00     0.035 A 
HETATM   15  C   UNL     1     -45.068  57.607 -58.463  1.00  0.00     0.048 A 
HETATM   16 CL   UNL     1     -46.505  57.192 -60.709  1.00  0.00    -0.084 Cl
ENDBRANCH   5   9
ENDBRANCH   1   2
BRANCH   1  17
HETATM   17  C   UNL     1     -43.399  59.829 -51.911  1.00  0.00     0.047 C 
BRANCH  17  18
HETATM   18  C   UNL     1     -42.166  59.144 -51.318  1.00  0.00     0.124 C 
BRANCH  18  19
HETATM   19  N   UNL     1     -42.125  57.733 -51.613  1.00  0.00    -0.359 N 
HETATM   20  C   UNL     1     -41.394  57.239 -52.676  1.00  0.00     0.241 C 
HETATM   21  O   UNL     1     -40.604  57.938 -53.309  1.00  0.00    -0.271 OA
HETATM   22  H   UNL     1     -42.837  57.108 -51.238  1.00  0.00     0.162 HD
BRANCH  20  23
HETATM   23  C   UNL     1     -41.658  55.770 -53.015  1.00  0.00     0.278 C 
BRANCH  23  24
HETATM   24  O   UNL     1     -41.059  54.923 -52.036  1.00  0.00    -0.342 OA
BRANCH  24  25
HETATM   25  C   UNL     1     -40.620  53.699 -52.459  1.00  0.00     0.069 A 
HETATM   26  C   UNL     1     -39.870  52.791 -51.710  1.00  0.00     0.038 A 
HETATM   27  C   UNL     1     -39.476  51.572 -52.274  1.00  0.00     0.026 A 
HETATM   28  C   UNL     1     -39.834  51.260 -53.584  1.00  0.00     0.034 A 
HETATM   29 CL   UNL     1     -39.348  49.762 -54.272  1.00  0.00    -0.084 Cl
HETATM   30  C   UNL     1     -40.583  52.159 -54.337  1.00  0.00     0.026 A 
HETATM   31  C   UNL     1     -40.972  53.377 -53.774  1.00  0.00     0.038 A 
ENDBRANCH  24  25
ENDBRANCH  23  24
ENDBRANCH  20  23
ENDBRANCH  18  19
ENDBRANCH  17  18
ENDBRANCH   1  17
TORSDOF 8
ENDMDL
MODEL 8
REMARK VINA RESULT:      -7.2      2.578      7.631
REMARK  8 active torsions:
REMARK  status: ('A' for Active; 'I' for Inactive)
REMARK    1  A    between atoms: C_3  and  N_4 
REMARK    2  A    between atoms: N_7  and  C_9 
REMARK    3  A    between atoms: C_9  and  C_10 
REMARK    4  A    between atoms: C_10  and  C_11 
REMARK    5  A    between atoms: C_11  and  N_12 
REMARK       I    between atoms: N_12  and  C_13 
REMARK    6  A    between atoms: C_13  and  C_14 
REMARK    7  A    between atoms: C_14  and  O_15 
REMARK    8  A    between atoms: O_15  and  C_16 
ROOT
HETATM    1  C   UNL     1     -42.647  60.644 -54.442  1.00  0.00     0.236 C 
ENDROOT
BRANCH   1   2
HETATM    2  N   UNL     1     -42.987  59.576 -55.460  1.00  0.00    -0.069 N 
HETATM    3  C   UNL     1     -44.335  58.884 -55.175  1.00  0.00     0.249 C 
HETATM    4  C   UNL     1     -44.695  57.876 -56.288  1.00  0.00     0.123 C 
HETATM    5  N   UNL     1     -44.679  58.563 -57.595  1.00  0.00    -0.280 NA
HETATM    6  C   UNL     1     -43.367  59.133 -57.939  1.00  0.00     0.123 C 
HETATM    7  C   UNL     1     -42.977  60.180 -56.876  1.00  0.00     0.249 C 
HETATM    8  H   UNL     1     -42.261  58.849 -55.435  1.00  0.00     0.280 HD
BRANCH   5   9
HETATM    9  C   UNL     1     -45.361  57.861 -58.603  1.00  0.00     0.018 A 
HETATM   10  C   UNL     1     -46.642  58.294 -59.022  1.00  0.00    -0.041 A 
HETATM   11  C   UNL     1     -47.314  59.508 -58.432  1.00  0.00     0.050 C 
HETATM   12  C   UNL     1     -47.339  57.580 -60.014  1.00  0.00     0.010 A 
HETATM   13  C   UNL     1     -46.770  56.463 -60.621  1.00  0.00     0.024 A 
HETATM   14  C   UNL     1     -45.505  56.048 -60.230  1.00  0.00     0.035 A 
HETATM   15  C   UNL     1     -44.808  56.732 -59.231  1.00  0.00     0.048 A 
HETATM   16 CL   UNL     1     -44.787  54.673 -60.976  1.00  0.00    -0.084 Cl
ENDBRANCH   5   9
ENDBRANCH   1   2
BRANCH   1  17
HETATM   17  C   UNL     1     -42.387  60.053 -53.064  1.00  0.00     0.047 C 
BRANCH  17  18
HETATM   18  C   UNL     1     -41.135  59.174 -53.101  1.00  0.00     0.124 C 
BRANCH  18  19
HETATM   19  N   UNL     1     -41.379  57.847 -52.593  1.00  0.00    -0.359 N 
HETATM   20  C   UNL     1     -41.668  56.792 -53.437  1.00  0.00     0.241 C 
HETATM   21  O   UNL     1     -41.554  56.882 -54.659  1.00  0.00    -0.271 OA
HETATM   22  H   UNL     1     -41.623  57.707 -51.613  1.00  0.00     0.162 HD
BRANCH  20  23
HETATM   23  C   UNL     1     -42.156  55.520 -52.740  1.00  0.00     0.278 C 
BRANCH  23  24
HETATM   24  O   UNL     1     -41.097  54.934 -51.986  1.00  0.00    -0.342 OA
BRANCH  24  25
HETATM   25  C   UNL     1     -40.640  53.714 -52.402  1.00  0.00     0.069 A 
HETATM   26  C   UNL     1     -39.880  52.820 -51.646  1.00  0.00     0.038 A 
HETATM   27  C   UNL     1     -39.467  51.604 -52.205  1.00  0.00     0.026 A 
HETATM   28  C   UNL     1     -39.815  51.283 -53.514  1.00  0.00     0.034 A 
HETATM   29 CL   UNL     1     -39.305  49.789 -54.195  1.00  0.00    -0.084 Cl
HETATM   30  C   UNL     1     -40.573  52.169 -54.275  1.00  0.00     0.026 A 
HETATM   31  C   UNL     1     -40.981  53.383 -53.718  1.00  0.00     0.038 A 
ENDBRANCH  24  25
ENDBRANCH  23  24
ENDBRANCH  20  23
ENDBRANCH  18  19
ENDBRANCH  17  18
ENDBRANCH   1  17
TORSDOF 8
ENDMDL
MODEL 9
REMARK VINA RESULT:      -7.2      3.561      4.861
REMARK  8 active torsions:
REMARK  status: ('A' for Active; 'I' for Inactive)
REMARK    1  A    between atoms: C_3  and  N_4 
REMARK    2  A    between atoms: N_7  and  C_9 
REMARK    3  A    between atoms: C_9  and  C_10 
REMARK    4  A    between atoms: C_10  and  C_11 
REMARK    5  A    between atoms: C_11  and  N_12 
REMARK       I    between atoms: N_12  and  C_13 
REMARK    6  A    between atoms: C_13  and  C_14 
REMARK    7  A    between atoms: C_14  and  O_15 
REMARK    8  A    between atoms: O_15  and  C_16 
ROOT
HETATM    1  C   UNL     1     -44.389  57.810 -56.189  1.00  0.00     0.236 C 
ENDROOT
BRANCH   1   2
HETATM    2  N   UNL     1     -43.833  56.445 -55.838  1.00  0.00    -0.069 N 
HETATM    3  C   UNL     1     -42.332  56.308 -56.157  1.00  0.00     0.249 C 
HETATM    4  C   UNL     1     -41.781  54.943 -55.692  1.00  0.00     0.123 C 
HETATM    5  N   UNL     1     -42.071  54.760 -54.256  1.00  0.00    -0.280 NA
HETATM    6  C   UNL     1     -43.509  54.773 -53.944  1.00  0.00     0.123 C 
HETATM    7  C   UNL     1     -44.102  56.137 -54.353  1.00  0.00     0.249 C 
HETATM    8  H   UNL     1     -44.328  55.733 -56.390  1.00  0.00     0.280 HD
BRANCH   5   9
HETATM    9  C   UNL     1     -41.289  53.762 -53.650  1.00  0.00     0.018 A 
HETATM   10  C   UNL     1     -40.841  53.928 -52.318  1.00  0.00    -0.041 A 
HETATM   11  C   UNL     1     -41.186  55.145 -51.498  1.00  0.00     0.050 C 
HETATM   12  C   UNL     1     -40.038  52.942 -51.717  1.00  0.00     0.010 A 
HETATM   13  C   UNL     1     -39.700  51.779 -52.405  1.00  0.00     0.024 A 
HETATM   14  C   UNL     1     -40.156  51.602 -53.703  1.00  0.00     0.035 A 
HETATM   15  C   UNL     1     -40.936  52.581 -54.324  1.00  0.00     0.048 A 
HETATM   16 CL   UNL     1     -39.752  50.168 -54.563  1.00  0.00    -0.084 Cl
ENDBRANCH   5   9
ENDBRANCH   1   2
BRANCH   1  17
HETATM   17  C   UNL     1     -45.271  57.762 -57.427  1.00  0.00     0.047 C 
BRANCH  17  18
HETATM   18  C   UNL     1     -44.479  58.226 -58.651  1.00  0.00     0.124 C 
BRANCH  18  19
HETATM   19  N   UNL     1     -43.638  59.362 -58.365  1.00  0.00    -0.359 N 
HETATM   20  C   UNL     1     -42.262  59.283 -58.459  1.00  0.00     0.241 C 
HETATM   21  O   UNL     1     -41.694  58.313 -58.959  1.00  0.00    -0.271 OA
HETATM   22  H   UNL     1     -44.000  60.147 -57.826  1.00  0.00     0.162 HD
BRANCH  20  23
HETATM   23  C   UNL     1     -41.505  60.479 -57.876  1.00  0.00     0.278 C 
BRANCH  23  24
HETATM   24  O   UNL     1     -41.924  61.684 -58.514  1.00  0.00    -0.342 OA
BRANCH  24  25
HETATM   25  C   UNL     1     -41.149  62.143 -59.544  1.00  0.00     0.069 A 
HETATM   26  C   UNL     1     -41.377  61.923 -60.904  1.00  0.00     0.038 A 
HETATM   27  C   UNL     1     -40.492  62.443 -61.856  1.00  0.00     0.026 A 
HETATM   28  C   UNL     1     -39.385  63.183 -61.450  1.00  0.00     0.034 A 
HETATM   29 CL   UNL     1     -38.301  63.820 -62.623  1.00  0.00    -0.084 Cl
HETATM   30  C   UNL     1     -39.151  63.407 -60.096  1.00  0.00     0.026 A 
HETATM   31  C   UNL     1     -40.032  62.884 -59.147  1.00  0.00     0.038 A 
ENDBRANCH  24  25
ENDBRANCH  23  24
ENDBRANCH  20  23
ENDBRANCH  18  19
ENDBRANCH  17  18
ENDBRANCH   1  17
TORSDOF 8
ENDMDL
MODEL 10
REMARK VINA RESULT:      -7.2      2.822      3.540
REMARK  8 active torsions:
REMARK  status: ('A' for Active; 'I' for Inactive)
REMARK    1  A    between atoms: C_3  and  N_4 
REMARK    2  A    between atoms: N_7  and  C_9 
REMARK    3  A    between atoms: C_9  and  C_10 
REMARK    4  A    between atoms: C_10  and  C_11 
REMARK    5  A    between atoms: C_11  and  N_12 
REMARK       I    between atoms: N_12  and  C_13 
REMARK    6  A    between atoms: C_13  and  C_14 
REMARK    7  A    between atoms: C_14  and  O_15 
REMARK    8  A    between atoms: O_15  and  C_16 
ROOT
HETATM    1  C   UNL     1     -43.659  58.585 -53.329  1.00  0.00     0.236 C 
ENDROOT
BRANCH   1   2
HETATM    2  N   UNL     1     -43.090  57.204 -53.578  1.00  0.00    -0.069 N 
HETATM    3  C   UNL     1     -41.550  57.192 -53.639  1.00  0.00     0.249 C 
HETATM    4  C   UNL     1     -41.005  55.755 -53.791  1.00  0.00     0.123 C 
HETATM    5  N   UNL     1     -41.533  54.912 -52.700  1.00  0.00    -0.280 NA
HETATM    6  C   UNL     1     -43.002  54.818 -52.693  1.00  0.00     0.123 C 
HETATM    7  C   UNL     1     -43.597  56.227 -52.502  1.00  0.00     0.249 C 
HETATM    8  H   UNL     1     -43.433  56.861 -54.485  1.00  0.00     0.280 HD
BRANCH   5   9
HETATM    9  C   UNL     1     -40.809  53.723 -52.513  1.00  0.00     0.018 A 
HETATM   10  C   UNL     1     -40.197  53.458 -51.264  1.00  0.00    -0.041 A 
HETATM   11  C   UNL     1     -40.302  54.408 -50.099  1.00  0.00     0.050 C 
HETATM   12  C   UNL     1     -39.451  52.279 -51.081  1.00  0.00     0.010 A 
HETATM   13  C   UNL     1     -39.332  51.344 -52.105  1.00  0.00     0.024 A 
HETATM   14  C   UNL     1     -39.949  51.588 -53.324  1.00  0.00     0.035 A 
HETATM   15  C   UNL     1     -40.675  52.764 -53.530  1.00  0.00     0.048 A 
HETATM   16 CL   UNL     1     -39.816  50.438 -54.596  1.00  0.00    -0.084 Cl
ENDBRANCH   5   9
ENDBRANCH   1   2
BRANCH   1  17
HETATM   17  C   UNL     1     -44.480  59.082 -54.510  1.00  0.00     0.047 C 
BRANCH  17  18
HETATM   18  C   UNL     1     -45.191  57.906 -55.183  1.00  0.00     0.124 C 
BRANCH  18  19
HETATM   19  N   UNL     1     -45.024  57.909 -56.616  1.00  0.00    -0.359 N 
HETATM   20  C   UNL     1     -43.949  57.284 -57.219  1.00  0.00     0.241 C 
HETATM   21  O   UNL     1     -43.187  56.548 -56.595  1.00  0.00    -0.271 OA
HETATM   22  H   UNL     1     -45.517  58.591 -57.190  1.00  0.00     0.162 HD
BRANCH  20  23
HETATM   23  C   UNL     1     -43.772  57.596 -58.707  1.00  0.00     0.278 C 
BRANCH  23  24
HETATM   24  O   UNL     1     -44.782  58.503 -59.143  1.00  0.00    -0.342 OA
BRANCH  24  25
HETATM   25  C   UNL     1     -45.789  57.988 -59.912  1.00  0.00     0.069 A 
HETATM   26  C   UNL     1     -46.027  56.634 -60.154  1.00  0.00     0.038 A 
HETATM   27  C   UNL     1     -47.093  56.245 -60.975  1.00  0.00     0.026 A 
HETATM   28  C   UNL     1     -47.920  57.208 -61.548  1.00  0.00     0.034 A 
HETATM   29 CL   UNL     1     -49.228  56.725 -62.555  1.00  0.00    -0.084 Cl
HETATM   30  C   UNL     1     -47.690  58.560 -61.311  1.00  0.00     0.026 A 
HETATM   31  C   UNL     1     -46.624  58.946 -60.495  1.00  0.00     0.038 A 
ENDBRANCH  24  25
ENDBRANCH  23  24
ENDBRANCH  20  23
ENDBRANCH  18  19
ENDBRANCH  17  18
ENDBRANCH   1  17
TORSDOF 8
ENDMDL
