MODEL 1
REMARK VINA RESULT:      -8.4      0.000      0.000
REMARK  7 active torsions:
REMARK  status: ('A' for Active; 'I' for Inactive)
REMARK    1  A    between atoms: O_2  and  C_3 
REMARK    2  A    between atoms: C_4  and  O_5 
REMARK    3  A    between atoms: C_8  and  N_9 
REMARK       I    between atoms: N_9  and  C_10 
REMARK    4  A    between atoms: C_10  and  C_11 
REMARK    5  A    between atoms: C_11  and  N_12 
REMARK    6  A    between atoms: N_20  and  C_21 
REMARK    7  A    between atoms: C_21  and  C_22 
ROOT
HETATM    1  N   UNL     1     -43.680  59.088 -55.304  1.00  0.00    -0.063 N 
HETATM    2  H   UNL     1     -43.113  59.816 -55.787  1.00  0.00     0.280 HD
HETATM    3  C   UNL     1     -43.244  59.127 -53.866  1.00  0.00     0.238 C 
HETATM    4  C   UNL     1     -43.832  57.944 -53.104  1.00  0.00     0.069 C 
HETATM    5  C   UNL     1     -43.529  56.608 -53.795  1.00  0.00     0.119 C 
HETATM    6  N   UNL     1     -44.162  55.511 -53.101  1.00  0.00    -0.324 N 
HETATM    7  C   UNL     1     -43.270  54.804 -52.320  1.00  0.00     0.326 C 
HETATM    8  O   UNL     1     -43.610  53.950 -51.523  1.00  0.00    -0.247 OA
HETATM    9  N   UNL     1     -42.016  55.256 -52.590  1.00  0.00    -0.264 N 
HETATM   10  C   UNL     1     -42.058  56.252 -53.518  1.00  0.00     0.256 C 
HETATM   11  O   UNL     1     -41.114  56.866 -53.996  1.00  0.00    -0.270 OA
HETATM   12  C   UNL     1     -43.881  56.610 -55.278  1.00  0.00     0.069 C 
HETATM   13  C   UNL     1     -43.322  57.818 -56.012  1.00  0.00     0.238 C 
HETATM   14  H   UNL     1     -45.156  55.358 -52.960  1.00  0.00     0.165 HD
ENDROOT
BRANCH   1  15
HETATM   15  C   UNL     1     -45.115  59.616 -55.522  1.00  0.00     0.337 C 
BRANCH  15  16
HETATM   16  C   UNL     1     -45.071  60.676 -56.622  1.00  0.00     0.248 C 
HETATM   17  N   UNL     1     -45.137  60.395 -57.948  1.00  0.00    -0.326 N 
HETATM   18  H   UNL     1     -45.284  61.238 -58.500  1.00  0.00     0.169 HD
HETATM   19  O   UNL     1     -45.139  61.858 -56.256  1.00  0.00    -0.271 OA
BRANCH  17  20
HETATM   20  C   UNL     1     -45.162  59.188 -58.663  1.00  0.00     0.037 A 
HETATM   21  C   UNL     1     -44.106  58.690 -59.419  1.00  0.00     0.069 A 
HETATM   22  C   UNL     1     -44.216  57.433 -60.025  1.00  0.00     0.103 A 
HETATM   23  C   UNL     1     -45.401  56.686 -59.960  1.00  0.00     0.101 A 
HETATM   24  C   UNL     1     -46.474  57.214 -59.246  1.00  0.00     0.042 A 
HETATM   25  C   UNL     1     -46.357  58.456 -58.612  1.00  0.00     0.032 A 
BRANCH  22  26
HETATM   26  O   UNL     1     -43.149  56.994 -60.769  1.00  0.00    -0.353 OA
HETATM   27  C   UNL     1     -41.930  57.174 -60.050  1.00  0.00     0.210 C 
ENDBRANCH  22  26
BRANCH  23  28
HETATM   28  O   UNL     1     -45.400  55.476 -60.596  1.00  0.00    -0.353 OA
HETATM   29  C   UNL     1     -44.900  54.364 -59.861  1.00  0.00     0.210 C 
ENDBRANCH  23  28
ENDBRANCH  17  20
ENDBRANCH  15  16
ENDBRANCH   1  15
BRANCH   9  30
HETATM   30  C   UNL     1     -40.835  54.856 -51.855  1.00  0.00     0.175 C 
BRANCH  30  31
HETATM   31  C   UNL     1     -40.356  53.508 -52.354  1.00  0.00    -0.040 A 
HETATM   32  C   UNL     1     -40.478  53.173 -53.712  1.00  0.00     0.010 A 
HETATM   33  C   UNL     1     -40.119  51.902 -54.165  1.00  0.00     0.024 A 
HETATM   34  C   UNL     1     -39.634  50.958 -53.264  1.00  0.00     0.034 A 
HETATM   35 CL   UNL     1     -39.217  49.385 -53.816  1.00  0.00    -0.084 Cl
HETATM   36  C   UNL     1     -39.499  51.277 -51.913  1.00  0.00     0.024 A 
HETATM   37  C   UNL     1     -39.863  52.548 -51.458  1.00  0.00     0.010 A 
ENDBRANCH  30  31
ENDBRANCH   9  30
TORSDOF 7
ENDMDL
MODEL 2
REMARK VINA RESULT:      -8.4      1.177      2.005
REMARK  7 active torsions:
REMARK  status: ('A' for Active; 'I' for Inactive)
REMARK    1  A    between atoms: O_2  and  C_3 
REMARK    2  A    between atoms: C_4  and  O_5 
REMARK    3  A    between atoms: C_8  and  N_9 
REMARK       I    between atoms: N_9  and  C_10 
REMARK    4  A    between atoms: C_10  and  C_11 
REMARK    5  A    between atoms: C_11  and  N_12 
REMARK    6  A    between atoms: N_20  and  C_21 
REMARK    7  A    between atoms: C_21  and  C_22 
ROOT
HETATM    1  N   UNL     1     -42.235  59.243 -55.640  1.00  0.00    -0.063 N 
HETATM    2  H   UNL     1     -41.466  59.617 -56.234  1.00  0.00     0.280 HD
HETATM    3  C   UNL     1     -41.732  59.337 -54.227  1.00  0.00     0.238 C 
HETATM    4  C   UNL     1     -42.674  58.599 -53.280  1.00  0.00     0.069 C 
HETATM    5  C   UNL     1     -42.935  57.158 -53.739  1.00  0.00     0.119 C 
HETATM    6  N   UNL     1     -43.891  56.505 -52.875  1.00  0.00    -0.324 N 
HETATM    7  C   UNL     1     -43.285  55.644 -51.984  1.00  0.00     0.326 C 
HETATM    8  O   UNL     1     -43.872  55.118 -51.057  1.00  0.00    -0.247 OA
HETATM    9  N   UNL     1     -41.971  55.538 -52.319  1.00  0.00    -0.264 N 
HETATM   10  C   UNL     1     -41.691  56.318 -53.400  1.00  0.00     0.256 C 
HETATM   11  O   UNL     1     -40.616  56.446 -53.970  1.00  0.00    -0.270 OA
HETATM   12  C   UNL     1     -43.349  57.063 -55.203  1.00  0.00     0.069 C 
HETATM   13  C   UNL     1     -42.423  57.839 -56.125  1.00  0.00     0.238 C 
HETATM   14  H   UNL     1     -44.860  56.765 -52.715  1.00  0.00     0.165 HD
ENDROOT
BRANCH   1  15
HETATM   15  C   UNL     1     -43.378  60.235 -55.948  1.00  0.00     0.337 C 
BRANCH  15  16
HETATM   16  C   UNL     1     -42.954  61.096 -57.138  1.00  0.00     0.248 C 
HETATM   17  N   UNL     1     -43.037  60.694 -58.432  1.00  0.00    -0.326 N 
HETATM   18  H   UNL     1     -42.889  61.471 -59.073  1.00  0.00     0.169 HD
HETATM   19  O   UNL     1     -42.672  62.277 -56.895  1.00  0.00    -0.271 OA
BRANCH  17  20
HETATM   20  C   UNL     1     -43.398  59.475 -59.026  1.00  0.00     0.037 A 
HETATM   21  C   UNL     1     -44.697  58.987 -59.111  1.00  0.00     0.069 A 
HETATM   22  C   UNL     1     -44.950  57.795 -59.800  1.00  0.00     0.103 A 
HETATM   23  C   UNL     1     -43.912  57.028 -60.346  1.00  0.00     0.101 A 
HETATM   24  C   UNL     1     -42.606  57.495 -60.213  1.00  0.00     0.042 A 
HETATM   25  C   UNL     1     -42.353  58.703 -59.552  1.00  0.00     0.032 A 
BRANCH  22  26
HETATM   26  O   UNL     1     -46.248  57.352 -59.843  1.00  0.00    -0.353 OA
HETATM   27  C   UNL     1     -46.936  57.703 -58.643  1.00  0.00     0.210 C 
ENDBRANCH  22  26
BRANCH  23  28
HETATM   28  O   UNL     1     -44.272  55.877 -60.991  1.00  0.00    -0.353 OA
HETATM   29  C   UNL     1     -44.348  54.694 -60.201  1.00  0.00     0.210 C 
ENDBRANCH  23  28
ENDBRANCH  17  20
ENDBRANCH  15  16
ENDBRANCH   1  15
BRANCH   9  30
HETATM   30  C   UNL     1     -40.985  54.840 -51.524  1.00  0.00     0.175 C 
BRANCH  30  31
HETATM   31  C   UNL     1     -40.633  53.523 -52.187  1.00  0.00    -0.040 A 
HETATM   32  C   UNL     1     -39.831  52.587 -51.515  1.00  0.00     0.010 A 
HETATM   33  C   UNL     1     -39.430  51.409 -52.150  1.00  0.00     0.024 A 
HETATM   34  C   UNL     1     -39.830  51.160 -53.461  1.00  0.00     0.034 A 
HETATM   35 CL   UNL     1     -39.316  49.724 -54.253  1.00  0.00    -0.084 Cl
HETATM   36  C   UNL     1     -40.632  52.076 -54.139  1.00  0.00     0.024 A 
HETATM   37  C   UNL     1     -41.030  53.257 -53.505  1.00  0.00     0.010 A 
ENDBRANCH  30  31
ENDBRANCH   9  30
TORSDOF 7
ENDMDL
MODEL 3
REMARK VINA RESULT:      -8.2      4.059      7.162
REMARK  7 active torsions:
REMARK  status: ('A' for Active; 'I' for Inactive)
REMARK    1  A    between atoms: O_2  and  C_3 
REMARK    2  A    between atoms: C_4  and  O_5 
REMARK    3  A    between atoms: C_8  and  N_9 
REMARK       I    between atoms: N_9  and  C_10 
REMARK    4  A    between atoms: C_10  and  C_11 
REMARK    5  A    between atoms: C_11  and  N_12 
REMARK    6  A    between atoms: N_20  and  C_21 
REMARK    7  A    between atoms: C_21  and  C_22 
ROOT
HETATM    1  N   UNL     1     -43.426  59.685 -53.321  1.00  0.00    -0.063 N 
HETATM    2  H   UNL     1     -42.866  60.417 -53.807  1.00  0.00     0.280 HD
HETATM    3  C   UNL     1     -42.705  59.419 -52.030  1.00  0.00     0.238 C 
HETATM    4  C   UNL     1     -43.297  58.195 -51.337  1.00  0.00     0.069 C 
HETATM    5  C   UNL     1     -43.347  56.977 -52.269  1.00  0.00     0.119 C 
HETATM    6  N   UNL     1     -43.984  55.855 -51.619  1.00  0.00    -0.324 N 
HETATM    7  C   UNL     1     -43.069  54.923 -51.174  1.00  0.00     0.326 C 
HETATM    8  O   UNL     1     -43.363  53.987 -50.456  1.00  0.00    -0.247 OA
HETATM    9  N   UNL     1     -41.842  55.268 -51.651  1.00  0.00    -0.264 N 
HETATM   10  C   UNL     1     -41.922  56.410 -52.388  1.00  0.00     0.256 C 
HETATM   11  O   UNL     1     -41.014  56.986 -52.971  1.00  0.00    -0.270 OA
HETATM   12  C   UNL     1     -43.990  57.282 -53.617  1.00  0.00     0.069 C 
HETATM   13  C   UNL     1     -43.417  58.528 -54.272  1.00  0.00     0.238 C 
HETATM   14  H   UNL     1     -44.939  55.795 -51.281  1.00  0.00     0.165 HD
ENDROOT
BRANCH   1  15
HETATM   15  C   UNL     1     -44.779  60.406 -53.129  1.00  0.00     0.337 C 
BRANCH  15  16
HETATM   16  C   UNL     1     -44.512  61.908 -53.045  1.00  0.00     0.248 C 
HETATM   17  N   UNL     1     -44.586  62.628 -51.897  1.00  0.00    -0.326 N 
HETATM   18  H   UNL     1     -44.190  63.559 -52.015  1.00  0.00     0.169 HD
HETATM   19  O   UNL     1     -44.051  62.447 -54.061  1.00  0.00    -0.271 OA
BRANCH  17  20
HETATM   20  C   UNL     1     -44.979  62.296 -50.591  1.00  0.00     0.037 A 
HETATM   21  C   UNL     1     -46.205  62.624 -50.023  1.00  0.00     0.069 A 
HETATM   22  C   UNL     1     -46.521  62.170 -48.737  1.00  0.00     0.103 A 
HETATM   23  C   UNL     1     -45.597  61.453 -47.964  1.00  0.00     0.101 A 
HETATM   24  C   UNL     1     -44.350  61.172 -48.518  1.00  0.00     0.042 A 
HETATM   25  C   UNL     1     -44.043  61.598 -49.816  1.00  0.00     0.032 A 
BRANCH  22  26
HETATM   26  O   UNL     1     -47.739  62.533 -48.219  1.00  0.00    -0.353 OA
HETATM   27  C   UNL     1     -48.193  63.748 -48.813  1.00  0.00     0.210 C 
ENDBRANCH  22  26
BRANCH  23  28
HETATM   28  O   UNL     1     -46.008  61.066 -46.718  1.00  0.00    -0.353 OA
HETATM   29  C   UNL     1     -45.020  61.044 -45.693  1.00  0.00     0.210 C 
ENDBRANCH  23  28
ENDBRANCH  17  20
ENDBRANCH  15  16
ENDBRANCH   1  15
BRANCH   9  30
HETATM   30  C   UNL     1     -40.611  54.610 -51.270  1.00  0.00     0.175 C 
BRANCH  30  31
HETATM   31  C   UNL     1     -40.405  53.376 -52.125  1.00  0.00    -0.040 A 
HETATM   32  C   UNL     1     -39.859  52.211 -51.563  1.00  0.00     0.010 A 
HETATM   33  C   UNL     1     -39.586  51.097 -52.361  1.00  0.00     0.024 A 
HETATM   34  C   UNL     1     -39.858  51.142 -53.725  1.00  0.00     0.034 A 
HETATM   35 CL   UNL     1     -39.498  49.783 -54.713  1.00  0.00    -0.084 Cl
HETATM   36  C   UNL     1     -40.407  52.288 -54.298  1.00  0.00     0.024 A 
HETATM   37  C   UNL     1     -40.677  53.405 -53.500  1.00  0.00     0.010 A 
ENDBRANCH  30  31
ENDBRANCH   9  30
TORSDOF 7
ENDMDL
MODEL 4
REMARK VINA RESULT:      -8.1      3.066      8.502
REMARK  7 active torsions:
REMARK  status: ('A' for Active; 'I' for Inactive)
REMARK    1  A    between atoms: O_2  and  C_3 
REMARK    2  A    between atoms: C_4  and  O_5 
REMARK    3  A    between atoms: C_8  and  N_9 
REMARK       I    between atoms: N_9  and  C_10 
REMARK    4  A    between atoms: C_10  and  C_11 
REMARK    5  A    between atoms: C_11  and  N_12 
REMARK    6  A    between atoms: N_20  and  C_21 
REMARK    7  A    between atoms: C_21  and  C_22 
ROOT
HETATM    1  N   UNL     1     -43.087  57.425 -53.223  1.00  0.00    -0.063 N 
HETATM    2  H   UNL     1     -43.163  56.406 -53.021  1.00  0.00     0.280 HD
HETATM    3  C   UNL     1     -44.067  57.689 -54.331  1.00  0.00     0.238 C 
HETATM    4  C   UNL     1     -43.878  59.100 -54.879  1.00  0.00     0.069 C 
HETATM    5  C   UNL     1     -42.421  59.371 -55.277  1.00  0.00     0.119 C 
HETATM    6  N   UNL     1     -42.250  60.737 -55.716  1.00  0.00    -0.324 N 
HETATM    7  C   UNL     1     -42.182  60.837 -57.091  1.00  0.00     0.326 C 
HETATM    8  O   UNL     1     -42.207  61.898 -57.685  1.00  0.00    -0.247 OA
HETATM    9  N   UNL     1     -42.115  59.581 -57.608  1.00  0.00    -0.264 N 
HETATM   10  C   UNL     1     -42.151  58.654 -56.612  1.00  0.00     0.256 C 
HETATM   11  O   UNL     1     -42.096  57.436 -56.723  1.00  0.00    -0.270 OA
HETATM   12  C   UNL     1     -41.425  59.006 -54.183  1.00  0.00     0.069 C 
HETATM   13  C   UNL     1     -41.655  57.613 -53.621  1.00  0.00     0.238 C 
HETATM   14  H   UNL     1     -42.393  61.584 -55.175  1.00  0.00     0.165 HD
ENDROOT
BRANCH   1  15
HETATM   15  C   UNL     1     -43.511  58.043 -51.872  1.00  0.00     0.337 C 
BRANCH  15  16
HETATM   16  C   UNL     1     -44.462  57.068 -51.180  1.00  0.00     0.248 C 
HETATM   17  N   UNL     1     -44.101  55.831 -50.752  1.00  0.00    -0.326 N 
HETATM   18  H   UNL     1     -44.816  55.421 -50.154  1.00  0.00     0.169 HD
HETATM   19  O   UNL     1     -45.575  57.510 -50.861  1.00  0.00    -0.271 OA
BRANCH  17  20
HETATM   20  C   UNL     1     -42.914  55.093 -50.876  1.00  0.00     0.037 A 
HETATM   21  C   UNL     1     -41.877  55.096 -49.949  1.00  0.00     0.069 A 
HETATM   22  C   UNL     1     -40.773  54.255 -50.137  1.00  0.00     0.103 A 
HETATM   23  C   UNL     1     -40.642  53.460 -51.284  1.00  0.00     0.101 A 
HETATM   24  C   UNL     1     -41.659  53.501 -52.235  1.00  0.00     0.042 A 
HETATM   25  C   UNL     1     -42.779  54.316 -52.035  1.00  0.00     0.032 A 
BRANCH  22  26
HETATM   26  O   UNL     1     -39.772  54.306 -49.200  1.00  0.00    -0.353 OA
HETATM   27  C   UNL     1     -40.273  53.941 -47.914  1.00  0.00     0.210 C 
ENDBRANCH  22  26
BRANCH  23  28
HETATM   28  O   UNL     1     -39.519  52.684 -51.368  1.00  0.00    -0.353 OA
HETATM   29  C   UNL     1     -39.578  51.561 -52.242  1.00  0.00     0.210 C 
ENDBRANCH  23  28
ENDBRANCH  17  20
ENDBRANCH  15  16
ENDBRANCH   1  15
BRANCH   9  30
HETATM   30  C   UNL     1     -42.183  59.282 -59.022  1.00  0.00     0.175 C 
BRANCH  30  31
HETATM   31  C   UNL     1     -43.445  58.498 -59.319  1.00  0.00    -0.040 A 
HETATM   32  C   UNL     1     -43.368  57.254 -59.964  1.00  0.00     0.010 A 
HETATM   33  C   UNL     1     -44.530  56.564 -60.318  1.00  0.00     0.024 A 
HETATM   34  C   UNL     1     -45.776  57.114 -60.029  1.00  0.00     0.034 A 
HETATM   35 CL   UNL     1     -47.206  56.279 -60.488  1.00  0.00    -0.084 Cl
HETATM   36  C   UNL     1     -45.870  58.346 -59.383  1.00  0.00     0.024 A 
HETATM   37  C   UNL     1     -44.707  59.039 -59.031  1.00  0.00     0.010 A 
ENDBRANCH  30  31
ENDBRANCH   9  30
TORSDOF 7
ENDMDL
MODEL 5
REMARK VINA RESULT:      -8.1      3.806      8.556
REMARK  7 active torsions:
REMARK  status: ('A' for Active; 'I' for Inactive)
REMARK    1  A    between atoms: O_2  and  C_3 
REMARK    2  A    between atoms: C_4  and  O_5 
REMARK    3  A    between atoms: C_8  and  N_9 
REMARK       I    between atoms: N_9  and  C_10 
REMARK    4  A    between atoms: C_10  and  C_11 
REMARK    5  A    between atoms: C_11  and  N_12 
REMARK    6  A    between atoms: N_20  and  C_21 
REMARK    7  A    between atoms: C_21  and  C_22 
ROOT
HETATM    1  N   UNL     1     -43.716  58.654 -53.684  1.00  0.00    -0.063 N 
HETATM    2  H   UNL     1     -44.333  59.231 -53.075  1.00  0.00     0.280 HD
HETATM    3  C   UNL     1     -42.831  59.632 -54.403  1.00  0.00     0.238 C 
HETATM    4  C   UNL     1     -42.044  58.924 -55.502  1.00  0.00     0.069 C 
HETATM    5  C   UNL     1     -42.958  58.126 -56.440  1.00  0.00     0.119 C 
HETATM    6  N   UNL     1     -42.187  57.400 -57.422  1.00  0.00    -0.324 N 
HETATM    7  C   UNL     1     -42.198  58.019 -58.654  1.00  0.00     0.326 C 
HETATM    8  O   UNL     1     -41.485  57.679 -59.580  1.00  0.00    -0.247 OA
HETATM    9  N   UNL     1     -43.094  59.042 -58.611  1.00  0.00    -0.264 N 
HETATM   10  C   UNL     1     -43.664  59.122 -57.377  1.00  0.00     0.256 C 
HETATM   11  O   UNL     1     -44.518  59.914 -57.000  1.00  0.00    -0.270 OA
HETATM   12  C   UNL     1     -43.923  57.209 -55.696  1.00  0.00     0.069 C 
HETATM   13  C   UNL     1     -44.667  57.922 -54.579  1.00  0.00     0.238 C 
HETATM   14  H   UNL     1     -41.505  56.666 -57.254  1.00  0.00     0.165 HD
ENDROOT
BRANCH   1  15
HETATM   15  C   UNL     1     -42.961  57.801 -52.640  1.00  0.00     0.337 C 
BRANCH  15  16
HETATM   16  C   UNL     1     -43.951  56.813 -52.025  1.00  0.00     0.248 C 
HETATM   17  N   UNL     1     -43.755  55.470 -51.983  1.00  0.00    -0.326 N 
HETATM   18  H   UNL     1     -44.429  55.015 -51.370  1.00  0.00     0.169 HD
HETATM   19  O   UNL     1     -44.902  57.299 -51.397  1.00  0.00    -0.271 OA
BRANCH  17  20
HETATM   20  C   UNL     1     -42.755  54.640 -52.510  1.00  0.00     0.037 A 
HETATM   21  C   UNL     1     -41.692  54.116 -51.782  1.00  0.00     0.069 A 
HETATM   22  C   UNL     1     -40.796  53.231 -52.394  1.00  0.00     0.103 A 
HETATM   23  C   UNL     1     -40.893  52.914 -53.757  1.00  0.00     0.101 A 
HETATM   24  C   UNL     1     -41.929  53.483 -54.494  1.00  0.00     0.042 A 
HETATM   25  C   UNL     1     -42.845  54.343 -53.877  1.00  0.00     0.032 A 
BRANCH  22  26
HETATM   26  O   UNL     1     -39.759  52.753 -51.634  1.00  0.00    -0.353 OA
HETATM   27  C   UNL     1     -40.255  52.070 -50.484  1.00  0.00     0.210 C 
ENDBRANCH  22  26
BRANCH  23  28
HETATM   28  O   UNL     1     -39.961  52.045 -54.253  1.00  0.00    -0.353 OA
HETATM   29  C   UNL     1     -40.321  50.668 -54.291  1.00  0.00     0.210 C 
ENDBRANCH  23  28
ENDBRANCH  17  20
ENDBRANCH  15  16
ENDBRANCH   1  15
BRANCH   9  30
HETATM   30  C   UNL     1     -43.271  60.010 -59.671  1.00  0.00     0.175 C 
BRANCH  30  31
HETATM   31  C   UNL     1     -42.075  60.940 -59.718  1.00  0.00    -0.040 A 
HETATM   32  C   UNL     1     -41.470  61.373 -58.528  1.00  0.00     0.010 A 
HETATM   33  C   UNL     1     -40.423  62.297 -58.557  1.00  0.00     0.024 A 
HETATM   34  C   UNL     1     -39.974  62.792 -59.779  1.00  0.00     0.034 A 
HETATM   35 CL   UNL     1     -38.703  63.949 -59.816  1.00  0.00    -0.084 Cl
HETATM   36  C   UNL     1     -40.558  62.367 -60.970  1.00  0.00     0.024 A 
HETATM   37  C   UNL     1     -41.609  61.445 -60.941  1.00  0.00     0.010 A 
ENDBRANCH  30  31
ENDBRANCH   9  30
TORSDOF 7
ENDMDL
MODEL 6
REMARK VINA RESULT:      -8.0      3.516      8.775
REMARK  7 active torsions:
REMARK  status: ('A' for Active; 'I' for Inactive)
REMARK    1  A    between atoms: O_2  and  C_3 
REMARK    2  A    between atoms: C_4  and  O_5 
REMARK    3  A    between atoms: C_8  and  N_9 
REMARK       I    between atoms: N_9  and  C_10 
REMARK    4  A    between atoms: C_10  and  C_11 
REMARK    5  A    between atoms: C_11  and  N_12 
REMARK    6  A    between atoms: N_20  and  C_21 
REMARK    7  A    between atoms: C_21  and  C_22 
ROOT
HETATM    1  N   UNL     1     -42.537  57.395 -53.120  1.00  0.00    -0.063 N 
HETATM    2  H   UNL     1     -42.909  58.016 -52.372  1.00  0.00     0.280 HD
HETATM    3  C   UNL     1     -42.054  58.317 -54.204  1.00  0.00     0.238 C 
HETATM    4  C   UNL     1     -41.704  57.522 -55.458  1.00  0.00     0.069 C 
HETATM    5  C   UNL     1     -42.858  56.613 -55.901  1.00  0.00     0.119 C 
HETATM    6  N   UNL     1     -42.477  55.811 -57.041  1.00  0.00    -0.324 N 
HETATM    7  C   UNL     1     -42.994  56.304 -58.221  1.00  0.00     0.326 C 
HETATM    8  O   UNL     1     -42.669  55.890 -59.318  1.00  0.00    -0.247 OA
HETATM    9  N   UNL     1     -43.865  57.304 -57.921  1.00  0.00    -0.264 N 
HETATM   10  C   UNL     1     -43.926  57.494 -56.574  1.00  0.00     0.256 C 
HETATM   11  O   UNL     1     -44.616  58.299 -55.964  1.00  0.00    -0.270 OA
HETATM   12  C   UNL     1     -43.409  55.753 -54.771  1.00  0.00     0.069 C 
HETATM   13  C   UNL     1     -43.712  56.556 -53.516  1.00  0.00     0.238 C 
HETATM   14  H   UNL     1     -41.740  55.114 -57.088  1.00  0.00     0.165 HD
ENDROOT
BRANCH   1  15
HETATM   15  C   UNL     1     -41.392  56.668 -52.381  1.00  0.00     0.337 C 
BRANCH  15  16
HETATM   16  C   UNL     1     -41.997  55.884 -51.218  1.00  0.00     0.248 C 
HETATM   17  N   UNL     1     -41.753  54.570 -50.981  1.00  0.00    -0.326 N 
HETATM   18  H   UNL     1     -42.091  54.289 -50.062  1.00  0.00     0.169 HD
HETATM   19  O   UNL     1     -42.615  56.541 -50.368  1.00  0.00    -0.271 OA
BRANCH  17  20
HETATM   20  C   UNL     1     -41.036  53.595 -51.689  1.00  0.00     0.037 A 
HETATM   21  C   UNL     1     -40.310  52.562 -51.105  1.00  0.00     0.069 A 
HETATM   22  C   UNL     1     -39.699  51.596 -51.914  1.00  0.00     0.103 A 
HETATM   23  C   UNL     1     -39.729  51.683 -53.313  1.00  0.00     0.101 A 
HETATM   24  C   UNL     1     -40.412  52.750 -53.893  1.00  0.00     0.042 A 
HETATM   25  C   UNL     1     -41.052  53.699 -53.087  1.00  0.00     0.032 A 
BRANCH  22  26
HETATM   26  O   UNL     1     -38.985  50.605 -51.288  1.00  0.00    -0.353 OA
HETATM   27  C   UNL     1     -39.860  49.739 -50.566  1.00  0.00     0.210 C 
ENDBRANCH  22  26
BRANCH  23  28
HETATM   28  O   UNL     1     -39.092  50.690 -54.004  1.00  0.00    -0.353 OA
HETATM   29  C   UNL     1     -39.916  49.741 -54.673  1.00  0.00     0.210 C 
ENDBRANCH  23  28
ENDBRANCH  17  20
ENDBRANCH  15  16
ENDBRANCH   1  15
BRANCH   9  30
HETATM   30  C   UNL     1     -44.490  58.158 -58.908  1.00  0.00     0.175 C 
BRANCH  30  31
HETATM   31  C   UNL     1     -43.476  59.150 -59.442  1.00  0.00    -0.040 A 
HETATM   32  C   UNL     1     -42.762  59.974 -58.558  1.00  0.00     0.010 A 
HETATM   33  C   UNL     1     -41.888  60.949 -59.044  1.00  0.00     0.024 A 
HETATM   34  C   UNL     1     -41.724  61.106 -60.418  1.00  0.00     0.034 A 
HETATM   35 CL   UNL     1     -40.670  62.324 -61.018  1.00  0.00    -0.084 Cl
HETATM   36  C   UNL     1     -42.420  60.291 -61.309  1.00  0.00     0.024 A 
HETATM   37  C   UNL     1     -43.297  59.317 -60.823  1.00  0.00     0.010 A 
ENDBRANCH  30  31
ENDBRANCH   9  30
TORSDOF 7
ENDMDL
MODEL 7
REMARK VINA RESULT:      -7.9      1.858      2.719
REMARK  7 active torsions:
REMARK  status: ('A' for Active; 'I' for Inactive)
REMARK    1  A    between atoms: O_2  and  C_3 
REMARK    2  A    between atoms: C_4  and  O_5 
REMARK    3  A    between atoms: C_8  and  N_9 
REMARK       I    between atoms: N_9  and  C_10 
REMARK    4  A    between atoms: C_10  and  C_11 
REMARK    5  A    between atoms: C_11  and  N_12 
REMARK    6  A    between atoms: N_20  and  C_21 
REMARK    7  A    between atoms: C_21  and  C_22 
ROOT
HETATM    1  N   UNL     1     -42.376  59.952 -53.613  1.00  0.00    -0.063 N 
HETATM    2  H   UNL     1     -41.617  60.625 -53.851  1.00  0.00     0.280 HD
HETATM    3  C   UNL     1     -42.129  59.555 -52.185  1.00  0.00     0.238 C 
HETATM    4  C   UNL     1     -43.035  58.391 -51.796  1.00  0.00     0.069 C 
HETATM    5  C   UNL     1     -42.921  57.221 -52.782  1.00  0.00     0.119 C 
HETATM    6  N   UNL     1     -43.845  56.165 -52.441  1.00  0.00    -0.324 N 
HETATM    7  C   UNL     1     -43.221  55.113 -51.803  1.00  0.00     0.326 C 
HETATM    8  O   UNL     1     -43.825  54.196 -51.279  1.00  0.00    -0.247 OA
HETATM    9  N   UNL     1     -41.878  55.318 -51.855  1.00  0.00    -0.264 N 
HETATM   10  C   UNL     1     -41.600  56.486 -52.498  1.00  0.00     0.256 C 
HETATM   11  O   UNL     1     -40.498  56.965 -52.732  1.00  0.00    -0.270 OA
HETATM   12  C   UNL     1     -43.074  57.649 -54.237  1.00  0.00     0.069 C 
HETATM   13  C   UNL     1     -42.194  58.836 -54.595  1.00  0.00     0.238 C 
HETATM   14  H   UNL     1     -44.859  56.213 -52.417  1.00  0.00     0.165 HD
ENDROOT
BRANCH   1  15
HETATM   15  C   UNL     1     -43.636  60.828 -53.794  1.00  0.00     0.337 C 
BRANCH  15  16
HETATM   16  C   UNL     1     -43.209  62.153 -54.424  1.00  0.00     0.248 C 
HETATM   17  N   UNL     1     -42.989  62.324 -55.753  1.00  0.00    -0.326 N 
HETATM   18  H   UNL     1     -42.902  63.311 -55.991  1.00  0.00     0.169 HD
HETATM   19  O   UNL     1     -43.225  63.149 -53.687  1.00  0.00    -0.271 OA
BRANCH  17  20
HETATM   20  C   UNL     1     -42.982  61.434 -56.837  1.00  0.00     0.037 A 
HETATM   21  C   UNL     1     -44.080  60.696 -57.265  1.00  0.00     0.069 A 
HETATM   22  C   UNL     1     -43.980  59.898 -58.411  1.00  0.00     0.103 A 
HETATM   23  C   UNL     1     -42.769  59.757 -59.104  1.00  0.00     0.101 A 
HETATM   24  C   UNL     1     -41.658  60.457 -58.640  1.00  0.00     0.042 A 
HETATM   25  C   UNL     1     -41.763  61.281 -57.512  1.00  0.00     0.032 A 
BRANCH  22  26
HETATM   26  O   UNL     1     -45.089  59.181 -58.783  1.00  0.00    -0.353 OA
HETATM   27  C   UNL     1     -45.354  58.145 -57.838  1.00  0.00     0.210 C 
ENDBRANCH  22  26
BRANCH  23  28
HETATM   28  O   UNL     1     -42.782  58.946 -60.205  1.00  0.00    -0.353 OA
HETATM   29  C   UNL     1     -42.100  57.701 -60.095  1.00  0.00     0.210 C 
ENDBRANCH  23  28
ENDBRANCH  17  20
ENDBRANCH  15  16
ENDBRANCH   1  15
BRANCH   9  30
HETATM   30  C   UNL     1     -40.905  54.501 -51.162  1.00  0.00     0.175 C 
BRANCH  30  31
HETATM   31  C   UNL     1     -40.483  53.347 -52.049  1.00  0.00    -0.040 A 
HETATM   32  C   UNL     1     -40.834  53.336 -53.409  1.00  0.00     0.010 A 
HETATM   33  C   UNL     1     -40.524  52.238 -54.214  1.00  0.00     0.024 A 
HETATM   34  C   UNL     1     -39.861  51.144 -53.665  1.00  0.00     0.034 A 
HETATM   35 CL   UNL     1     -39.503  49.781 -54.648  1.00  0.00    -0.084 Cl
HETATM   36  C   UNL     1     -39.499  51.141 -52.319  1.00  0.00     0.024 A 
HETATM   37  C   UNL     1     -39.813  52.239 -51.511  1.00  0.00     0.010 A 
ENDBRANCH  30  31
ENDBRANCH   9  30
TORSDOF 7
ENDMDL
MODEL 8
REMARK VINA RESULT:      -7.8      1.417      1.998
REMARK  7 active torsions:
REMARK  status: ('A' for Active; 'I' for Inactive)
REMARK    1  A    between atoms: O_2  and  C_3 
REMARK    2  A    between atoms: C_4  and  O_5 
REMARK    3  A    between atoms: C_8  and  N_9 
REMARK       I    between atoms: N_9  and  C_10 
REMARK    4  A    between atoms: C_10  and  C_11 
REMARK    5  A    between atoms: C_11  and  N_12 
REMARK    6  A    between atoms: N_20  and  C_21 
REMARK    7  A    between atoms: C_21  and  C_22 
ROOT
HETATM    1  N   UNL     1     -44.304  58.997 -55.820  1.00  0.00    -0.063 N 
HETATM    2  H   UNL     1     -45.133  58.745 -56.398  1.00  0.00     0.280 HD
HETATM    3  C   UNL     1     -43.458  57.757 -55.768  1.00  0.00     0.238 C 
HETATM    4  C   UNL     1     -42.331  57.928 -54.753  1.00  0.00     0.069 C 
HETATM    5  C   UNL     1     -42.858  58.363 -53.380  1.00  0.00     0.119 C 
HETATM    6  N   UNL     1     -41.770  58.597 -52.459  1.00  0.00    -0.324 N 
HETATM    7  C   UNL     1     -41.604  57.552 -51.573  1.00  0.00     0.326 C 
HETATM    8  O   UNL     1     -40.651  57.457 -50.823  1.00  0.00    -0.247 OA
HETATM    9  N   UNL     1     -42.646  56.692 -51.727  1.00  0.00    -0.264 N 
HETATM   10  C   UNL     1     -43.489  57.135 -52.700  1.00  0.00     0.256 C 
HETATM   11  O   UNL     1     -44.528  56.614 -53.082  1.00  0.00    -0.270 OA
HETATM   12  C   UNL     1     -43.796  59.562 -53.453  1.00  0.00     0.069 C 
HETATM   13  C   UNL     1     -44.886  59.391 -54.498  1.00  0.00     0.238 C 
HETATM   14  H   UNL     1     -41.030  59.289 -52.537  1.00  0.00     0.165 HD
ENDROOT
BRANCH   1  15
HETATM   15  C   UNL     1     -43.674  60.131 -56.659  1.00  0.00     0.337 C 
BRANCH  15  16
HETATM   16  C   UNL     1     -44.778  60.775 -57.497  1.00  0.00     0.248 C 
HETATM   17  N   UNL     1     -45.445  60.136 -58.491  1.00  0.00    -0.326 N 
HETATM   18  H   UNL     1     -46.261  60.666 -58.792  1.00  0.00     0.169 HD
HETATM   19  O   UNL     1     -45.178  61.888 -57.127  1.00  0.00    -0.271 OA
BRANCH  17  20
HETATM   20  C   UNL     1     -45.295  58.868 -59.073  1.00  0.00     0.037 A 
HETATM   21  C   UNL     1     -44.102  58.362 -59.578  1.00  0.00     0.069 A 
HETATM   22  C   UNL     1     -44.053  57.050 -60.063  1.00  0.00     0.103 A 
HETATM   23  C   UNL     1     -45.200  56.247 -60.131  1.00  0.00     0.101 A 
HETATM   24  C   UNL     1     -46.404  56.778 -59.672  1.00  0.00     0.042 A 
HETATM   25  C   UNL     1     -46.450  58.078 -59.157  1.00  0.00     0.032 A 
BRANCH  22  26
HETATM   26  O   UNL     1     -42.854  56.604 -60.561  1.00  0.00    -0.353 OA
HETATM   27  C   UNL     1     -41.814  57.537 -60.270  1.00  0.00     0.210 C 
ENDBRANCH  22  26
BRANCH  23  28
HETATM   28  O   UNL     1     -45.038  54.984 -60.630  1.00  0.00    -0.353 OA
HETATM   29  C   UNL     1     -44.735  53.956 -59.693  1.00  0.00     0.210 C 
ENDBRANCH  23  28
ENDBRANCH  17  20
ENDBRANCH  15  16
ENDBRANCH   1  15
BRANCH   9  30
HETATM   30  C   UNL     1     -42.737  55.405 -51.073  1.00  0.00     0.175 C 
BRANCH  30  31
HETATM   31  C   UNL     1     -41.831  54.412 -51.773  1.00  0.00    -0.040 A 
HETATM   32  C   UNL     1     -42.088  54.035 -53.101  1.00  0.00     0.010 A 
HETATM   33  C   UNL     1     -41.310  53.058 -53.726  1.00  0.00     0.024 A 
HETATM   34  C   UNL     1     -40.270  52.451 -53.026  1.00  0.00     0.034 A 
HETATM   35 CL   UNL     1     -39.330  51.229 -53.784  1.00  0.00    -0.084 Cl
HETATM   36  C   UNL     1     -39.997  52.819 -51.710  1.00  0.00     0.024 A 
HETATM   37  C   UNL     1     -40.778  53.794 -51.082  1.00  0.00     0.010 A 
ENDBRANCH  30  31
ENDBRANCH   9  30
TORSDOF 7
ENDMDL
MODEL 9
REMARK VINA RESULT:      -7.7      3.524      8.756
REMARK  7 active torsions:
REMARK  status: ('A' for Active; 'I' for Inactive)
REMARK    1  A    between atoms: O_2  and  C_3 
REMARK    2  A    between atoms: C_4  and  O_5 
REMARK    3  A    between atoms: C_8  and  N_9 
REMARK       I    between atoms: N_9  and  C_10 
REMARK    4  A    between atoms: C_10  and  C_11 
REMARK    5  A    between atoms: C_11  and  N_12 
REMARK    6  A    between atoms: N_20  and  C_21 
REMARK    7  A    between atoms: C_21  and  C_22 
ROOT
HETATM    1  N   UNL     1     -43.116  57.993 -54.018  1.00  0.00    -0.063 N 
HETATM    2  H   UNL     1     -43.651  58.627 -53.389  1.00  0.00     0.280 HD
HETATM    3  C   UNL     1     -42.650  58.857 -55.156  1.00  0.00     0.238 C 
HETATM    4  C   UNL     1     -42.057  57.994 -56.266  1.00  0.00     0.069 C 
HETATM    5  C   UNL     1     -43.017  56.880 -56.702  1.00  0.00     0.119 C 
HETATM    6  N   UNL     1     -42.405  56.028 -57.695  1.00  0.00    -0.324 N 
HETATM    7  C   UNL     1     -42.853  56.308 -58.969  1.00  0.00     0.326 C 
HETATM    8  O   UNL     1     -42.355  55.834 -59.972  1.00  0.00    -0.247 OA
HETATM    9  N   UNL     1     -43.883  57.192 -58.875  1.00  0.00    -0.264 N 
HETATM   10  C   UNL     1     -44.117  57.513 -57.573  1.00  0.00     0.256 C 
HETATM   11  O   UNL     1     -44.976  58.265 -57.132  1.00  0.00    -0.270 OA
HETATM   12  C   UNL     1     -43.565  56.071 -55.531  1.00  0.00     0.069 C 
HETATM   13  C   UNL     1     -44.112  56.948 -54.417  1.00  0.00     0.238 C 
HETATM   14  H   UNL     1     -41.579  55.448 -57.588  1.00  0.00     0.165 HD
ENDROOT
BRANCH   1  15
HETATM   15  C   UNL     1     -41.969  57.530 -53.093  1.00  0.00     0.337 C 
BRANCH  15  16
HETATM   16  C   UNL     1     -42.557  57.237 -51.713  1.00  0.00     0.248 C 
HETATM   17  N   UNL     1     -42.277  56.124 -50.990  1.00  0.00    -0.326 N 
HETATM   18  H   UNL     1     -42.612  56.208 -50.032  1.00  0.00     0.169 HD
HETATM   19  O   UNL     1     -43.199  58.153 -51.178  1.00  0.00    -0.271 OA
BRANCH  17  20
HETATM   20  C   UNL     1     -41.528  54.972 -51.273  1.00  0.00     0.037 A 
HETATM   21  C   UNL     1     -41.468  54.348 -52.514  1.00  0.00     0.069 A 
HETATM   22  C   UNL     1     -40.621  53.248 -52.701  1.00  0.00     0.103 A 
HETATM   23  C   UNL     1     -39.884  52.700 -51.643  1.00  0.00     0.101 A 
HETATM   24  C   UNL     1     -39.988  53.297 -50.388  1.00  0.00     0.042 A 
HETATM   25  C   UNL     1     -40.809  54.416 -50.205  1.00  0.00     0.032 A 
BRANCH  22  26
HETATM   26  O   UNL     1     -40.610  52.663 -53.942  1.00  0.00    -0.353 OA
HETATM   27  C   UNL     1     -40.281  53.623 -54.945  1.00  0.00     0.210 C 
ENDBRANCH  22  26
BRANCH  23  28
HETATM   28  O   UNL     1     -39.096  51.622 -51.936  1.00  0.00    -0.353 OA
HETATM   29  C   UNL     1     -39.479  50.373 -51.369  1.00  0.00     0.210 C 
ENDBRANCH  23  28
ENDBRANCH  17  20
ENDBRANCH  15  16
ENDBRANCH   1  15
BRANCH   9  30
HETATM   30  C   UNL     1     -44.509  57.831 -60.012  1.00  0.00     0.175 C 
BRANCH  30  31
HETATM   31  C   UNL     1     -43.867  59.183 -60.255  1.00  0.00    -0.040 A 
HETATM   32  C   UNL     1     -42.532  59.265 -60.680  1.00  0.00     0.010 A 
HETATM   33  C   UNL     1     -41.906  60.505 -60.823  1.00  0.00     0.024 A 
HETATM   34  C   UNL     1     -42.613  61.672 -60.544  1.00  0.00     0.034 A 
HETATM   35 CL   UNL     1     -41.837  63.198 -60.694  1.00  0.00    -0.084 Cl
HETATM   36  C   UNL     1     -43.942  61.609 -60.128  1.00  0.00     0.024 A 
HETATM   37  C   UNL     1     -44.568  60.367 -59.980  1.00  0.00     0.010 A 
ENDBRANCH  30  31
ENDBRANCH   9  30
TORSDOF 7
ENDMDL
MODEL 10
REMARK VINA RESULT:      -7.7      4.950      9.223
REMARK  7 active torsions:
REMARK  status: ('A' for Active; 'I' for Inactive)
REMARK    1  A    between atoms: O_2  and  C_3 
REMARK    2  A    between atoms: C_4  and  O_5 
REMARK    3  A    between atoms: C_8  and  N_9 
REMARK       I    between atoms: N_9  and  C_10 
REMARK    4  A    between atoms: C_10  and  C_11 
REMARK    5  A    between atoms: C_11  and  N_12 
REMARK    6  A    between atoms: N_20  and  C_21 
REMARK    7  A    between atoms: C_21  and  C_22 
ROOT
HETATM    1  N   UNL     1     -42.574  56.476 -52.658  1.00  0.00    -0.063 N 
HETATM    2  H   UNL     1     -41.604  56.110 -52.552  1.00  0.00     0.280 HD
HETATM    3  C   UNL     1     -42.425  57.822 -53.309  1.00  0.00     0.238 C 
HETATM    4  C   UNL     1     -43.759  58.562 -53.301  1.00  0.00     0.069 C 
HETATM    5  C   UNL     1     -44.371  58.629 -51.896  1.00  0.00     0.119 C 
HETATM    6  N   UNL     1     -45.669  59.262 -51.925  1.00  0.00    -0.324 N 
HETATM    7  C   UNL     1     -45.621  60.569 -51.487  1.00  0.00     0.326 C 
HETATM    8  O   UNL     1     -46.556  61.341 -51.584  1.00  0.00    -0.247 OA
HETATM    9  N   UNL     1     -44.380  60.806 -50.985  1.00  0.00    -0.264 N 
HETATM   10  C   UNL     1     -43.602  59.693 -51.093  1.00  0.00     0.256 C 
HETATM   11  O   UNL     1     -42.443  59.555 -50.727  1.00  0.00    -0.270 OA
HETATM   12  C   UNL     1     -44.425  57.272 -51.203  1.00  0.00     0.069 C 
HETATM   13  C   UNL     1     -43.099  56.532 -51.257  1.00  0.00     0.238 C 
HETATM   14  H   UNL     1     -46.502  58.943 -52.411  1.00  0.00     0.165 HD
ENDROOT
BRANCH   1  15
HETATM   15  C   UNL     1     -43.206  55.415 -53.587  1.00  0.00     0.337 C 
BRANCH  15  16
HETATM   16  C   UNL     1     -42.298  55.244 -54.804  1.00  0.00     0.248 C 
HETATM   17  N   UNL     1     -41.271  54.358 -54.865  1.00  0.00    -0.326 N 
HETATM   18  H   UNL     1     -40.917  54.265 -55.815  1.00  0.00     0.169 HD
HETATM   19  O   UNL     1     -42.633  55.844 -55.835  1.00  0.00    -0.271 OA
BRANCH  17  20
HETATM   20  C   UNL     1     -40.711  53.487 -53.918  1.00  0.00     0.037 A 
HETATM   21  C   UNL     1     -40.568  53.771 -52.564  1.00  0.00     0.069 A 
HETATM   22  C   UNL     1     -40.068  52.792 -51.696  1.00  0.00     0.103 A 
HETATM   23  C   UNL     1     -39.628  51.548 -52.168  1.00  0.00     0.101 A 
HETATM   24  C   UNL     1     -39.724  51.288 -53.533  1.00  0.00     0.042 A 
HETATM   25  C   UNL     1     -40.253  52.253 -54.399  1.00  0.00     0.032 A 
BRANCH  22  26
HETATM   26  O   UNL     1     -39.935  53.129 -50.373  1.00  0.00    -0.353 OA
HETATM   27  C   UNL     1     -40.185  54.521 -50.183  1.00  0.00     0.210 C 
ENDBRANCH  22  26
BRANCH  23  28
HETATM   28  O   UNL     1     -39.150  50.671 -51.234  1.00  0.00    -0.353 OA
HETATM   29  C   UNL     1     -39.991  49.574 -50.892  1.00  0.00     0.210 C 
ENDBRANCH  23  28
ENDBRANCH  17  20
ENDBRANCH  15  16
ENDBRANCH   1  15
BRANCH   9  30
HETATM   30  C   UNL     1     -43.909  62.110 -50.569  1.00  0.00     0.175 C 
BRANCH  30  31
HETATM   31  C   UNL     1     -44.394  62.403 -49.163  1.00  0.00    -0.040 A 
HETATM   32  C   UNL     1     -44.528  63.730 -48.726  1.00  0.00     0.010 A 
HETATM   33  C   UNL     1     -44.892  64.010 -47.406  1.00  0.00     0.024 A 
HETATM   34  C   UNL     1     -45.123  62.964 -46.517  1.00  0.00     0.034 A 
HETATM   35 CL   UNL     1     -45.544  63.307 -44.886  1.00  0.00    -0.084 Cl
HETATM   36  C   UNL     1     -45.001  61.641 -46.937  1.00  0.00     0.024 A 
HETATM   37  C   UNL     1     -44.633  61.360 -48.257  1.00  0.00     0.010 A 
ENDBRANCH  30  31
ENDBRANCH   9  30
TORSDOF 7
ENDMDL
