MODEL 1
REMARK VINA RESULT:      -7.1      0.000      0.000
REMARK  5 active torsions:
REMARK  status: ('A' for Active; 'I' for Inactive)
REMARK    1  A    between atoms: C_8  and  C_9 
REMARK    2  A    between atoms: C_11  and  O_12 
REMARK    3  A    between atoms: C_14  and  O_15 
REMARK    4  A    between atoms: C_18  and  C_19 
REMARK    5  A    between atoms: C_22  and  O_23 
ROOT
HETATM    1  C   UNL     1     -45.998  58.288 -56.770  1.00  0.00     0.070 C 
HETATM    2  C   UNL     1     -45.294  58.330 -55.468  1.00  0.00     0.033 A 
HETATM    3  N   UNL     1     -45.603  59.262 -54.514  1.00  0.00    -0.282 N 
HETATM    4  H   UNL     1     -46.292  60.005 -54.565  1.00  0.00     0.189 HD
HETATM    5  N   UNL     1     -44.898  59.135 -53.380  1.00  0.00    -0.179 NA
HETATM    6  C   UNL     1     -44.131  58.067 -53.608  1.00  0.00     0.066 A 
HETATM    7  C   UNL     1     -44.283  57.559 -54.922  1.00  0.00     0.001 A 
HETATM    8  C   UNL     1     -43.509  56.372 -55.418  1.00  0.00     0.070 C 
HETATM    9  C   UNL     1     -42.309  56.047 -54.485  1.00  0.00     0.102 C 
HETATM   10  C   UNL     1     -42.702  56.090 -52.975  1.00  0.00     0.071 C 
HETATM   11  C   UNL     1     -41.520  55.731 -52.062  1.00  0.00     0.047 C 
HETATM   12  C   UNL     1     -43.210  57.507 -52.581  1.00  0.00     0.100 C 
ENDROOT
BRANCH   8  13
HETATM   13  C   UNL     1     -43.070  56.707 -56.840  1.00  0.00    -0.046 A 
HETATM   14  C   UNL     1     -43.429  55.839 -57.892  1.00  0.00     0.047 A 
HETATM   15  C   UNL     1     -43.049  56.118 -59.206  1.00  0.00     0.101 A 
HETATM   16  C   UNL     1     -42.264  57.245 -59.459  1.00  0.00     0.099 A 
HETATM   17  C   UNL     1     -41.898  58.115 -58.444  1.00  0.00     0.040 A 
HETATM   18  C   UNL     1     -42.310  57.854 -57.138  1.00  0.00     0.011 A 
BRANCH  15  19
HETATM   19  O   UNL     1     -43.366  55.363 -60.307  1.00  0.00    -0.353 OA
HETATM   20  C   UNL     1     -44.717  54.919 -60.381  1.00  0.00     0.210 C 
ENDBRANCH  15  19
BRANCH  16  21
HETATM   21  O   UNL     1     -41.852  57.525 -60.733  1.00  0.00    -0.358 OA
HETATM   22  H   UNL     1     -40.877  57.478 -60.700  1.00  0.00     0.218 HD
ENDBRANCH  16  21
ENDBRANCH   8  13
BRANCH   9  23
HETATM   23  C   UNL     1     -41.765  54.676 -54.861  1.00  0.00     0.131 C 
HETATM   24  C   UNL     1     -40.288  54.558 -55.134  1.00  0.00     0.091 C 
HETATM   25  O   UNL     1     -42.511  53.697 -54.953  1.00  0.00    -0.298 OA
ENDBRANCH   9  23
BRANCH  10  26
HETATM   26  O   UNL     1     -43.750  55.147 -52.700  1.00  0.00    -0.389 OA
HETATM   27  H   UNL     1     -44.372  55.156 -53.459  1.00  0.00     0.210 HD
ENDBRANCH  10  26
TORSDOF 5
ENDMDL
MODEL 2
REMARK VINA RESULT:      -6.5      4.019      6.016
REMARK  5 active torsions:
REMARK  status: ('A' for Active; 'I' for Inactive)
REMARK    1  A    between atoms: C_8  and  C_9 
REMARK    2  A    between atoms: C_11  and  O_12 
REMARK    3  A    between atoms: C_14  and  O_15 
REMARK    4  A    between atoms: C_18  and  C_19 
REMARK    5  A    between atoms: C_22  and  O_23 
ROOT
HETATM    1  C   UNL     1     -39.876  53.275 -55.240  1.00  0.00     0.070 C 
HETATM    2  C   UNL     1     -40.021  52.774 -53.853  1.00  0.00     0.033 A 
HETATM    3  N   UNL     1     -39.799  51.459 -53.538  1.00  0.00    -0.282 N 
HETATM    4  H   UNL     1     -39.540  50.702 -54.161  1.00  0.00     0.189 HD
HETATM    5  N   UNL     1     -39.936  51.183 -52.232  1.00  0.00    -0.179 NA
HETATM    6  C   UNL     1     -40.229  52.366 -51.692  1.00  0.00     0.066 A 
HETATM    7  C   UNL     1     -40.364  53.390 -52.663  1.00  0.00     0.001 A 
HETATM    8  C   UNL     1     -40.711  54.804 -52.296  1.00  0.00     0.070 C 
HETATM    9  C   UNL     1     -41.256  54.896 -50.843  1.00  0.00     0.102 C 
HETATM   10  C   UNL     1     -40.404  54.063 -49.836  1.00  0.00     0.071 C 
HETATM   11  C   UNL     1     -40.927  54.189 -48.397  1.00  0.00     0.047 C 
HETATM   12  C   UNL     1     -40.410  52.556 -50.226  1.00  0.00     0.100 C 
ENDROOT
BRANCH   8  13
HETATM   13  C   UNL     1     -41.723  55.282 -53.332  1.00  0.00    -0.046 A 
HETATM   14  C   UNL     1     -41.418  56.411 -54.121  1.00  0.00     0.047 A 
HETATM   15  C   UNL     1     -42.318  56.872 -55.083  1.00  0.00     0.101 A 
HETATM   16  C   UNL     1     -43.552  56.230 -55.218  1.00  0.00     0.099 A 
HETATM   17  C   UNL     1     -43.877  55.119 -54.456  1.00  0.00     0.040 A 
HETATM   18  C   UNL     1     -42.960  54.637 -53.523  1.00  0.00     0.011 A 
BRANCH  15  19
HETATM   19  O   UNL     1     -42.115  57.936 -55.923  1.00  0.00    -0.353 OA
HETATM   20  C   UNL     1     -42.114  59.219 -55.302  1.00  0.00     0.210 C 
ENDBRANCH  15  19
BRANCH  16  21
HETATM   21  O   UNL     1     -44.466  56.680 -56.131  1.00  0.00    -0.358 OA
HETATM   22  H   UNL     1     -44.915  57.427 -55.692  1.00  0.00     0.218 HD
ENDBRANCH  16  21
ENDBRANCH   8  13
BRANCH   9  23
HETATM   23  C   UNL     1     -41.291  56.362 -50.435  1.00  0.00     0.131 C 
HETATM   24  C   UNL     1     -42.619  57.071 -50.482  1.00  0.00     0.091 C 
HETATM   25  O   UNL     1     -40.263  56.953 -50.092  1.00  0.00    -0.298 OA
ENDBRANCH   9  23
BRANCH  10  26
HETATM   26  O   UNL     1     -39.041  54.517 -49.831  1.00  0.00    -0.389 OA
HETATM   27  H   UNL     1     -38.588  54.104 -49.065  1.00  0.00     0.210 HD
ENDBRANCH  10  26
TORSDOF 5
ENDMDL
MODEL 3
REMARK VINA RESULT:      -6.3     17.321     19.146
REMARK  5 active torsions:
REMARK  status: ('A' for Active; 'I' for Inactive)
REMARK    1  A    between atoms: C_8  and  C_9 
REMARK    2  A    between atoms: C_11  and  O_12 
REMARK    3  A    between atoms: C_14  and  O_15 
REMARK    4  A    between atoms: C_18  and  C_19 
REMARK    5  A    between atoms: C_22  and  O_23 
ROOT
HETATM    1  C   UNL     1     -31.710  40.135 -56.646  1.00  0.00     0.070 C 
HETATM    2  C   UNL     1     -31.972  39.639 -55.275  1.00  0.00     0.033 A 
HETATM    3  N   UNL     1     -31.160  38.711 -54.680  1.00  0.00    -0.282 N 
HETATM    4  H   UNL     1     -30.338  38.258 -55.068  1.00  0.00     0.189 HD
HETATM    5  N   UNL     1     -31.517  38.400 -53.425  1.00  0.00    -0.179 NA
HETATM    6  C   UNL     1     -32.579  39.176 -53.203  1.00  0.00     0.066 A 
HETATM    7  C   UNL     1     -32.955  39.925 -54.345  1.00  0.00     0.001 A 
HETATM    8  C   UNL     1     -34.133  40.856 -54.342  1.00  0.00     0.070 C 
HETATM    9  C   UNL     1     -35.056  40.599 -53.119  1.00  0.00     0.102 C 
HETATM   10  C   UNL     1     -34.251  40.429 -51.793  1.00  0.00     0.071 C 
HETATM   11  C   UNL     1     -35.173  40.213 -50.584  1.00  0.00     0.047 C 
HETATM   12  C   UNL     1     -33.284  39.214 -51.891  1.00  0.00     0.100 C 
ENDROOT
BRANCH   8  13
HETATM   13  C   UNL     1     -34.851  40.647 -55.671  1.00  0.00    -0.046 A 
HETATM   14  C   UNL     1     -35.321  39.359 -56.003  1.00  0.00     0.047 A 
HETATM   15  C   UNL     1     -35.988  39.133 -57.208  1.00  0.00     0.101 A 
HETATM   16  C   UNL     1     -36.139  40.191 -58.108  1.00  0.00     0.099 A 
HETATM   17  C   UNL     1     -35.687  41.467 -57.807  1.00  0.00     0.040 A 
HETATM   18  C   UNL     1     -35.054  41.698 -56.586  1.00  0.00     0.011 A 
BRANCH  15  19
HETATM   19  O   UNL     1     -36.512  37.934 -57.620  1.00  0.00    -0.353 OA
HETATM   20  C   UNL     1     -36.737  36.975 -56.590  1.00  0.00     0.210 C 
ENDBRANCH  15  19
BRANCH  16  21
HETATM   21  O   UNL     1     -36.761  39.991 -59.310  1.00  0.00    -0.358 OA
HETATM   22  H   UNL     1     -36.335  39.196 -59.685  1.00  0.00     0.218 HD
ENDBRANCH  16  21
ENDBRANCH   8  13
BRANCH   9  23
HETATM   23  C   UNL     1     -36.039  41.757 -53.007  1.00  0.00     0.131 C 
HETATM   24  C   UNL     1     -37.509  41.433 -53.029  1.00  0.00     0.091 C 
HETATM   25  O   UNL     1     -35.643  42.923 -52.916  1.00  0.00    -0.298 OA
ENDBRANCH   9  23
BRANCH  10  26
HETATM   26  O   UNL     1     -33.469  41.603 -51.523  1.00  0.00    -0.389 OA
HETATM   27  H   UNL     1     -33.952  42.142 -50.861  1.00  0.00     0.210 HD
ENDBRANCH  10  26
TORSDOF 5
ENDMDL
MODEL 4
REMARK VINA RESULT:      -6.2      3.327      6.676
REMARK  5 active torsions:
REMARK  status: ('A' for Active; 'I' for Inactive)
REMARK    1  A    between atoms: C_8  and  C_9 
REMARK    2  A    between atoms: C_11  and  O_12 
REMARK    3  A    between atoms: C_14  and  O_15 
REMARK    4  A    between atoms: C_18  and  C_19 
REMARK    5  A    between atoms: C_22  and  O_23 
ROOT
HETATM    1  C   UNL     1     -41.731  55.116 -50.101  1.00  0.00     0.070 C 
HETATM    2  C   UNL     1     -41.444  54.667 -51.483  1.00  0.00     0.033 A 
HETATM    3  N   UNL     1     -40.570  53.643 -51.738  1.00  0.00    -0.282 N 
HETATM    4  H   UNL     1     -40.030  53.101 -51.072  1.00  0.00     0.189 HD
HETATM    5  N   UNL     1     -40.455  53.338 -53.040  1.00  0.00    -0.179 NA
HETATM    6  C   UNL     1     -41.303  54.179 -53.632  1.00  0.00     0.066 A 
HETATM    7  C   UNL     1     -41.903  55.083 -52.720  1.00  0.00     0.001 A 
HETATM    8  C   UNL     1     -42.879  56.136 -53.157  1.00  0.00     0.070 C 
HETATM    9  C   UNL     1     -42.839  56.343 -54.697  1.00  0.00     0.102 C 
HETATM   10  C   UNL     1     -42.818  54.992 -55.477  1.00  0.00     0.071 C 
HETATM   11  C   UNL     1     -42.816  55.205 -56.998  1.00  0.00     0.047 C 
HETATM   12  C   UNL     1     -41.557  54.161 -55.100  1.00  0.00     0.100 C 
ENDROOT
BRANCH   8  13
HETATM   13  C   UNL     1     -42.520  57.403 -52.387  1.00  0.00    -0.046 A 
HETATM   14  C   UNL     1     -41.205  57.907 -52.468  1.00  0.00     0.047 A 
HETATM   15  C   UNL     1     -40.843  59.067 -51.782  1.00  0.00     0.101 A 
HETATM   16  C   UNL     1     -41.790  59.696 -50.969  1.00  0.00     0.099 A 
HETATM   17  C   UNL     1     -43.089  59.222 -50.871  1.00  0.00     0.040 A 
HETATM   18  C   UNL     1     -43.458  58.085 -51.588  1.00  0.00     0.011 A 
BRANCH  15  19
HETATM   19  O   UNL     1     -39.608  59.662 -51.811  1.00  0.00    -0.353 OA
HETATM   20  C   UNL     1     -38.721  59.291 -50.760  1.00  0.00     0.210 C 
ENDBRANCH  15  19
BRANCH  16  21
HETATM   21  O   UNL     1     -41.454  60.817 -50.260  1.00  0.00    -0.358 OA
HETATM   22  H   UNL     1     -40.879  60.497 -49.539  1.00  0.00     0.218 HD
ENDBRANCH  16  21
ENDBRANCH   8  13
BRANCH   9  23
HETATM   23  C   UNL     1     -44.045  57.179 -55.101  1.00  0.00     0.131 C 
HETATM   24  C   UNL     1     -43.797  58.414 -55.926  1.00  0.00     0.091 C 
HETATM   25  O   UNL     1     -45.186  56.863 -54.752  1.00  0.00    -0.298 OA
ENDBRANCH   9  23
BRANCH  10  26
HETATM   26  O   UNL     1     -43.980  54.209 -55.162  1.00  0.00    -0.389 OA
HETATM   27  H   UNL     1     -44.680  54.432 -55.812  1.00  0.00     0.210 HD
ENDBRANCH  10  26
TORSDOF 5
ENDMDL
MODEL 5
REMARK VINA RESULT:      -6.2      2.602      4.153
REMARK  5 active torsions:
REMARK  status: ('A' for Active; 'I' for Inactive)
REMARK    1  A    between atoms: C_8  and  C_9 
REMARK    2  A    between atoms: C_11  and  O_12 
REMARK    3  A    between atoms: C_14  and  O_15 
REMARK    4  A    between atoms: C_18  and  C_19 
REMARK    5  A    between atoms: C_22  and  O_23 
ROOT
HETATM    1  C   UNL     1     -42.971  54.825 -55.983  1.00  0.00     0.070 C 
HETATM    2  C   UNL     1     -43.401  56.050 -55.269  1.00  0.00     0.033 A 
HETATM    3  N   UNL     1     -44.024  55.990 -54.051  1.00  0.00    -0.282 N 
HETATM    4  H   UNL     1     -44.271  55.165 -53.515  1.00  0.00     0.189 HD
HETATM    5  N   UNL     1     -44.311  57.191 -53.527  1.00  0.00    -0.179 NA
HETATM    6  C   UNL     1     -43.831  58.047 -54.431  1.00  0.00     0.066 A 
HETATM    7  C   UNL     1     -43.310  57.396 -55.576  1.00  0.00     0.001 A 
HETATM    8  C   UNL     1     -42.732  58.153 -56.736  1.00  0.00     0.070 C 
HETATM    9  C   UNL     1     -43.122  59.656 -56.684  1.00  0.00     0.102 C 
HETATM   10  C   UNL     1     -42.957  60.263 -55.256  1.00  0.00     0.071 C 
HETATM   11  C   UNL     1     -43.308  61.758 -55.221  1.00  0.00     0.047 C 
HETATM   12  C   UNL     1     -43.872  59.524 -54.237  1.00  0.00     0.100 C 
ENDROOT
BRANCH   8  13
HETATM   13  C   UNL     1     -43.238  57.461 -57.997  1.00  0.00    -0.046 A 
HETATM   14  C   UNL     1     -44.623  57.445 -58.265  1.00  0.00     0.047 A 
HETATM   15  C   UNL     1     -45.121  56.827 -59.412  1.00  0.00     0.101 A 
HETATM   16  C   UNL     1     -44.231  56.176 -60.271  1.00  0.00     0.099 A 
HETATM   17  C   UNL     1     -42.865  56.176 -60.033  1.00  0.00     0.040 A 
HETATM   18  C   UNL     1     -42.367  56.827 -58.905  1.00  0.00     0.011 A 
BRANCH  15  19
HETATM   19  O   UNL     1     -46.439  56.776 -59.787  1.00  0.00    -0.353 OA
HETATM   20  C   UNL     1     -46.999  58.008 -60.233  1.00  0.00     0.210 C 
ENDBRANCH  15  19
BRANCH  16  21
HETATM   21  O   UNL     1     -44.694  55.534 -61.387  1.00  0.00    -0.358 OA
HETATM   22  H   UNL     1     -45.255  56.192 -61.841  1.00  0.00     0.218 HD
ENDBRANCH  16  21
ENDBRANCH   8  13
BRANCH   9  23
HETATM   23  C   UNL     1     -42.264  60.410 -57.691  1.00  0.00     0.131 C 
HETATM   24  C   UNL     1     -42.958  61.039 -58.871  1.00  0.00     0.091 C 
HETATM   25  O   UNL     1     -41.041  60.491 -57.553  1.00  0.00    -0.298 OA
ENDBRANCH   9  23
BRANCH  10  26
HETATM   26  O   UNL     1     -41.598  60.138 -54.808  1.00  0.00    -0.389 OA
HETATM   27  H   UNL     1     -41.011  60.399 -55.549  1.00  0.00     0.210 HD
ENDBRANCH  10  26
TORSDOF 5
ENDMDL
MODEL 6
REMARK VINA RESULT:      -6.0      3.306      6.621
REMARK  5 active torsions:
REMARK  status: ('A' for Active; 'I' for Inactive)
REMARK    1  A    between atoms: C_8  and  C_9 
REMARK    2  A    between atoms: C_11  and  O_12 
REMARK    3  A    between atoms: C_14  and  O_15 
REMARK    4  A    between atoms: C_18  and  C_19 
REMARK    5  A    between atoms: C_22  and  O_23 
ROOT
HETATM    1  C   UNL     1     -41.738  55.328 -50.052  1.00  0.00     0.070 C 
HETATM    2  C   UNL     1     -41.446  54.859 -51.426  1.00  0.00     0.033 A 
HETATM    3  N   UNL     1     -40.554  53.848 -51.666  1.00  0.00    -0.282 N 
HETATM    4  H   UNL     1     -40.001  53.328 -50.992  1.00  0.00     0.189 HD
HETATM    5  N   UNL     1     -40.437  53.521 -52.962  1.00  0.00    -0.179 NA
HETATM    6  C   UNL     1     -41.303  54.335 -53.567  1.00  0.00     0.066 A 
HETATM    7  C   UNL     1     -41.917  55.243 -52.669  1.00  0.00     0.001 A 
HETATM    8  C   UNL     1     -42.915  56.269 -53.122  1.00  0.00     0.070 C 
HETATM    9  C   UNL     1     -42.884  56.448 -54.665  1.00  0.00     0.102 C 
HETATM   10  C   UNL     1     -42.839  55.083 -55.421  1.00  0.00     0.071 C 
HETATM   11  C   UNL     1     -42.847  55.268 -56.945  1.00  0.00     0.047 C 
HETATM   12  C   UNL     1     -41.561  54.284 -55.033  1.00  0.00     0.100 C 
ENDROOT
BRANCH   8  13
HETATM   13  C   UNL     1     -42.578  57.556 -52.377  1.00  0.00    -0.046 A 
HETATM   14  C   UNL     1     -43.594  58.222 -51.660  1.00  0.00     0.047 A 
HETATM   15  C   UNL     1     -43.319  59.399 -50.962  1.00  0.00     0.101 A 
HETATM   16  C   UNL     1     -42.032  59.939 -51.025  1.00  0.00     0.099 A 
HETATM   17  C   UNL     1     -41.015  59.305 -51.721  1.00  0.00     0.040 A 
HETATM   18  C   UNL     1     -41.283  58.109 -52.386  1.00  0.00     0.011 A 
BRANCH  15  19
HETATM   19  O   UNL     1     -44.219  60.112 -50.211  1.00  0.00    -0.353 OA
HETATM   20  C   UNL     1     -45.428  60.469 -50.875  1.00  0.00     0.210 C 
ENDBRANCH  15  19
BRANCH  16  21
HETATM   21  O   UNL     1     -41.743  61.108 -50.375  1.00  0.00    -0.358 OA
HETATM   22  H   UNL     1     -41.920  60.923 -49.433  1.00  0.00     0.218 HD
ENDBRANCH  16  21
ENDBRANCH   8  13
BRANCH   9  23
HETATM   23  C   UNL     1     -44.108  57.252 -55.081  1.00  0.00     0.131 C 
HETATM   24  C   UNL     1     -43.885  58.492 -55.907  1.00  0.00     0.091 C 
HETATM   25  O   UNL     1     -45.243  56.909 -54.740  1.00  0.00    -0.298 OA
ENDBRANCH   9  23
BRANCH  10  26
HETATM   26  O   UNL     1     -43.985  54.284 -55.087  1.00  0.00    -0.389 OA
HETATM   27  H   UNL     1     -43.926  54.054 -54.134  1.00  0.00     0.210 HD
ENDBRANCH  10  26
TORSDOF 5
ENDMDL
MODEL 7
REMARK VINA RESULT:      -6.0      2.673      3.970
REMARK  5 active torsions:
REMARK  status: ('A' for Active; 'I' for Inactive)
REMARK    1  A    between atoms: C_8  and  C_9 
REMARK    2  A    between atoms: C_11  and  O_12 
REMARK    3  A    between atoms: C_14  and  O_15 
REMARK    4  A    between atoms: C_18  and  C_19 
REMARK    5  A    between atoms: C_22  and  O_23 
ROOT
HETATM    1  C   UNL     1     -43.275  54.279 -55.135  1.00  0.00     0.070 C 
HETATM    2  C   UNL     1     -43.298  54.897 -53.789  1.00  0.00     0.033 A 
HETATM    3  N   UNL     1     -43.628  54.176 -52.673  1.00  0.00    -0.282 N 
HETATM    4  H   UNL     1     -43.897  53.199 -52.616  1.00  0.00     0.189 HD
HETATM    5  N   UNL     1     -43.562  54.878 -51.532  1.00  0.00    -0.179 NA
HETATM    6  C   UNL     1     -43.149  56.081 -51.931  1.00  0.00     0.066 A 
HETATM    7  C   UNL     1     -43.030  56.178 -53.339  1.00  0.00     0.001 A 
HETATM    8  C   UNL     1     -42.599  57.442 -54.024  1.00  0.00     0.070 C 
HETATM    9  C   UNL     1     -42.681  58.663 -53.066  1.00  0.00     0.102 C 
HETATM   10  C   UNL     1     -42.088  58.352 -51.656  1.00  0.00     0.071 C 
HETATM   11  C   UNL     1     -42.139  59.574 -50.728  1.00  0.00     0.047 C 
HETATM   12  C   UNL     1     -42.870  57.191 -50.976  1.00  0.00     0.100 C 
ENDROOT
BRANCH   8  13
HETATM   13  C   UNL     1     -43.498  57.598 -55.247  1.00  0.00    -0.046 A 
HETATM   14  C   UNL     1     -42.944  57.429 -56.533  1.00  0.00     0.047 A 
HETATM   15  C   UNL     1     -43.738  57.558 -57.673  1.00  0.00     0.101 A 
HETATM   16  C   UNL     1     -45.083  57.908 -57.526  1.00  0.00     0.099 A 
HETATM   17  C   UNL     1     -45.653  58.079 -56.274  1.00  0.00     0.040 A 
HETATM   18  C   UNL     1     -44.866  57.913 -55.135  1.00  0.00     0.011 A 
BRANCH  15  19
HETATM   19  O   UNL     1     -43.314  57.387 -58.967  1.00  0.00    -0.353 OA
HETATM   20  C   UNL     1     -42.911  56.065 -59.312  1.00  0.00     0.210 C 
ENDBRANCH  15  19
BRANCH  16  21
HETATM   21  O   UNL     1     -45.877  58.072 -58.628  1.00  0.00    -0.358 OA
HETATM   22  H   UNL     1     -45.933  57.185 -59.032  1.00  0.00     0.218 HD
ENDBRANCH  16  21
ENDBRANCH   8  13
BRANCH   9  23
HETATM   23  C   UNL     1     -41.949  59.831 -53.711  1.00  0.00     0.131 C 
HETATM   24  C   UNL     1     -42.743  61.076 -54.011  1.00  0.00     0.091 C 
HETATM   25  O   UNL     1     -40.750  59.755 -53.993  1.00  0.00    -0.298 OA
ENDBRANCH   9  23
BRANCH  10  26
HETATM   26  O   UNL     1     -40.710  57.960 -51.764  1.00  0.00    -0.389 OA
HETATM   27  H   UNL     1     -40.637  57.312 -52.498  1.00  0.00     0.210 HD
ENDBRANCH  10  26
TORSDOF 5
ENDMDL
MODEL 8
REMARK VINA RESULT:      -6.0     16.596     18.965
REMARK  5 active torsions:
REMARK  status: ('A' for Active; 'I' for Inactive)
REMARK    1  A    between atoms: C_8  and  C_9 
REMARK    2  A    between atoms: C_11  and  O_12 
REMARK    3  A    between atoms: C_14  and  O_15 
REMARK    4  A    between atoms: C_18  and  C_19 
REMARK    5  A    between atoms: C_22  and  O_23 
ROOT
HETATM    1  C   UNL     1     -36.806  41.867 -52.933  1.00  0.00     0.070 C 
HETATM    2  C   UNL     1     -35.462  41.403 -52.518  1.00  0.00     0.033 A 
HETATM    3  N   UNL     1     -34.817  41.943 -51.438  1.00  0.00    -0.282 N 
HETATM    4  H   UNL     1     -35.136  42.688 -50.827  1.00  0.00     0.189 HD
HETATM    5  N   UNL     1     -33.627  41.381 -51.177  1.00  0.00    -0.179 NA
HETATM    6  C   UNL     1     -33.521  40.432 -52.108  1.00  0.00     0.066 A 
HETATM    7  C   UNL     1     -34.605  40.438 -53.020  1.00  0.00     0.001 A 
HETATM    8  C   UNL     1     -34.697  39.474 -54.166  1.00  0.00     0.070 C 
HETATM    9  C   UNL     1     -33.333  38.777 -54.431  1.00  0.00     0.102 C 
HETATM   10  C   UNL     1     -32.649  38.292 -53.115  1.00  0.00     0.071 C 
HETATM   11  C   UNL     1     -31.320  37.571 -53.389  1.00  0.00     0.047 C 
HETATM   12  C   UNL     1     -32.364  39.495 -52.170  1.00  0.00     0.100 C 
ENDROOT
BRANCH   8  13
HETATM   13  C   UNL     1     -35.187  40.276 -55.367  1.00  0.00    -0.046 A 
HETATM   14  C   UNL     1     -36.418  39.937 -55.965  1.00  0.00     0.047 A 
HETATM   15  C   UNL     1     -36.899  40.654 -57.061  1.00  0.00     0.101 A 
HETATM   16  C   UNL     1     -36.118  41.683 -57.593  1.00  0.00     0.099 A 
HETATM   17  C   UNL     1     -34.905  42.038 -57.025  1.00  0.00     0.040 A 
HETATM   18  C   UNL     1     -34.444  41.345 -55.906  1.00  0.00     0.011 A 
BRANCH  15  19
HETATM   19  O   UNL     1     -38.092  40.432 -57.701  1.00  0.00    -0.353 OA
HETATM   20  C   UNL     1     -38.163  39.236 -58.473  1.00  0.00     0.210 C 
ENDBRANCH  15  19
BRANCH  16  21
HETATM   21  O   UNL     1     -36.552  42.382 -58.686  1.00  0.00    -0.358 OA
HETATM   22  H   UNL     1     -36.563  43.316 -58.401  1.00  0.00     0.218 HD
ENDBRANCH  16  21
ENDBRANCH   8  13
BRANCH   9  23
HETATM   23  C   UNL     1     -33.567  37.608 -55.378  1.00  0.00     0.131 C 
HETATM   24  C   UNL     1     -32.898  37.654 -56.727  1.00  0.00     0.091 C 
HETATM   25  O   UNL     1     -34.291  36.662 -55.057  1.00  0.00    -0.298 OA
ENDBRANCH   9  23
BRANCH  10  26
HETATM   26  O   UNL     1     -33.496  37.365 -52.418  1.00  0.00    -0.389 OA
HETATM   27  H   UNL     1     -33.443  36.501 -52.880  1.00  0.00     0.210 HD
ENDBRANCH  10  26
TORSDOF 5
ENDMDL
MODEL 9
REMARK VINA RESULT:      -5.9      2.700      4.343
REMARK  5 active torsions:
REMARK  status: ('A' for Active; 'I' for Inactive)
REMARK    1  A    between atoms: C_8  and  C_9 
REMARK    2  A    between atoms: C_11  and  O_12 
REMARK    3  A    between atoms: C_14  and  O_15 
REMARK    4  A    between atoms: C_18  and  C_19 
REMARK    5  A    between atoms: C_22  and  O_23 
ROOT
HETATM    1  C   UNL     1     -39.912  54.443 -55.060  1.00  0.00     0.070 C 
HETATM    2  C   UNL     1     -40.842  54.441 -53.907  1.00  0.00     0.033 A 
HETATM    3  N   UNL     1     -40.846  53.424 -52.989  1.00  0.00    -0.282 N 
HETATM    4  H   UNL     1     -40.269  52.589 -52.978  1.00  0.00     0.189 HD
HETATM    5  N   UNL     1     -41.722  53.597 -51.988  1.00  0.00    -0.179 NA
HETATM    6  C   UNL     1     -42.278  54.778 -52.263  1.00  0.00     0.066 A 
HETATM    7  C   UNL     1     -41.820  55.325 -53.486  1.00  0.00     0.001 A 
HETATM    8  C   UNL     1     -42.317  56.639 -54.015  1.00  0.00     0.070 C 
HETATM    9  C   UNL     1     -43.611  57.092 -53.283  1.00  0.00     0.102 C 
HETATM   10  C   UNL     1     -43.511  56.912 -51.736  1.00  0.00     0.071 C 
HETATM   11  C   UNL     1     -44.779  57.397 -51.017  1.00  0.00     0.047 C 
HETATM   12  C   UNL     1     -43.286  55.417 -51.371  1.00  0.00     0.100 C 
ENDROOT
BRANCH   8  13
HETATM   13  C   UNL     1     -42.530  56.448 -55.513  1.00  0.00    -0.046 A 
HETATM   14  C   UNL     1     -42.147  57.477 -56.399  1.00  0.00     0.047 A 
HETATM   15  C   UNL     1     -42.321  57.333 -57.776  1.00  0.00     0.101 A 
HETATM   16  C   UNL     1     -42.929  56.174 -58.265  1.00  0.00     0.099 A 
HETATM   17  C   UNL     1     -43.314  55.147 -57.417  1.00  0.00     0.040 A 
HETATM   18  C   UNL     1     -43.104  55.277 -56.045  1.00  0.00     0.011 A 
BRANCH  15  19
HETATM   19  O   UNL     1     -41.960  58.252 -58.728  1.00  0.00    -0.353 OA
HETATM   20  C   UNL     1     -41.794  59.588 -58.262  1.00  0.00     0.210 C 
ENDBRANCH  15  19
BRANCH  16  21
HETATM   21  O   UNL     1     -43.140  56.020 -59.607  1.00  0.00    -0.358 OA
HETATM   22  H   UNL     1     -42.365  56.433 -60.034  1.00  0.00     0.218 HD
ENDBRANCH  16  21
ENDBRANCH   8  13
BRANCH   9  23
HETATM   23  C   UNL     1     -43.882  58.547 -53.640  1.00  0.00     0.131 C 
HETATM   24  C   UNL     1     -45.126  58.855 -54.430  1.00  0.00     0.091 C 
HETATM   25  O   UNL     1     -43.100  59.441 -53.305  1.00  0.00    -0.298 OA
ENDBRANCH   9  23
BRANCH  10  26
HETATM   26  O   UNL     1     -42.412  57.672 -51.210  1.00  0.00    -0.389 OA
HETATM   27  H   UNL     1     -41.951  58.099 -51.964  1.00  0.00     0.210 HD
ENDBRANCH  10  26
TORSDOF 5
ENDMDL
MODEL 10
REMARK VINA RESULT:      -5.9     16.262     18.054
REMARK  5 active torsions:
REMARK  status: ('A' for Active; 'I' for Inactive)
REMARK    1  A    between atoms: C_8  and  C_9 
REMARK    2  A    between atoms: C_11  and  O_12 
REMARK    3  A    between atoms: C_14  and  O_15 
REMARK    4  A    between atoms: C_18  and  C_19 
REMARK    5  A    between atoms: C_22  and  O_23 
ROOT
HETATM    1  C   UNL     1     -38.975  41.107 -54.980  1.00  0.00     0.070 C 
HETATM    2  C   UNL     1     -37.707  41.206 -54.221  1.00  0.00     0.033 A 
HETATM    3  N   UNL     1     -37.625  41.908 -53.047  1.00  0.00    -0.282 N 
HETATM    4  H   UNL     1     -38.358  42.429 -52.578  1.00  0.00     0.189 HD
HETATM    5  N   UNL     1     -36.415  41.863 -52.470  1.00  0.00    -0.179 NA
HETATM    6  C   UNL     1     -35.708  41.084 -53.290  1.00  0.00     0.066 A 
HETATM    7  C   UNL     1     -36.439  40.696 -54.439  1.00  0.00     0.001 A 
HETATM    8  C   UNL     1     -35.846  39.834 -55.515  1.00  0.00     0.070 C 
HETATM    9  C   UNL     1     -34.298  39.762 -55.396  1.00  0.00     0.102 C 
HETATM   10  C   UNL     1     -33.827  39.531 -53.926  1.00  0.00     0.071 C 
HETATM   11  C   UNL     1     -32.298  39.424 -53.822  1.00  0.00     0.047 C 
HETATM   12  C   UNL     1     -34.296  40.699 -53.010  1.00  0.00     0.100 C 
ENDROOT
BRANCH   8  13
HETATM   13  C   UNL     1     -36.303  40.427 -56.844  1.00  0.00    -0.046 A 
HETATM   14  C   UNL     1     -36.960  39.599 -57.777  1.00  0.00     0.047 A 
HETATM   15  C   UNL     1     -37.397  40.111 -59.000  1.00  0.00     0.101 A 
HETATM   16  C   UNL     1     -37.128  41.446 -59.311  1.00  0.00     0.099 A 
HETATM   17  C   UNL     1     -36.485  42.282 -58.412  1.00  0.00     0.040 A 
HETATM   18  C   UNL     1     -36.083  41.779 -57.175  1.00  0.00     0.011 A 
BRANCH  15  19
HETATM   19  O   UNL     1     -38.070  39.408 -59.967  1.00  0.00    -0.353 OA
HETATM   20  C   UNL     1     -38.760  38.246 -59.515  1.00  0.00     0.210 C 
ENDBRANCH  15  19
BRANCH  16  21
HETATM   21  O   UNL     1     -37.518  41.966 -60.515  1.00  0.00    -0.358 OA
HETATM   22  H   UNL     1     -38.013  42.777 -60.292  1.00  0.00     0.218 HD
ENDBRANCH  16  21
ENDBRANCH   8  13
BRANCH   9  23
HETATM   23  C   UNL     1     -33.797  38.646 -56.303  1.00  0.00     0.131 C 
HETATM   24  C   UNL     1     -32.761  38.996 -57.338  1.00  0.00     0.091 C 
HETATM   25  O   UNL     1     -34.237  37.497 -56.202  1.00  0.00    -0.298 OA
ENDBRANCH   9  23
BRANCH  10  26
HETATM   26  O   UNL     1     -34.372  38.309 -53.407  1.00  0.00    -0.389 OA
HETATM   27  H   UNL     1     -33.683  37.614 -53.482  1.00  0.00     0.210 HD
ENDBRANCH  10  26
TORSDOF 5
ENDMDL
