MODEL 1
REMARK VINA RESULT:      -8.7      0.000      0.000
REMARK  7 active torsions:
REMARK  status: ('A' for Active; 'I' for Inactive)
REMARK       I    between atoms: C_2  and  N_3 
REMARK       I    between atoms: C_2  and  N_12 
REMARK    1  A    between atoms: N_3  and  C_4 
REMARK    2  A    between atoms: C_16  and  C_17 
REMARK    3  A    between atoms: C_21  and  C_23 
REMARK       I    between atoms: C_23  and  N_25 
REMARK    4  A    between atoms: N_25  and  C_26 
REMARK    5  A    between atoms: C_29  and  C_30 
REMARK    6  A    between atoms: C_30  and  C_31 
REMARK    7  A    between atoms: C_31  and  N_32 
ROOT
HETATM    1  C   UNL     1     -42.792  59.143 -54.724  1.00  0.00     0.037 A 
HETATM    2  C   UNL     1     -43.933  58.338 -54.699  1.00  0.00     0.029 A 
HETATM    3  C   UNL     1     -44.301  57.663 -53.531  1.00  0.00     0.004 A 
HETATM    4  C   UNL     1     -43.531  57.786 -52.377  1.00  0.00     0.023 A 
HETATM    5  C   UNL     1     -42.386  58.587 -52.390  1.00  0.00     0.046 A 
HETATM    6  C   UNL     1     -42.020  59.262 -53.560  1.00  0.00     0.052 A 
HETATM    7  C   UNL     1     -41.579  58.704 -51.211  1.00  0.00     0.099 C 
HETATM    8  N   UNL     1     -40.917  58.790 -50.261  1.00  0.00    -0.191 NA
ENDROOT
BRANCH   1   9
HETATM    9  N   UNL     1     -42.327  59.810 -55.874  1.00  0.00    -0.309 N 
HETATM   10  C   UNL     1     -42.599  61.096 -56.281  1.00  0.00     0.323 C 
HETATM   11  O   UNL     1     -43.112  61.960 -55.574  1.00  0.00    -0.247 OA
HETATM   12  N   UNL     1     -42.278  61.359 -57.601  1.00  0.00    -0.325 N 
HETATM   13  C   UNL     1     -42.482  62.690 -58.148  1.00  0.00     0.128 C 
HETATM   14  C   UNL     1     -41.681  60.464 -58.597  1.00  0.00     0.122 C 
HETATM   15  C   UNL     1     -42.406  62.510 -59.655  1.00  0.00     0.022 C 
HETATM   16  C   UNL     1     -41.421  61.358 -59.818  1.00  0.00     0.032 C 
HETATM   17  H   UNL     1     -41.700  59.286 -56.459  1.00  0.00     0.170 HD
BRANCH  14  18
HETATM   18  C   UNL     1     -42.551  59.259 -58.906  1.00  0.00    -0.034 A 
HETATM   19  C   UNL     1     -43.590  59.306 -59.850  1.00  0.00     0.009 A 
HETATM   20  C   UNL     1     -44.414  58.200 -60.067  1.00  0.00     0.002 A 
HETATM   21  C   UNL     1     -44.227  57.031 -59.331  1.00  0.00     0.017 A 
HETATM   22  C   UNL     1     -43.204  56.968 -58.379  1.00  0.00     0.033 A 
HETATM   23  C   UNL     1     -42.354  58.067 -58.190  1.00  0.00     0.026 A 
BRANCH  22  24
HETATM   24  C   UNL     1     -42.983  55.753 -57.548  1.00  0.00     0.256 C 
HETATM   25  O   UNL     1     -43.562  54.723 -57.871  1.00  0.00    -0.267 OA
HETATM   26  N   UNL     1     -42.078  55.917 -56.517  1.00  0.00    -0.323 N 
HETATM   27  H   UNL     1     -41.567  56.791 -56.484  1.00  0.00     0.169 HD
BRANCH  26  28
HETATM   28  C   UNL     1     -41.729  54.973 -55.528  1.00  0.00     0.035 A 
HETATM   29  C   UNL     1     -42.610  54.512 -54.550  1.00  0.00     0.030 A 
HETATM   30  C   UNL     1     -42.174  53.615 -53.569  1.00  0.00     0.009 A 
HETATM   31  C   UNL     1     -40.852  53.154 -53.553  1.00  0.00    -0.056 A 
HETATM   32  C   UNL     1     -39.974  53.606 -54.543  1.00  0.00     0.009 A 
HETATM   33  C   UNL     1     -40.408  54.508 -55.520  1.00  0.00     0.030 A 
BRANCH  31  34
HETATM   34  C   UNL     1     -40.366  52.234 -52.456  1.00  0.00     0.068 C 
BRANCH  34  35
HETATM   35  C   UNL     1     -40.697  52.746 -51.042  1.00  0.00     0.277 C 
BRANCH  35  36
HETATM   36  N   UNL     1     -40.042  54.033 -50.737  1.00  0.00     0.092 N 
HETATM   37  C   UNL     1     -40.977  55.182 -50.723  1.00  0.00     0.298 C 
HETATM   38  C   UNL     1     -41.910  55.223 -49.501  1.00  0.00     0.198 C 
HETATM   39  O   UNL     1     -41.166  55.203 -48.277  1.00  0.00    -0.388 OA
HETATM   40  C   UNL     1     -40.317  54.049 -48.217  1.00  0.00     0.198 C 
HETATM   41  C   UNL     1     -39.362  53.992 -49.421  1.00  0.00     0.298 C 
ENDBRANCH  35  36
ENDBRANCH  34  35
ENDBRANCH  31  34
ENDBRANCH  26  28
ENDBRANCH  22  24
ENDBRANCH  14  18
ENDBRANCH   1   9
TORSDOF 7
ENDMDL
MODEL 2
REMARK VINA RESULT:      -8.2      1.878      2.526
REMARK  7 active torsions:
REMARK  status: ('A' for Active; 'I' for Inactive)
REMARK       I    between atoms: C_2  and  N_3 
REMARK       I    between atoms: C_2  and  N_12 
REMARK    1  A    between atoms: N_3  and  C_4 
REMARK    2  A    between atoms: C_16  and  C_17 
REMARK    3  A    between atoms: C_21  and  C_23 
REMARK       I    between atoms: C_23  and  N_25 
REMARK    4  A    between atoms: N_25  and  C_26 
REMARK    5  A    between atoms: C_29  and  C_30 
REMARK    6  A    between atoms: C_30  and  C_31 
REMARK    7  A    between atoms: C_31  and  N_32 
ROOT
HETATM    1  C   UNL     1     -42.710  59.981 -55.197  1.00  0.00     0.037 A 
HETATM    2  C   UNL     1     -44.030  59.608 -54.935  1.00  0.00     0.029 A 
HETATM    3  C   UNL     1     -44.370  59.002 -53.722  1.00  0.00     0.004 A 
HETATM    4  C   UNL     1     -43.393  58.763 -52.759  1.00  0.00     0.023 A 
HETATM    5  C   UNL     1     -42.068  59.129 -53.009  1.00  0.00     0.046 A 
HETATM    6  C   UNL     1     -41.730  59.736 -54.224  1.00  0.00     0.052 A 
HETATM    7  C   UNL     1     -41.054  58.870 -52.029  1.00  0.00     0.099 C 
HETATM    8  N   UNL     1     -40.229  58.649 -51.243  1.00  0.00    -0.191 NA
ENDROOT
BRANCH   1   9
HETATM    9  N   UNL     1     -42.280  60.544 -56.414  1.00  0.00    -0.309 N 
HETATM   10  C   UNL     1     -42.580  61.783 -56.931  1.00  0.00     0.323 C 
HETATM   11  O   UNL     1     -43.089  62.702 -56.294  1.00  0.00    -0.247 OA
HETATM   12  N   UNL     1     -42.292  61.928 -58.277  1.00  0.00    -0.325 N 
HETATM   13  C   UNL     1     -42.527  63.200 -58.938  1.00  0.00     0.128 C 
HETATM   14  C   UNL     1     -41.704  60.953 -59.200  1.00  0.00     0.122 C 
HETATM   15  C   UNL     1     -42.482  62.883 -60.424  1.00  0.00     0.022 C 
HETATM   16  C   UNL     1     -41.484  61.733 -60.503  1.00  0.00     0.032 C 
HETATM   17  H   UNL     1     -41.658  59.977 -56.963  1.00  0.00     0.170 HD
BRANCH  14  18
HETATM   18  C   UNL     1     -42.563  59.713 -59.376  1.00  0.00    -0.034 A 
HETATM   19  C   UNL     1     -43.584  59.639 -60.337  1.00  0.00     0.009 A 
HETATM   20  C   UNL     1     -44.399  58.509 -60.433  1.00  0.00     0.002 A 
HETATM   21  C   UNL     1     -44.220  57.439 -59.558  1.00  0.00     0.017 A 
HETATM   22  C   UNL     1     -43.214  57.499 -58.588  1.00  0.00     0.033 A 
HETATM   23  C   UNL     1     -42.373  58.617 -58.518  1.00  0.00     0.026 A 
BRANCH  22  24
HETATM   24  C   UNL     1     -43.003  56.394 -57.613  1.00  0.00     0.256 C 
HETATM   25  O   UNL     1     -43.254  55.251 -57.976  1.00  0.00    -0.267 OA
HETATM   26  N   UNL     1     -42.477  56.790 -56.398  1.00  0.00    -0.323 N 
HETATM   27  H   UNL     1     -42.178  57.754 -56.316  1.00  0.00     0.169 HD
BRANCH  26  28
HETATM   28  C   UNL     1     -42.243  55.985 -55.265  1.00  0.00     0.035 A 
HETATM   29  C   UNL     1     -43.242  55.280 -54.594  1.00  0.00     0.030 A 
HETATM   30  C   UNL     1     -42.941  54.544 -53.442  1.00  0.00     0.009 A 
HETATM   31  C   UNL     1     -41.633  54.491 -52.946  1.00  0.00    -0.056 A 
HETATM   32  C   UNL     1     -40.629  55.186 -53.627  1.00  0.00     0.009 A 
HETATM   33  C   UNL     1     -40.933  55.927 -54.775  1.00  0.00     0.030 A 
BRANCH  31  34
HETATM   34  C   UNL     1     -41.321  53.747 -51.666  1.00  0.00     0.068 C 
BRANCH  34  35
HETATM   35  C   UNL     1     -41.097  52.238 -51.880  1.00  0.00     0.277 C 
BRANCH  35  36
HETATM   36  N   UNL     1     -39.690  51.910 -52.183  1.00  0.00     0.092 N 
HETATM   37  C   UNL     1     -39.183  50.740 -51.430  1.00  0.00     0.298 C 
HETATM   38  C   UNL     1     -39.734  49.388 -51.915  1.00  0.00     0.198 C 
HETATM   39  O   UNL     1     -39.487  49.195 -53.313  1.00  0.00    -0.388 OA
HETATM   40  C   UNL     1     -40.051  50.267 -54.080  1.00  0.00     0.198 C 
HETATM   41  C   UNL     1     -39.503  51.631 -53.627  1.00  0.00     0.298 C 
ENDBRANCH  35  36
ENDBRANCH  34  35
ENDBRANCH  31  34
ENDBRANCH  26  28
ENDBRANCH  22  24
ENDBRANCH  14  18
ENDBRANCH   1   9
TORSDOF 7
ENDMDL
MODEL 3
REMARK VINA RESULT:      -8.1      1.737      2.222
REMARK  7 active torsions:
REMARK  status: ('A' for Active; 'I' for Inactive)
REMARK       I    between atoms: C_2  and  N_3 
REMARK       I    between atoms: C_2  and  N_12 
REMARK    1  A    between atoms: N_3  and  C_4 
REMARK    2  A    between atoms: C_16  and  C_17 
REMARK    3  A    between atoms: C_21  and  C_23 
REMARK       I    between atoms: C_23  and  N_25 
REMARK    4  A    between atoms: N_25  and  C_26 
REMARK    5  A    between atoms: C_29  and  C_30 
REMARK    6  A    between atoms: C_30  and  C_31 
REMARK    7  A    between atoms: C_31  and  N_32 
ROOT
HETATM    1  C   UNL     1     -43.748  59.890 -55.365  1.00  0.00     0.037 A 
HETATM    2  C   UNL     1     -44.735  59.219 -54.638  1.00  0.00     0.029 A 
HETATM    3  C   UNL     1     -44.409  58.527 -53.468  1.00  0.00     0.004 A 
HETATM    4  C   UNL     1     -43.092  58.498 -53.014  1.00  0.00     0.023 A 
HETATM    5  C   UNL     1     -42.096  59.163 -53.732  1.00  0.00     0.046 A 
HETATM    6  C   UNL     1     -42.425  59.856 -54.903  1.00  0.00     0.052 A 
HETATM    7  C   UNL     1     -40.736  59.123 -53.279  1.00  0.00     0.099 C 
HETATM    8  N   UNL     1     -39.633  59.081 -52.922  1.00  0.00    -0.191 NA
ENDROOT
BRANCH   1   9
HETATM    9  N   UNL     1     -43.988  60.561 -56.579  1.00  0.00    -0.309 N 
HETATM   10  C   UNL     1     -44.849  61.608 -56.817  1.00  0.00     0.323 C 
HETATM   11  O   UNL     1     -45.382  62.288 -55.944  1.00  0.00    -0.247 OA
HETATM   12  N   UNL     1     -45.117  61.836 -58.155  1.00  0.00    -0.325 N 
HETATM   13  C   UNL     1     -45.983  62.935 -58.546  1.00  0.00     0.128 C 
HETATM   14  C   UNL     1     -44.597  61.130 -59.330  1.00  0.00     0.122 C 
HETATM   15  C   UNL     1     -46.356  62.645 -59.991  1.00  0.00     0.022 C 
HETATM   16  C   UNL     1     -45.124  61.928 -60.530  1.00  0.00     0.032 C 
HETATM   17  H   UNL     1     -43.445  60.250 -57.365  1.00  0.00     0.170 HD
BRANCH  14  18
HETATM   18  C   UNL     1     -44.991  59.664 -59.360  1.00  0.00    -0.034 A 
HETATM   19  C   UNL     1     -46.213  59.226 -59.896  1.00  0.00     0.009 A 
HETATM   20  C   UNL     1     -46.576  57.879 -59.853  1.00  0.00     0.002 A 
HETATM   21  C   UNL     1     -45.730  56.944 -59.257  1.00  0.00     0.017 A 
HETATM   22  C   UNL     1     -44.513  57.362 -58.709  1.00  0.00     0.033 A 
HETATM   23  C   UNL     1     -44.134  58.709 -58.787  1.00  0.00     0.026 A 
BRANCH  22  24
HETATM   24  C   UNL     1     -43.590  56.407 -58.036  1.00  0.00     0.256 C 
HETATM   25  O   UNL     1     -43.013  55.580 -58.730  1.00  0.00    -0.267 OA
HETATM   26  N   UNL     1     -43.441  56.610 -56.677  1.00  0.00    -0.323 N 
HETATM   27  H   UNL     1     -43.868  57.439 -56.283  1.00  0.00     0.169 HD
BRANCH  26  28
HETATM   28  C   UNL     1     -42.700  55.822 -55.772  1.00  0.00     0.035 A 
HETATM   29  C   UNL     1     -41.381  56.091 -55.408  1.00  0.00     0.030 A 
HETATM   30  C   UNL     1     -40.694  55.230 -54.545  1.00  0.00     0.009 A 
HETATM   31  C   UNL     1     -41.316  54.091 -54.021  1.00  0.00    -0.056 A 
HETATM   32  C   UNL     1     -42.643  53.830 -54.375  1.00  0.00     0.009 A 
HETATM   33  C   UNL     1     -43.327  54.687 -55.244  1.00  0.00     0.030 A 
BRANCH  31  34
HETATM   34  C   UNL     1     -40.552  53.129 -53.138  1.00  0.00     0.068 C 
BRANCH  34  35
HETATM   35  C   UNL     1     -40.244  53.700 -51.741  1.00  0.00     0.277 C 
BRANCH  35  36
HETATM   36  N   UNL     1     -41.240  53.294 -50.730  1.00  0.00     0.092 N 
HETATM   37  C   UNL     1     -40.635  52.856 -49.451  1.00  0.00     0.298 C 
HETATM   38  C   UNL     1     -40.054  53.999 -48.602  1.00  0.00     0.198 C 
HETATM   39  O   UNL     1     -41.038  55.006 -48.341  1.00  0.00    -0.388 OA
HETATM   40  C   UNL     1     -41.577  55.520 -49.566  1.00  0.00     0.198 C 
HETATM   41  C   UNL     1     -42.181  54.398 -50.428  1.00  0.00     0.298 C 
ENDBRANCH  35  36
ENDBRANCH  34  35
ENDBRANCH  31  34
ENDBRANCH  26  28
ENDBRANCH  22  24
ENDBRANCH  14  18
ENDBRANCH   1   9
TORSDOF 7
ENDMDL
MODEL 4
REMARK VINA RESULT:      -8.0      1.593      2.049
REMARK  7 active torsions:
REMARK  status: ('A' for Active; 'I' for Inactive)
REMARK       I    between atoms: C_2  and  N_3 
REMARK       I    between atoms: C_2  and  N_12 
REMARK    1  A    between atoms: N_3  and  C_4 
REMARK    2  A    between atoms: C_16  and  C_17 
REMARK    3  A    between atoms: C_21  and  C_23 
REMARK       I    between atoms: C_23  and  N_25 
REMARK    4  A    between atoms: N_25  and  C_26 
REMARK    5  A    between atoms: C_29  and  C_30 
REMARK    6  A    between atoms: C_30  and  C_31 
REMARK    7  A    between atoms: C_31  and  N_32 
ROOT
HETATM    1  C   UNL     1     -42.461  59.670 -54.184  1.00  0.00     0.037 A 
HETATM    2  C   UNL     1     -41.215  59.168 -53.805  1.00  0.00     0.029 A 
HETATM    3  C   UNL     1     -41.093  58.336 -52.688  1.00  0.00     0.004 A 
HETATM    4  C   UNL     1     -42.219  58.000 -51.938  1.00  0.00     0.023 A 
HETATM    5  C   UNL     1     -43.471  58.497 -52.305  1.00  0.00     0.046 A 
HETATM    6  C   UNL     1     -43.590  59.330 -53.425  1.00  0.00     0.052 A 
HETATM    7  C   UNL     1     -44.630  58.170 -51.528  1.00  0.00     0.099 C 
HETATM    8  N   UNL     1     -45.568  57.916 -50.893  1.00  0.00    -0.191 NA
ENDROOT
BRANCH   1   9
HETATM    9  N   UNL     1     -42.656  60.556 -55.262  1.00  0.00    -0.309 N 
HETATM   10  C   UNL     1     -43.274  61.785 -55.252  1.00  0.00     0.323 C 
HETATM   11  O   UNL     1     -43.551  62.421 -54.237  1.00  0.00    -0.247 OA
HETATM   12  N   UNL     1     -43.608  62.268 -56.505  1.00  0.00    -0.325 N 
HETATM   13  C   UNL     1     -44.233  63.573 -56.637  1.00  0.00     0.128 C 
HETATM   14  C   UNL     1     -43.378  61.657 -57.817  1.00  0.00     0.122 C 
HETATM   15  C   UNL     1     -44.799  63.595 -58.048  1.00  0.00     0.022 C 
HETATM   16  C   UNL     1     -43.821  62.724 -58.827  1.00  0.00     0.032 C 
HETATM   17  H   UNL     1     -42.276  60.261 -56.144  1.00  0.00     0.170 HD
BRANCH  14  18
HETATM   18  C   UNL     1     -44.098  60.331 -57.985  1.00  0.00    -0.034 A 
HETATM   19  C   UNL     1     -45.415  60.248 -58.465  1.00  0.00     0.009 A 
HETATM   20  C   UNL     1     -46.074  59.019 -58.550  1.00  0.00     0.002 A 
HETATM   21  C   UNL     1     -45.433  57.851 -58.138  1.00  0.00     0.017 A 
HETATM   22  C   UNL     1     -44.125  57.915 -57.647  1.00  0.00     0.033 A 
HETATM   23  C   UNL     1     -43.453  59.144 -57.599  1.00  0.00     0.026 A 
BRANCH  22  24
HETATM   24  C   UNL     1     -43.410  56.700 -57.168  1.00  0.00     0.256 C 
HETATM   25  O   UNL     1     -43.155  55.824 -57.985  1.00  0.00    -0.267 OA
HETATM   26  N   UNL     1     -43.055  56.729 -55.833  1.00  0.00    -0.323 N 
HETATM   27  H   UNL     1     -43.202  57.598 -55.334  1.00  0.00     0.169 HD
BRANCH  26  28
HETATM   28  C   UNL     1     -42.444  55.699 -55.089  1.00  0.00     0.035 A 
HETATM   29  C   UNL     1     -43.148  54.765 -54.331  1.00  0.00     0.030 A 
HETATM   30  C   UNL     1     -42.467  53.804 -53.576  1.00  0.00     0.009 A 
HETATM   31  C   UNL     1     -41.068  53.753 -53.572  1.00  0.00    -0.056 A 
HETATM   32  C   UNL     1     -40.362  54.680 -54.344  1.00  0.00     0.009 A 
HETATM   33  C   UNL     1     -41.044  55.645 -55.094  1.00  0.00     0.030 A 
BRANCH  31  34
HETATM   34  C   UNL     1     -40.332  52.754 -52.707  1.00  0.00     0.068 C 
BRANCH  34  35
HETATM   35  C   UNL     1     -40.009  53.291 -51.300  1.00  0.00     0.277 C 
BRANCH  35  36
HETATM   36  N   UNL     1     -41.111  53.072 -50.343  1.00  0.00     0.092 N 
HETATM   37  C   UNL     1     -40.647  52.716 -48.982  1.00  0.00     0.298 C 
HETATM   38  C   UNL     1     -40.029  53.885 -48.197  1.00  0.00     0.198 C 
HETATM   39  O   UNL     1     -40.934  54.993 -48.114  1.00  0.00    -0.388 OA
HETATM   40  C   UNL     1     -41.329  55.425 -49.423  1.00  0.00     0.198 C 
HETATM   41  C   UNL     1     -41.967  54.277 -50.224  1.00  0.00     0.298 C 
ENDBRANCH  35  36
ENDBRANCH  34  35
ENDBRANCH  31  34
ENDBRANCH  26  28
ENDBRANCH  22  24
ENDBRANCH  14  18
ENDBRANCH   1   9
TORSDOF 7
ENDMDL
MODEL 5
REMARK VINA RESULT:      -7.8      5.305     10.215
REMARK  7 active torsions:
REMARK  status: ('A' for Active; 'I' for Inactive)
REMARK       I    between atoms: C_2  and  N_3 
REMARK       I    between atoms: C_2  and  N_12 
REMARK    1  A    between atoms: N_3  and  C_4 
REMARK    2  A    between atoms: C_16  and  C_17 
REMARK    3  A    between atoms: C_21  and  C_23 
REMARK       I    between atoms: C_23  and  N_25 
REMARK    4  A    between atoms: N_25  and  C_26 
REMARK    5  A    between atoms: C_29  and  C_30 
REMARK    6  A    between atoms: C_30  and  C_31 
REMARK    7  A    between atoms: C_31  and  N_32 
ROOT
HETATM    1  C   UNL     1     -42.266  57.388 -55.500  1.00  0.00     0.037 A 
HETATM    2  C   UNL     1     -42.283  58.785 -55.499  1.00  0.00     0.029 A 
HETATM    3  C   UNL     1     -42.446  59.494 -56.693  1.00  0.00     0.004 A 
HETATM    4  C   UNL     1     -42.592  58.813 -57.900  1.00  0.00     0.023 A 
HETATM    5  C   UNL     1     -42.574  57.417 -57.915  1.00  0.00     0.046 A 
HETATM    6  C   UNL     1     -42.411  56.709 -56.718  1.00  0.00     0.052 A 
HETATM    7  C   UNL     1     -42.706  56.710 -59.155  1.00  0.00     0.099 C 
HETATM    8  N   UNL     1     -42.800  56.136 -60.159  1.00  0.00    -0.191 NA
ENDROOT
BRANCH   1   9
HETATM    9  N   UNL     1     -42.051  56.605 -54.349  1.00  0.00    -0.309 N 
HETATM   10  C   UNL     1     -42.837  55.590 -53.853  1.00  0.00     0.323 C 
HETATM   11  O   UNL     1     -43.743  55.039 -54.473  1.00  0.00    -0.247 OA
HETATM   12  N   UNL     1     -42.555  55.235 -52.546  1.00  0.00    -0.325 N 
HETATM   13  C   UNL     1     -43.287  54.151 -51.912  1.00  0.00     0.128 C 
HETATM   14  C   UNL     1     -41.534  55.780 -51.646  1.00  0.00     0.122 C 
HETATM   15  C   UNL     1     -43.007  54.306 -50.427  1.00  0.00     0.022 C 
HETATM   16  C   UNL     1     -41.599  54.889 -50.397  1.00  0.00     0.032 C 
HETATM   17  H   UNL     1     -41.207  56.798 -53.840  1.00  0.00     0.170 HD
BRANCH  14  18
HETATM   18  C   UNL     1     -41.738  57.254 -51.345  1.00  0.00    -0.034 A 
HETATM   19  C   UNL     1     -40.672  58.106 -51.013  1.00  0.00     0.009 A 
HETATM   20  C   UNL     1     -40.898  59.444 -50.680  1.00  0.00     0.002 A 
HETATM   21  C   UNL     1     -42.197  59.950 -50.655  1.00  0.00     0.017 A 
HETATM   22  C   UNL     1     -43.272  59.114 -50.974  1.00  0.00     0.033 A 
HETATM   23  C   UNL     1     -43.039  57.783 -51.344  1.00  0.00     0.026 A 
BRANCH  22  24
HETATM   24  C   UNL     1     -44.678  59.600 -50.933  1.00  0.00     0.256 C 
HETATM   25  O   UNL     1     -45.526  58.867 -50.440  1.00  0.00    -0.267 OA
HETATM   26  N   UNL     1     -44.859  60.883 -51.415  1.00  0.00    -0.323 N 
HETATM   27  H   UNL     1     -44.027  61.413 -51.641  1.00  0.00     0.169 HD
BRANCH  26  28
HETATM   28  C   UNL     1     -46.079  61.573 -51.571  1.00  0.00     0.035 A 
HETATM   29  C   UNL     1     -46.959  61.365 -52.632  1.00  0.00     0.030 A 
HETATM   30  C   UNL     1     -48.126  62.129 -52.747  1.00  0.00     0.009 A 
HETATM   31  C   UNL     1     -48.440  63.107 -51.797  1.00  0.00    -0.056 A 
HETATM   32  C   UNL     1     -47.565  63.305 -50.725  1.00  0.00     0.009 A 
HETATM   33  C   UNL     1     -46.394  62.546 -50.615  1.00  0.00     0.030 A 
BRANCH  31  34
HETATM   34  C   UNL     1     -49.669  63.974 -51.956  1.00  0.00     0.068 C 
BRANCH  34  35
HETATM   35  C   UNL     1     -50.616  63.486 -53.069  1.00  0.00     0.277 C 
BRANCH  35  36
HETATM   36  N   UNL     1     -51.768  62.728 -52.541  1.00  0.00     0.092 N 
HETATM   37  C   UNL     1     -53.067  63.408 -52.753  1.00  0.00     0.298 C 
HETATM   38  C   UNL     1     -53.561  63.390 -54.209  1.00  0.00     0.198 C 
HETATM   39  O   UNL     1     -53.638  62.052 -54.717  1.00  0.00    -0.388 OA
HETATM   40  C   UNL     1     -52.367  61.396 -54.613  1.00  0.00     0.198 C 
HETATM   41  C   UNL     1     -51.857  61.385 -53.162  1.00  0.00     0.298 C 
ENDBRANCH  35  36
ENDBRANCH  34  35
ENDBRANCH  31  34
ENDBRANCH  26  28
ENDBRANCH  22  24
ENDBRANCH  14  18
ENDBRANCH   1   9
TORSDOF 7
ENDMDL
MODEL 6
REMARK VINA RESULT:      -7.7      2.920      5.403
REMARK  7 active torsions:
REMARK  status: ('A' for Active; 'I' for Inactive)
REMARK       I    between atoms: C_2  and  N_3 
REMARK       I    between atoms: C_2  and  N_12 
REMARK    1  A    between atoms: N_3  and  C_4 
REMARK    2  A    between atoms: C_16  and  C_17 
REMARK    3  A    between atoms: C_21  and  C_23 
REMARK       I    between atoms: C_23  and  N_25 
REMARK    4  A    between atoms: N_25  and  C_26 
REMARK    5  A    between atoms: C_29  and  C_30 
REMARK    6  A    between atoms: C_30  and  C_31 
REMARK    7  A    between atoms: C_31  and  N_32 
ROOT
HETATM    1  C   UNL     1     -42.487  61.929 -59.556  1.00  0.00     0.037 A 
HETATM    2  C   UNL     1     -41.707  61.981 -58.399  1.00  0.00     0.029 A 
HETATM    3  C   UNL     1     -40.358  62.343 -58.466  1.00  0.00     0.004 A 
HETATM    4  C   UNL     1     -39.776  62.655 -59.692  1.00  0.00     0.023 A 
HETATM    5  C   UNL     1     -40.544  62.604 -60.858  1.00  0.00     0.046 A 
HETATM    6  C   UNL     1     -41.895  62.242 -60.788  1.00  0.00     0.052 A 
HETATM    7  C   UNL     1     -39.947  62.906 -62.125  1.00  0.00     0.099 C 
HETATM    8  N   UNL     1     -39.462  63.138 -63.154  1.00  0.00    -0.191 NA
ENDROOT
BRANCH   1   9
HETATM    9  N   UNL     1     -43.835  61.521 -59.577  1.00  0.00    -0.309 N 
HETATM   10  C   UNL     1     -44.833  61.837 -58.684  1.00  0.00     0.323 C 
HETATM   11  O   UNL     1     -44.762  62.730 -57.843  1.00  0.00    -0.247 OA
HETATM   12  N   UNL     1     -45.956  61.033 -58.772  1.00  0.00    -0.325 N 
HETATM   13  C   UNL     1     -47.098  61.283 -57.910  1.00  0.00     0.128 C 
HETATM   14  C   UNL     1     -46.219  59.920 -59.688  1.00  0.00     0.122 C 
HETATM   15  C   UNL     1     -47.938  60.020 -57.996  1.00  0.00     0.022 C 
HETATM   16  C   UNL     1     -47.677  59.526 -59.415  1.00  0.00     0.032 C 
HETATM   17  H   UNL     1     -44.105  60.945 -60.354  1.00  0.00     0.170 HD
BRANCH  14  18
HETATM   18  C   UNL     1     -45.241  58.771 -59.518  1.00  0.00    -0.034 A 
HETATM   19  C   UNL     1     -44.859  57.946 -60.589  1.00  0.00     0.009 A 
HETATM   20  C   UNL     1     -44.007  56.858 -60.389  1.00  0.00     0.002 A 
HETATM   21  C   UNL     1     -43.535  56.562 -59.111  1.00  0.00     0.017 A 
HETATM   22  C   UNL     1     -43.913  57.366 -58.030  1.00  0.00     0.033 A 
HETATM   23  C   UNL     1     -44.737  58.480 -58.239  1.00  0.00     0.026 A 
BRANCH  22  24
HETATM   24  C   UNL     1     -43.459  57.074 -56.643  1.00  0.00     0.256 C 
HETATM   25  O   UNL     1     -43.457  57.993 -55.833  1.00  0.00    -0.267 OA
HETATM   26  N   UNL     1     -43.143  55.750 -56.407  1.00  0.00    -0.323 N 
HETATM   27  H   UNL     1     -43.350  55.086 -57.143  1.00  0.00     0.169 HD
BRANCH  26  28
HETATM   28  C   UNL     1     -42.616  55.195 -55.222  1.00  0.00     0.035 A 
HETATM   29  C   UNL     1     -43.400  54.726 -54.169  1.00  0.00     0.030 A 
HETATM   30  C   UNL     1     -42.803  54.239 -53.001  1.00  0.00     0.009 A 
HETATM   31  C   UNL     1     -41.410  54.202 -52.868  1.00  0.00    -0.056 A 
HETATM   32  C   UNL     1     -40.624  54.659 -53.930  1.00  0.00     0.009 A 
HETATM   33  C   UNL     1     -41.222  55.153 -55.095  1.00  0.00     0.030 A 
BRANCH  31  34
HETATM   34  C   UNL     1     -40.767  53.734 -51.582  1.00  0.00     0.068 C 
BRANCH  34  35
HETATM   35  C   UNL     1     -40.709  52.200 -51.455  1.00  0.00     0.277 C 
BRANCH  35  36
HETATM   36  N   UNL     1     -39.366  51.658 -51.741  1.00  0.00     0.092 N 
HETATM   37  C   UNL     1     -39.124  50.331 -51.129  1.00  0.00     0.298 C 
HETATM   38  C   UNL     1     -39.874  49.174 -51.811  1.00  0.00     0.198 C 
HETATM   39  O   UNL     1     -39.576  49.112 -53.210  1.00  0.00    -0.388 OA
HETATM   40  C   UNL     1     -39.889  50.355 -53.852  1.00  0.00     0.198 C 
HETATM   41  C   UNL     1     -39.138  51.529 -53.200  1.00  0.00     0.298 C 
ENDBRANCH  35  36
ENDBRANCH  34  35
ENDBRANCH  31  34
ENDBRANCH  26  28
ENDBRANCH  22  24
ENDBRANCH  14  18
ENDBRANCH   1   9
TORSDOF 7
ENDMDL
MODEL 7
REMARK VINA RESULT:      -7.6      2.945      5.758
REMARK  7 active torsions:
REMARK  status: ('A' for Active; 'I' for Inactive)
REMARK       I    between atoms: C_2  and  N_3 
REMARK       I    between atoms: C_2  and  N_12 
REMARK    1  A    between atoms: N_3  and  C_4 
REMARK    2  A    between atoms: C_16  and  C_17 
REMARK    3  A    between atoms: C_21  and  C_23 
REMARK       I    between atoms: C_23  and  N_25 
REMARK    4  A    between atoms: N_25  and  C_26 
REMARK    5  A    between atoms: C_29  and  C_30 
REMARK    6  A    between atoms: C_30  and  C_31 
REMARK    7  A    between atoms: C_31  and  N_32 
ROOT
HETATM    1  C   UNL     1     -42.223  61.158 -59.997  1.00  0.00     0.037 A 
HETATM    2  C   UNL     1     -41.803  61.386 -58.685  1.00  0.00     0.029 A 
HETATM    3  C   UNL     1     -40.651  62.135 -58.427  1.00  0.00     0.004 A 
HETATM    4  C   UNL     1     -39.906  62.662 -59.479  1.00  0.00     0.023 A 
HETATM    5  C   UNL     1     -40.314  62.440 -60.796  1.00  0.00     0.046 A 
HETATM    6  C   UNL     1     -41.468  61.690 -61.052  1.00  0.00     0.052 A 
HETATM    7  C   UNL     1     -39.543  62.965 -61.885  1.00  0.00     0.099 C 
HETATM    8  N   UNL     1     -38.913  63.377 -62.768  1.00  0.00    -0.191 NA
ENDROOT
BRANCH   1   9
HETATM    9  N   UNL     1     -43.339  60.370 -60.339  1.00  0.00    -0.309 N 
HETATM   10  C   UNL     1     -44.438  60.730 -61.084  1.00  0.00     0.323 C 
HETATM   11  O   UNL     1     -44.512  61.741 -61.779  1.00  0.00    -0.247 OA
HETATM   12  N   UNL     1     -45.513  59.866 -60.973  1.00  0.00    -0.325 N 
HETATM   13  C   UNL     1     -46.724  60.110 -61.737  1.00  0.00     0.128 C 
HETATM   14  C   UNL     1     -45.621  58.630 -60.192  1.00  0.00     0.122 C 
HETATM   15  C   UNL     1     -47.781  59.233 -61.087  1.00  0.00     0.022 C 
HETATM   16  C   UNL     1     -46.979  58.035 -60.589  1.00  0.00     0.032 C 
HETATM   17  H   UNL     1     -43.318  59.419 -60.016  1.00  0.00     0.170 HD
BRANCH  14  18
HETATM   18  C   UNL     1     -45.478  58.862 -58.698  1.00  0.00    -0.034 A 
HETATM   19  C   UNL     1     -46.159  59.893 -58.030  1.00  0.00     0.009 A 
HETATM   20  C   UNL     1     -45.959  60.121 -56.667  1.00  0.00     0.002 A 
HETATM   21  C   UNL     1     -45.059  59.333 -55.949  1.00  0.00     0.017 A 
HETATM   22  C   UNL     1     -44.365  58.308 -56.600  1.00  0.00     0.033 A 
HETATM   23  C   UNL     1     -44.596  58.057 -57.959  1.00  0.00     0.026 A 
BRANCH  22  24
HETATM   24  C   UNL     1     -43.373  57.460 -55.883  1.00  0.00     0.256 C 
HETATM   25  O   UNL     1     -42.406  57.050 -56.513  1.00  0.00    -0.267 OA
HETATM   26  N   UNL     1     -43.634  57.279 -54.539  1.00  0.00    -0.323 N 
HETATM   27  H   UNL     1     -44.392  57.818 -54.138  1.00  0.00     0.169 HD
BRANCH  26  28
HETATM   28  C   UNL     1     -42.920  56.470 -53.631  1.00  0.00     0.035 A 
HETATM   29  C   UNL     1     -41.938  56.952 -52.767  1.00  0.00     0.030 A 
HETATM   30  C   UNL     1     -41.233  56.077 -51.933  1.00  0.00     0.009 A 
HETATM   31  C   UNL     1     -41.505  54.704 -51.940  1.00  0.00    -0.056 A 
HETATM   32  C   UNL     1     -42.500  54.222 -52.795  1.00  0.00     0.009 A 
HETATM   33  C   UNL     1     -43.199  55.097 -53.635  1.00  0.00     0.030 A 
BRANCH  31  34
HETATM   34  C   UNL     1     -40.701  53.751 -51.083  1.00  0.00     0.068 C 
BRANCH  34  35
HETATM   35  C   UNL     1     -40.729  52.300 -51.597  1.00  0.00     0.277 C 
BRANCH  35  36
HETATM   36  N   UNL     1     -39.421  51.857 -52.119  1.00  0.00     0.092 N 
HETATM   37  C   UNL     1     -39.010  50.523 -51.623  1.00  0.00     0.298 C 
HETATM   38  C   UNL     1     -39.793  49.351 -52.237  1.00  0.00     0.198 C 
HETATM   39  O   UNL     1     -39.721  49.367 -53.667  1.00  0.00    -0.388 OA
HETATM   40  C   UNL     1     -40.203  50.614 -54.186  1.00  0.00     0.198 C 
HETATM   41  C   UNL     1     -39.424  51.804 -53.601  1.00  0.00     0.298 C 
ENDBRANCH  35  36
ENDBRANCH  34  35
ENDBRANCH  31  34
ENDBRANCH  26  28
ENDBRANCH  22  24
ENDBRANCH  14  18
ENDBRANCH   1   9
TORSDOF 7
ENDMDL
MODEL 8
REMARK VINA RESULT:      -7.5      1.504      2.308
REMARK  7 active torsions:
REMARK  status: ('A' for Active; 'I' for Inactive)
REMARK       I    between atoms: C_2  and  N_3 
REMARK       I    between atoms: C_2  and  N_12 
REMARK    1  A    between atoms: N_3  and  C_4 
REMARK    2  A    between atoms: C_16  and  C_17 
REMARK    3  A    between atoms: C_21  and  C_23 
REMARK       I    between atoms: C_23  and  N_25 
REMARK    4  A    between atoms: N_25  and  C_26 
REMARK    5  A    between atoms: C_29  and  C_30 
REMARK    6  A    between atoms: C_30  and  C_31 
REMARK    7  A    between atoms: C_31  and  N_32 
ROOT
HETATM    1  C   UNL     1     -42.932  61.110 -55.859  1.00  0.00     0.037 A 
HETATM    2  C   UNL     1     -44.317  61.226 -55.719  1.00  0.00     0.029 A 
HETATM    3  C   UNL     1     -44.964  60.712 -54.591  1.00  0.00     0.004 A 
HETATM    4  C   UNL     1     -44.231  60.074 -53.593  1.00  0.00     0.023 A 
HETATM    5  C   UNL     1     -42.846  59.949 -53.721  1.00  0.00     0.046 A 
HETATM    6  C   UNL     1     -42.201  60.466 -54.851  1.00  0.00     0.052 A 
HETATM    7  C   UNL     1     -42.088  59.278 -52.706  1.00  0.00     0.099 C 
HETATM    8  N   UNL     1     -41.474  58.725 -51.891  1.00  0.00    -0.191 NA
ENDROOT
BRANCH   1   9
HETATM    9  N   UNL     1     -42.217  61.553 -56.988  1.00  0.00    -0.309 N 
HETATM   10  C   UNL     1     -42.231  62.801 -57.568  1.00  0.00     0.323 C 
HETATM   11  O   UNL     1     -42.697  63.811 -57.045  1.00  0.00    -0.247 OA
HETATM   12  N   UNL     1     -41.696  62.846 -58.843  1.00  0.00    -0.325 N 
HETATM   13  C   UNL     1     -41.616  64.111 -59.554  1.00  0.00     0.128 C 
HETATM   14  C   UNL     1     -41.113  61.758 -59.633  1.00  0.00     0.122 C 
HETATM   15  C   UNL     1     -41.364  63.730 -61.003  1.00  0.00     0.022 C 
HETATM   16  C   UNL     1     -40.554  62.443 -60.888  1.00  0.00     0.032 C 
HETATM   17  H   UNL     1     -41.604  60.879 -57.410  1.00  0.00     0.170 HD
BRANCH  14  18
HETATM   18  C   UNL     1     -42.107  60.653 -59.942  1.00  0.00    -0.034 A 
HETATM   19  C   UNL     1     -43.044  60.756 -60.982  1.00  0.00     0.009 A 
HETATM   20  C   UNL     1     -43.988  59.750 -61.202  1.00  0.00     0.002 A 
HETATM   21  C   UNL     1     -44.024  58.629 -60.372  1.00  0.00     0.017 A 
HETATM   22  C   UNL     1     -43.104  58.514 -59.324  1.00  0.00     0.033 A 
HETATM   23  C   UNL     1     -42.135  59.507 -59.130  1.00  0.00     0.026 A 
BRANCH  22  24
HETATM   24  C   UNL     1     -43.122  57.352 -58.395  1.00  0.00     0.256 C 
HETATM   25  O   UNL     1     -43.389  56.250 -58.857  1.00  0.00    -0.267 OA
HETATM   26  N   UNL     1     -42.766  57.649 -57.093  1.00  0.00    -0.323 N 
HETATM   27  H   UNL     1     -42.419  58.583 -56.910  1.00  0.00     0.169 HD
BRANCH  26  28
HETATM   28  C   UNL     1     -42.766  56.775 -55.986  1.00  0.00     0.035 A 
HETATM   29  C   UNL     1     -41.744  55.867 -55.713  1.00  0.00     0.030 A 
HETATM   30  C   UNL     1     -41.842  54.994 -54.625  1.00  0.00     0.009 A 
HETATM   31  C   UNL     1     -42.959  55.019 -53.782  1.00  0.00    -0.056 A 
HETATM   32  C   UNL     1     -43.977  55.940 -54.047  1.00  0.00     0.009 A 
HETATM   33  C   UNL     1     -43.882  56.808 -55.141  1.00  0.00     0.030 A 
BRANCH  31  34
HETATM   34  C   UNL     1     -43.092  54.033 -52.643  1.00  0.00     0.068 C 
BRANCH  34  35
HETATM   35  C   UNL     1     -42.770  54.646 -51.267  1.00  0.00     0.277 C 
BRANCH  35  36
HETATM   36  N   UNL     1     -41.357  55.053 -51.145  1.00  0.00     0.092 N 
HETATM   37  C   UNL     1     -41.037  55.688 -49.845  1.00  0.00     0.298 C 
HETATM   38  C   UNL     1     -40.989  54.710 -48.659  1.00  0.00     0.198 C 
HETATM   39  O   UNL     1     -40.069  53.639 -48.903  1.00  0.00    -0.388 OA
HETATM   40  C   UNL     1     -40.409  52.943 -50.109  1.00  0.00     0.198 C 
HETATM   41  C   UNL     1     -40.447  53.895 -51.316  1.00  0.00     0.298 C 
ENDBRANCH  35  36
ENDBRANCH  34  35
ENDBRANCH  31  34
ENDBRANCH  26  28
ENDBRANCH  22  24
ENDBRANCH  14  18
ENDBRANCH   1   9
TORSDOF 7
ENDMDL
MODEL 9
REMARK VINA RESULT:      -7.5      2.384      3.148
REMARK  7 active torsions:
REMARK  status: ('A' for Active; 'I' for Inactive)
REMARK       I    between atoms: C_2  and  N_3 
REMARK       I    between atoms: C_2  and  N_12 
REMARK    1  A    between atoms: N_3  and  C_4 
REMARK    2  A    between atoms: C_16  and  C_17 
REMARK    3  A    between atoms: C_21  and  C_23 
REMARK       I    between atoms: C_23  and  N_25 
REMARK    4  A    between atoms: N_25  and  C_26 
REMARK    5  A    between atoms: C_29  and  C_30 
REMARK    6  A    between atoms: C_30  and  C_31 
REMARK    7  A    between atoms: C_31  and  N_32 
ROOT
HETATM    1  C   UNL     1     -42.568  60.159 -53.798  1.00  0.00     0.037 A 
HETATM    2  C   UNL     1     -41.393  59.669 -53.222  1.00  0.00     0.029 A 
HETATM    3  C   UNL     1     -41.430  58.987 -52.002  1.00  0.00     0.004 A 
HETATM    4  C   UNL     1     -42.643  58.790 -51.345  1.00  0.00     0.023 A 
HETATM    5  C   UNL     1     -43.824  59.277 -51.908  1.00  0.00     0.046 A 
HETATM    6  C   UNL     1     -43.785  59.959 -53.131  1.00  0.00     0.052 A 
HETATM    7  C   UNL     1     -45.073  59.093 -51.229  1.00  0.00     0.099 C 
HETATM    8  N   UNL     1     -46.083  58.957 -50.674  1.00  0.00    -0.191 NA
ENDROOT
BRANCH   1   9
HETATM    9  N   UNL     1     -42.606  60.902 -54.993  1.00  0.00    -0.309 N 
HETATM   10  C   UNL     1     -43.167  62.140 -55.209  1.00  0.00     0.323 C 
HETATM   11  O   UNL     1     -43.525  62.910 -54.320  1.00  0.00    -0.247 OA
HETATM   12  N   UNL     1     -43.342  62.465 -56.542  1.00  0.00    -0.325 N 
HETATM   13  C   UNL     1     -43.892  63.760 -56.908  1.00  0.00     0.128 C 
HETATM   14  C   UNL     1     -42.997  61.682 -57.732  1.00  0.00     0.122 C 
HETATM   15  C   UNL     1     -44.300  63.614 -58.365  1.00  0.00     0.022 C 
HETATM   16  C   UNL     1     -43.281  62.621 -58.912  1.00  0.00     0.032 C 
HETATM   17  H   UNL     1     -42.145  60.485 -55.783  1.00  0.00     0.170 HD
BRANCH  14  18
HETATM   18  C   UNL     1     -43.751  60.367 -57.812  1.00  0.00    -0.034 A 
HETATM   19  C   UNL     1     -44.995  60.253 -58.454  1.00  0.00     0.009 A 
HETATM   20  C   UNL     1     -45.695  59.045 -58.457  1.00  0.00     0.002 A 
HETATM   21  C   UNL     1     -45.171  57.930 -57.803  1.00  0.00     0.017 A 
HETATM   22  C   UNL     1     -43.938  58.027 -57.149  1.00  0.00     0.033 A 
HETATM   23  C   UNL     1     -43.221  59.230 -57.180  1.00  0.00     0.026 A 
BRANCH  22  24
HETATM   24  C   UNL     1     -43.353  56.874 -56.412  1.00  0.00     0.256 C 
HETATM   25  O   UNL     1     -43.131  55.844 -57.037  1.00  0.00    -0.267 OA
HETATM   26  N   UNL     1     -43.063  57.126 -55.085  1.00  0.00    -0.323 N 
HETATM   27  H   UNL     1     -43.161  58.081 -54.762  1.00  0.00     0.169 HD
BRANCH  26  28
HETATM   28  C   UNL     1     -42.578  56.210 -54.128  1.00  0.00     0.035 A 
HETATM   29  C   UNL     1     -43.378  55.595 -53.166  1.00  0.00     0.030 A 
HETATM   30  C   UNL     1     -42.812  54.739 -52.214  1.00  0.00     0.009 A 
HETATM   31  C   UNL     1     -41.438  54.473 -52.213  1.00  0.00    -0.056 A 
HETATM   32  C   UNL     1     -40.638  55.079 -53.187  1.00  0.00     0.009 A 
HETATM   33  C   UNL     1     -41.203  55.941 -54.134  1.00  0.00     0.030 A 
BRANCH  31  34
HETATM   34  C   UNL     1     -40.820  53.597 -51.147  1.00  0.00     0.068 C 
BRANCH  34  35
HETATM   35  C   UNL     1     -40.753  52.110 -51.545  1.00  0.00     0.277 C 
BRANCH  35  36
HETATM   36  N   UNL     1     -39.409  51.705 -52.000  1.00  0.00     0.092 N 
HETATM   37  C   UNL     1     -38.994  50.375 -51.499  1.00  0.00     0.298 C 
HETATM   38  C   UNL     1     -39.715  49.193 -52.168  1.00  0.00     0.198 C 
HETATM   39  O   UNL     1     -39.566  49.230 -53.592  1.00  0.00    -0.388 OA
HETATM   40  C   UNL     1     -40.048  50.472 -54.121  1.00  0.00     0.198 C 
HETATM   41  C   UNL     1     -39.331  51.672 -53.480  1.00  0.00     0.298 C 
ENDBRANCH  35  36
ENDBRANCH  34  35
ENDBRANCH  31  34
ENDBRANCH  26  28
ENDBRANCH  22  24
ENDBRANCH  14  18
ENDBRANCH   1   9
TORSDOF 7
ENDMDL
MODEL 10
REMARK VINA RESULT:      -7.5      5.531      8.465
REMARK  7 active torsions:
REMARK  status: ('A' for Active; 'I' for Inactive)
REMARK       I    between atoms: C_2  and  N_3 
REMARK       I    between atoms: C_2  and  N_12 
REMARK    1  A    between atoms: N_3  and  C_4 
REMARK    2  A    between atoms: C_16  and  C_17 
REMARK    3  A    between atoms: C_21  and  C_23 
REMARK       I    between atoms: C_23  and  N_25 
REMARK    4  A    between atoms: N_25  and  C_26 
REMARK    5  A    between atoms: C_29  and  C_30 
REMARK    6  A    between atoms: C_30  and  C_31 
REMARK    7  A    between atoms: C_31  and  N_32 
ROOT
HETATM    1  C   UNL     1     -47.683  63.068 -52.059  1.00  0.00     0.037 A 
HETATM    2  C   UNL     1     -46.691  63.655 -52.847  1.00  0.00     0.029 A 
HETATM    3  C   UNL     1     -46.860  63.774 -54.230  1.00  0.00     0.004 A 
HETATM    4  C   UNL     1     -48.022  63.304 -54.838  1.00  0.00     0.023 A 
HETATM    5  C   UNL     1     -49.020  62.713 -54.062  1.00  0.00     0.046 A 
HETATM    6  C   UNL     1     -48.850  62.595 -52.677  1.00  0.00     0.052 A 
HETATM    7  C   UNL     1     -50.211  62.211 -54.684  1.00  0.00     0.099 C 
HETATM    8  N   UNL     1     -51.170  61.793 -55.186  1.00  0.00    -0.191 NA
ENDROOT
BRANCH   1   9
HETATM    9  N   UNL     1     -47.564  62.863 -50.671  1.00  0.00    -0.309 N 
HETATM   10  C   UNL     1     -48.030  63.660 -49.650  1.00  0.00     0.323 C 
HETATM   11  O   UNL     1     -48.841  64.572 -49.790  1.00  0.00    -0.247 OA
HETATM   12  N   UNL     1     -47.481  63.382 -48.411  1.00  0.00    -0.325 N 
HETATM   13  C   UNL     1     -47.914  64.127 -47.241  1.00  0.00     0.128 C 
HETATM   14  C   UNL     1     -46.498  62.356 -48.051  1.00  0.00     0.122 C 
HETATM   15  C   UNL     1     -46.857  63.846 -46.185  1.00  0.00     0.022 C 
HETATM   16  C   UNL     1     -46.398  62.431 -46.521  1.00  0.00     0.032 C 
HETATM   17  H   UNL     1     -47.100  62.017 -50.392  1.00  0.00     0.170 HD
BRANCH  14  18
HETATM   18  C   UNL     1     -45.164  62.544 -48.752  1.00  0.00    -0.034 A 
HETATM   19  C   UNL     1     -44.608  63.813 -48.979  1.00  0.00     0.009 A 
HETATM   20  C   UNL     1     -43.411  63.957 -49.683  1.00  0.00     0.002 A 
HETATM   21  C   UNL     1     -42.755  62.835 -50.188  1.00  0.00     0.017 A 
HETATM   22  C   UNL     1     -43.299  61.563 -49.980  1.00  0.00     0.033 A 
HETATM   23  C   UNL     1     -44.480  61.419 -49.241  1.00  0.00     0.026 A 
BRANCH  22  24
HETATM   24  C   UNL     1     -42.652  60.339 -50.525  1.00  0.00     0.256 C 
HETATM   25  O   UNL     1     -41.430  60.261 -50.470  1.00  0.00    -0.267 OA
HETATM   26  N   UNL     1     -43.532  59.379 -50.987  1.00  0.00    -0.323 N 
HETATM   27  H   UNL     1     -44.517  59.533 -50.814  1.00  0.00     0.169 HD
BRANCH  26  28
HETATM   28  C   UNL     1     -43.211  58.161 -51.621  1.00  0.00     0.035 A 
HETATM   29  C   UNL     1     -42.622  58.073 -52.882  1.00  0.00     0.030 A 
HETATM   30  C   UNL     1     -42.384  56.826 -53.470  1.00  0.00     0.009 A 
HETATM   31  C   UNL     1     -42.720  55.642 -52.803  1.00  0.00    -0.056 A 
HETATM   32  C   UNL     1     -43.297  55.729 -51.532  1.00  0.00     0.009 A 
HETATM   33  C   UNL     1     -43.541  56.978 -50.948  1.00  0.00     0.030 A 
BRANCH  31  34
HETATM   34  C   UNL     1     -42.520  54.297 -53.465  1.00  0.00     0.068 C 
BRANCH  34  35
HETATM   35  C   UNL     1     -41.766  53.289 -52.576  1.00  0.00     0.277 C 
BRANCH  35  36
HETATM   36  N   UNL     1     -40.327  53.217 -52.895  1.00  0.00     0.092 N 
HETATM   37  C   UNL     1     -39.545  52.432 -51.912  1.00  0.00     0.298 C 
HETATM   38  C   UNL     1     -39.767  50.913 -51.994  1.00  0.00     0.198 C 
HETATM   39  O   UNL     1     -39.505  50.418 -53.312  1.00  0.00    -0.388 OA
HETATM   40  C   UNL     1     -40.318  51.093 -54.280  1.00  0.00     0.198 C 
HETATM   41  C   UNL     1     -40.102  52.615 -54.231  1.00  0.00     0.298 C 
ENDBRANCH  35  36
ENDBRANCH  34  35
ENDBRANCH  31  34
ENDBRANCH  26  28
ENDBRANCH  22  24
ENDBRANCH  14  18
ENDBRANCH   1   9
TORSDOF 7
ENDMDL
