MODEL 1
REMARK VINA RESULT:      -7.5      0.000      0.000
REMARK  4 active torsions:
REMARK  status: ('A' for Active; 'I' for Inactive)
REMARK    1  A    between atoms: C_4  and  C_5 
REMARK       I    between atoms: C_5  and  N_6 
REMARK    2  A    between atoms: N_6  and  C_7 
REMARK    3  A    between atoms: C_7  and  N_8 
REMARK    4  A    between atoms: N_8  and  C_9 
ROOT
HETATM    1  C   UNL     1     -42.013  54.192 -54.669  1.00  0.00     0.257 C 
HETATM    2  N   UNL     1     -41.515  55.486 -54.754  1.00  0.00    -0.299 N 
HETATM    3  O   UNL     1     -43.004  53.743 -55.227  1.00  0.00    -0.267 OA
HETATM    4  H   UNL     1     -40.562  55.614 -54.421  1.00  0.00     0.171 HD
ENDROOT
BRANCH   2   5
HETATM    5  C   UNL     1     -42.076  56.658 -55.213  1.00  0.00     0.180 C 
HETATM    6  S   UNL     1     -42.520  57.013 -56.784  1.00  0.00    -0.040 SA
BRANCH   5   7
HETATM    7  N   UNL     1     -42.301  57.630 -54.266  1.00  0.00    -0.318 N 
HETATM    8  H   UNL     1     -43.004  58.308 -54.534  1.00  0.00     0.170 HD
BRANCH   7   9
HETATM    9  C   UNL     1     -41.661  57.815 -53.032  1.00  0.00     0.129 A 
HETATM   10  N   UNL     1     -41.848  56.909 -52.044  1.00  0.00    -0.236 NA
HETATM   11  C   UNL     1     -41.192  57.097 -50.872  1.00  0.00     0.033 A 
HETATM   12  C   UNL     1     -41.394  56.071 -49.797  1.00  0.00     0.070 C 
HETATM   13  C   UNL     1     -40.365  58.190 -50.646  1.00  0.00     0.027 A 
HETATM   14  C   UNL     1     -40.195  59.119 -51.666  1.00  0.00     0.006 A 
HETATM   15  C   UNL     1     -40.851  58.931 -52.879  1.00  0.00     0.050 A 
ENDBRANCH   7   9
ENDBRANCH   5   7
ENDBRANCH   2   5
BRANCH   1  16
HETATM   16  C   UNL     1     -41.141  53.274 -53.892  1.00  0.00     0.032 A 
HETATM   17  C   UNL     1     -40.702  52.064 -54.448  1.00  0.00     0.023 A 
HETATM   18  C   UNL     1     -39.898  51.198 -53.697  1.00  0.00    -0.061 A 
HETATM   19  C   UNL     1     -39.434  49.891 -54.272  1.00  0.00     0.048 C 
HETATM   20  C   UNL     1     -39.566  51.545 -52.381  1.00  0.00     0.007 A 
HETATM   21  C   UNL     1     -39.995  52.756 -51.834  1.00  0.00     0.002 A 
HETATM   22  C   UNL     1     -40.774  53.629 -52.592  1.00  0.00     0.017 A 
ENDBRANCH   1  16
TORSDOF 4
ENDMDL
MODEL 2
REMARK VINA RESULT:      -7.3      2.514      4.784
REMARK  4 active torsions:
REMARK  status: ('A' for Active; 'I' for Inactive)
REMARK    1  A    between atoms: C_4  and  C_5 
REMARK       I    between atoms: C_5  and  N_6 
REMARK    2  A    between atoms: N_6  and  C_7 
REMARK    3  A    between atoms: C_7  and  N_8 
REMARK    4  A    between atoms: N_8  and  C_9 
ROOT
HETATM    1  C   UNL     1     -41.977  54.295 -54.511  1.00  0.00     0.257 C 
HETATM    2  N   UNL     1     -41.518  55.606 -54.475  1.00  0.00    -0.299 N 
HETATM    3  O   UNL     1     -42.937  53.866 -55.135  1.00  0.00    -0.267 OA
HETATM    4  H   UNL     1     -40.579  55.733 -54.104  1.00  0.00     0.171 HD
ENDROOT
BRANCH   2   5
HETATM    5  C   UNL     1     -42.102  56.795 -54.855  1.00  0.00     0.180 C 
HETATM    6  S   UNL     1     -41.774  58.316 -54.249  1.00  0.00    -0.040 SA
BRANCH   5   7
HETATM    7  N   UNL     1     -43.048  56.711 -55.850  1.00  0.00    -0.318 N 
HETATM    8  H   UNL     1     -43.976  56.481 -55.515  1.00  0.00     0.170 HD
BRANCH   7   9
HETATM    9  C   UNL     1     -42.879  56.856 -57.235  1.00  0.00     0.129 A 
HETATM   10  N   UNL     1     -42.573  58.072 -57.743  1.00  0.00    -0.236 NA
HETATM   11  C   UNL     1     -42.385  58.176 -59.082  1.00  0.00     0.033 A 
HETATM   12  C   UNL     1     -42.026  59.528 -59.624  1.00  0.00     0.070 C 
HETATM   13  C   UNL     1     -42.518  57.093 -59.942  1.00  0.00     0.027 A 
HETATM   14  C   UNL     1     -42.846  55.853 -59.405  1.00  0.00     0.006 A 
HETATM   15  C   UNL     1     -43.028  55.729 -58.031  1.00  0.00     0.050 A 
ENDBRANCH   7   9
ENDBRANCH   5   7
ENDBRANCH   2   5
BRANCH   1  16
HETATM   16  C   UNL     1     -41.100  53.342 -53.785  1.00  0.00     0.032 A 
HETATM   17  C   UNL     1     -40.698  52.141 -54.386  1.00  0.00     0.023 A 
HETATM   18  C   UNL     1     -39.888  51.241 -53.682  1.00  0.00    -0.061 A 
HETATM   19  C   UNL     1     -39.465  49.943 -54.305  1.00  0.00     0.048 C 
HETATM   20  C   UNL     1     -39.512  51.546 -52.368  1.00  0.00     0.007 A 
HETATM   21  C   UNL     1     -39.904  52.750 -51.776  1.00  0.00     0.002 A 
HETATM   22  C   UNL     1     -40.688  53.656 -52.488  1.00  0.00     0.017 A 
ENDBRANCH   1  16
TORSDOF 4
ENDMDL
MODEL 3
REMARK VINA RESULT:      -7.3      2.641      4.758
REMARK  4 active torsions:
REMARK  status: ('A' for Active; 'I' for Inactive)
REMARK    1  A    between atoms: C_4  and  C_5 
REMARK       I    between atoms: C_5  and  N_6 
REMARK    2  A    between atoms: N_6  and  C_7 
REMARK    3  A    between atoms: C_7  and  N_8 
REMARK    4  A    between atoms: N_8  and  C_9 
ROOT
HETATM    1  C   UNL     1     -42.553  54.376 -54.780  1.00  0.00     0.257 C 
HETATM    2  N   UNL     1     -42.378  55.744 -54.614  1.00  0.00    -0.299 N 
HETATM    3  O   UNL     1     -43.333  53.817 -55.538  1.00  0.00    -0.267 OA
HETATM    4  H   UNL     1     -41.529  56.023 -54.127  1.00  0.00     0.171 HD
ENDROOT
BRANCH   2   5
HETATM    5  C   UNL     1     -43.150  56.821 -54.991  1.00  0.00     0.180 C 
HETATM    6  S   UNL     1     -44.594  57.313 -54.310  1.00  0.00    -0.040 SA
BRANCH   5   7
HETATM    7  N   UNL     1     -42.665  57.574 -56.036  1.00  0.00    -0.318 N 
HETATM    8  H   UNL     1     -42.290  58.471 -55.755  1.00  0.00     0.170 HD
BRANCH   7   9
HETATM    9  C   UNL     1     -42.668  57.276 -57.406  1.00  0.00     0.129 A 
HETATM   10  N   UNL     1     -43.362  56.202 -57.851  1.00  0.00    -0.236 NA
HETATM   11  C   UNL     1     -43.373  55.956 -59.185  1.00  0.00     0.033 A 
HETATM   12  C   UNL     1     -44.165  54.775 -59.660  1.00  0.00     0.070 C 
HETATM   13  C   UNL     1     -42.683  56.746 -60.096  1.00  0.00     0.027 A 
HETATM   14  C   UNL     1     -41.964  57.837 -59.621  1.00  0.00     0.006 A 
HETATM   15  C   UNL     1     -41.955  58.109 -58.256  1.00  0.00     0.050 A 
ENDBRANCH   7   9
ENDBRANCH   5   7
ENDBRANCH   2   5
BRANCH   1  16
HETATM   16  C   UNL     1     -41.581  53.559 -54.011  1.00  0.00     0.032 A 
HETATM   17  C   UNL     1     -41.118  52.335 -54.517  1.00  0.00     0.023 A 
HETATM   18  C   UNL     1     -40.217  51.564 -53.771  1.00  0.00    -0.061 A 
HETATM   19  C   UNL     1     -39.727  50.244 -54.291  1.00  0.00     0.048 C 
HETATM   20  C   UNL     1     -39.812  52.018 -52.510  1.00  0.00     0.007 A 
HETATM   21  C   UNL     1     -40.265  53.243 -52.015  1.00  0.00     0.002 A 
HETATM   22  C   UNL     1     -41.141  54.021 -52.769  1.00  0.00     0.017 A 
ENDBRANCH   1  16
TORSDOF 4
ENDMDL
MODEL 4
REMARK VINA RESULT:      -6.9     14.668     15.895
REMARK  4 active torsions:
REMARK  status: ('A' for Active; 'I' for Inactive)
REMARK    1  A    between atoms: C_4  and  C_5 
REMARK       I    between atoms: C_5  and  N_6 
REMARK    2  A    between atoms: N_6  and  C_7 
REMARK    3  A    between atoms: C_7  and  N_8 
REMARK    4  A    between atoms: N_8  and  C_9 
ROOT
HETATM    1  C   UNL     1     -36.462  41.823 -55.808  1.00  0.00     0.257 C 
HETATM    2  N   UNL     1     -37.102  41.106 -54.806  1.00  0.00    -0.299 N 
HETATM    3  O   UNL     1     -35.580  42.660 -55.669  1.00  0.00    -0.267 OA
HETATM    4  H   UNL     1     -37.629  40.291 -55.116  1.00  0.00     0.171 HD
ENDROOT
BRANCH   2   5
HETATM    5  C   UNL     1     -37.163  41.286 -53.441  1.00  0.00     0.180 C 
HETATM    6  S   UNL     1     -38.392  40.808 -52.417  1.00  0.00    -0.040 SA
BRANCH   5   7
HETATM    7  N   UNL     1     -36.085  41.919 -52.869  1.00  0.00    -0.318 N 
HETATM    8  H   UNL     1     -36.177  42.926 -52.824  1.00  0.00     0.170 HD
BRANCH   7   9
HETATM    9  C   UNL     1     -34.889  41.359 -52.396  1.00  0.00     0.129 A 
HETATM   10  N   UNL     1     -34.046  40.759 -53.268  1.00  0.00    -0.236 NA
HETATM   11  C   UNL     1     -32.883  40.253 -52.786  1.00  0.00     0.033 A 
HETATM   12  C   UNL     1     -31.952  39.611 -53.772  1.00  0.00     0.070 C 
HETATM   13  C   UNL     1     -32.545  40.308 -51.440  1.00  0.00     0.027 A 
HETATM   14  C   UNL     1     -33.428  40.916 -50.556  1.00  0.00     0.006 A 
HETATM   15  C   UNL     1     -34.619  41.451 -51.038  1.00  0.00     0.050 A 
ENDBRANCH   7   9
ENDBRANCH   5   7
ENDBRANCH   2   5
BRANCH   1  16
HETATM   16  C   UNL     1     -36.854  41.405 -57.178  1.00  0.00     0.032 A 
HETATM   17  C   UNL     1     -36.921  42.342 -58.219  1.00  0.00     0.023 A 
HETATM   18  C   UNL     1     -37.313  41.938 -59.502  1.00  0.00    -0.061 A 
HETATM   19  C   UNL     1     -37.407  42.932 -60.622  1.00  0.00     0.048 C 
HETATM   20  C   UNL     1     -37.660  40.599 -59.718  1.00  0.00     0.007 A 
HETATM   21  C   UNL     1     -37.580  39.665 -58.682  1.00  0.00     0.002 A 
HETATM   22  C   UNL     1     -37.165  40.064 -57.412  1.00  0.00     0.017 A 
ENDBRANCH   1  16
TORSDOF 4
ENDMDL
MODEL 5
REMARK VINA RESULT:      -6.8      3.036      5.591
REMARK  4 active torsions:
REMARK  status: ('A' for Active; 'I' for Inactive)
REMARK    1  A    between atoms: C_4  and  C_5 
REMARK       I    between atoms: C_5  and  N_6 
REMARK    2  A    between atoms: N_6  and  C_7 
REMARK    3  A    between atoms: C_7  and  N_8 
REMARK    4  A    between atoms: N_8  and  C_9 
ROOT
HETATM    1  C   UNL     1     -42.239  54.154 -54.830  1.00  0.00     0.257 C 
HETATM    2  N   UNL     1     -41.851  55.476 -55.012  1.00  0.00    -0.299 N 
HETATM    3  O   UNL     1     -43.136  53.561 -55.413  1.00  0.00    -0.267 OA
HETATM    4  H   UNL     1     -40.944  55.726 -54.623  1.00  0.00     0.171 HD
ENDROOT
BRANCH   2   5
HETATM    5  C   UNL     1     -42.471  56.539 -55.634  1.00  0.00     0.180 C 
HETATM    6  S   UNL     1     -43.588  57.584 -54.964  1.00  0.00    -0.040 SA
BRANCH   5   7
HETATM    7  N   UNL     1     -42.116  56.761 -56.944  1.00  0.00    -0.318 N 
HETATM    8  H   UNL     1     -41.153  57.049 -57.064  1.00  0.00     0.170 HD
BRANCH   7   9
HETATM    9  C   UNL     1     -42.915  56.682 -58.094  1.00  0.00     0.129 A 
HETATM   10  N   UNL     1     -43.239  57.817 -58.757  1.00  0.00    -0.236 NA
HETATM   11  C   UNL     1     -43.987  57.707 -59.883  1.00  0.00     0.033 A 
HETATM   12  C   UNL     1     -44.318  58.974 -60.615  1.00  0.00     0.070 C 
HETATM   13  C   UNL     1     -44.448  56.486 -60.358  1.00  0.00     0.027 A 
HETATM   14  C   UNL     1     -44.118  55.331 -59.657  1.00  0.00     0.006 A 
HETATM   15  C   UNL     1     -43.339  55.428 -58.508  1.00  0.00     0.050 A 
ENDBRANCH   7   9
ENDBRANCH   5   7
ENDBRANCH   2   5
BRANCH   1  16
HETATM   16  C   UNL     1     -41.361  53.404 -53.897  1.00  0.00     0.032 A 
HETATM   17  C   UNL     1     -41.160  53.858 -52.585  1.00  0.00     0.023 A 
HETATM   18  C   UNL     1     -40.313  53.153 -51.721  1.00  0.00    -0.061 A 
HETATM   19  C   UNL     1     -40.074  53.636 -50.320  1.00  0.00     0.048 C 
HETATM   20  C   UNL     1     -39.653  52.012 -52.194  1.00  0.00     0.007 A 
HETATM   21  C   UNL     1     -39.864  51.556 -53.498  1.00  0.00     0.002 A 
HETATM   22  C   UNL     1     -40.728  52.244 -54.348  1.00  0.00     0.017 A 
ENDBRANCH   1  16
TORSDOF 4
ENDMDL
MODEL 6
REMARK VINA RESULT:      -6.7      1.798      2.534
REMARK  4 active torsions:
REMARK  status: ('A' for Active; 'I' for Inactive)
REMARK    1  A    between atoms: C_4  and  C_5 
REMARK       I    between atoms: C_5  and  N_6 
REMARK    2  A    between atoms: N_6  and  C_7 
REMARK    3  A    between atoms: C_7  and  N_8 
REMARK    4  A    between atoms: N_8  and  C_9 
ROOT
HETATM    1  C   UNL     1     -42.090  54.211 -54.820  1.00  0.00     0.257 C 
HETATM    2  N   UNL     1     -41.700  55.542 -54.901  1.00  0.00    -0.299 N 
HETATM    3  O   UNL     1     -42.964  53.657 -55.471  1.00  0.00    -0.267 OA
HETATM    4  H   UNL     1     -40.808  55.767 -54.464  1.00  0.00     0.171 HD
ENDROOT
BRANCH   2   5
HETATM    5  C   UNL     1     -42.301  56.643 -55.472  1.00  0.00     0.180 C 
HETATM    6  S   UNL     1     -42.693  56.855 -57.081  1.00  0.00    -0.040 SA
BRANCH   5   7
HETATM    7  N   UNL     1     -42.619  57.669 -54.612  1.00  0.00    -0.318 N 
HETATM    8  H   UNL     1     -42.222  58.563 -54.876  1.00  0.00     0.170 HD
BRANCH   7   9
HETATM    9  C   UNL     1     -43.366  57.619 -53.426  1.00  0.00     0.129 A 
HETATM   10  N   UNL     1     -43.232  56.555 -52.601  1.00  0.00    -0.236 NA
HETATM   11  C   UNL     1     -43.944  56.548 -51.447  1.00  0.00     0.033 A 
HETATM   12  C   UNL     1     -43.766  55.370 -50.536  1.00  0.00     0.070 C 
HETATM   13  C   UNL     1     -44.814  57.574 -51.099  1.00  0.00     0.027 A 
HETATM   14  C   UNL     1     -44.950  58.653 -51.964  1.00  0.00     0.006 A 
HETATM   15  C   UNL     1     -44.215  58.680 -53.146  1.00  0.00     0.050 A 
ENDBRANCH   7   9
ENDBRANCH   5   7
ENDBRANCH   2   5
BRANCH   1  16
HETATM   16  C   UNL     1     -41.243  53.402 -53.908  1.00  0.00     0.032 A 
HETATM   17  C   UNL     1     -41.050  53.794 -52.575  1.00  0.00     0.023 A 
HETATM   18  C   UNL     1     -40.231  53.034 -51.731  1.00  0.00    -0.061 A 
HETATM   19  C   UNL     1     -40.001  53.450 -50.308  1.00  0.00     0.048 C 
HETATM   20  C   UNL     1     -39.591  51.898 -52.245  1.00  0.00     0.007 A 
HETATM   21  C   UNL     1     -39.795  51.504 -53.569  1.00  0.00     0.002 A 
HETATM   22  C   UNL     1     -40.631  52.248 -54.400  1.00  0.00     0.017 A 
ENDBRANCH   1  16
TORSDOF 4
ENDMDL
MODEL 7
REMARK VINA RESULT:      -6.6      3.542      5.809
REMARK  4 active torsions:
REMARK  status: ('A' for Active; 'I' for Inactive)
REMARK    1  A    between atoms: C_4  and  C_5 
REMARK       I    between atoms: C_5  and  N_6 
REMARK    2  A    between atoms: N_6  and  C_7 
REMARK    3  A    between atoms: C_7  and  N_8 
REMARK    4  A    between atoms: N_8  and  C_9 
ROOT
HETATM    1  C   UNL     1     -42.567  55.876 -54.752  1.00  0.00     0.257 C 
HETATM    2  N   UNL     1     -41.953  56.247 -55.941  1.00  0.00    -0.299 N 
HETATM    3  O   UNL     1     -43.672  56.216 -54.354  1.00  0.00    -0.267 OA
HETATM    4  H   UNL     1     -41.149  55.685 -56.215  1.00  0.00     0.171 HD
ENDROOT
BRANCH   2   5
HETATM    5  C   UNL     1     -42.227  57.252 -56.843  1.00  0.00     0.180 C 
HETATM    6  S   UNL     1     -42.399  58.880 -56.515  1.00  0.00    -0.040 SA
BRANCH   5   7
HETATM    7  N   UNL     1     -42.361  56.863 -58.156  1.00  0.00    -0.318 N 
HETATM    8  H   UNL     1     -41.510  56.948 -58.697  1.00  0.00     0.170 HD
BRANCH   7   9
HETATM    9  C   UNL     1     -43.511  56.420 -58.825  1.00  0.00     0.129 A 
HETATM   10  N   UNL     1     -44.592  57.231 -58.898  1.00  0.00    -0.236 NA
HETATM   11  C   UNL     1     -45.678  56.788 -59.578  1.00  0.00     0.033 A 
HETATM   12  C   UNL     1     -46.858  57.710 -59.666  1.00  0.00     0.070 C 
HETATM   13  C   UNL     1     -45.727  55.534 -60.174  1.00  0.00     0.027 A 
HETATM   14  C   UNL     1     -44.614  54.707 -60.078  1.00  0.00     0.006 A 
HETATM   15  C   UNL     1     -43.486  55.155 -59.395  1.00  0.00     0.050 A 
ENDBRANCH   7   9
ENDBRANCH   5   7
ENDBRANCH   2   5
BRANCH   1  16
HETATM   16  C   UNL     1     -41.797  54.870 -53.978  1.00  0.00     0.032 A 
HETATM   17  C   UNL     1     -41.453  53.637 -54.552  1.00  0.00     0.023 A 
HETATM   18  C   UNL     1     -40.745  52.688 -53.805  1.00  0.00    -0.061 A 
HETATM   19  C   UNL     1     -40.385  51.358 -54.400  1.00  0.00     0.048 C 
HETATM   20  C   UNL     1     -40.413  52.978 -52.475  1.00  0.00     0.007 A 
HETATM   21  C   UNL     1     -40.746  54.211 -51.910  1.00  0.00     0.002 A 
HETATM   22  C   UNL     1     -41.428  55.164 -52.664  1.00  0.00     0.017 A 
ENDBRANCH   1  16
TORSDOF 4
ENDMDL
MODEL 8
REMARK VINA RESULT:      -6.5     15.743     16.721
REMARK  4 active torsions:
REMARK  status: ('A' for Active; 'I' for Inactive)
REMARK    1  A    between atoms: C_4  and  C_5 
REMARK       I    between atoms: C_5  and  N_6 
REMARK    2  A    between atoms: N_6  and  C_7 
REMARK    3  A    between atoms: C_7  and  N_8 
REMARK    4  A    between atoms: N_8  and  C_9 
ROOT
HETATM    1  C   UNL     1     -35.112  41.268 -55.517  1.00  0.00     0.257 C 
HETATM    2  N   UNL     1     -34.015  40.424 -55.635  1.00  0.00    -0.299 N 
HETATM    3  O   UNL     1     -35.250  42.194 -54.730  1.00  0.00    -0.267 OA
HETATM    4  H   UNL     1     -33.973  39.874 -56.491  1.00  0.00     0.171 HD
ENDROOT
BRANCH   2   5
HETATM    5  C   UNL     1     -32.947  40.181 -54.798  1.00  0.00     0.180 C 
HETATM    6  S   UNL     1     -31.706  39.091 -55.041  1.00  0.00    -0.040 SA
BRANCH   5   7
HETATM    7  N   UNL     1     -32.902  40.932 -53.647  1.00  0.00    -0.318 N 
HETATM    8  H   UNL     1     -32.746  41.919 -53.807  1.00  0.00     0.170 HD
BRANCH   7   9
HETATM    9  C   UNL     1     -32.998  40.501 -52.315  1.00  0.00     0.129 A 
HETATM   10  N   UNL     1     -34.217  40.249 -51.785  1.00  0.00    -0.236 NA
HETATM   11  C   UNL     1     -34.277  39.803 -50.505  1.00  0.00     0.033 A 
HETATM   12  C   UNL     1     -35.636  39.509 -49.942  1.00  0.00     0.070 C 
HETATM   13  C   UNL     1     -33.144  39.623 -49.723  1.00  0.00     0.027 A 
HETATM   14  C   UNL     1     -31.900  39.900 -50.278  1.00  0.00     0.006 A 
HETATM   15  C   UNL     1     -31.823  40.344 -51.595  1.00  0.00     0.050 A 
ENDBRANCH   7   9
ENDBRANCH   5   7
ENDBRANCH   2   5
BRANCH   1  16
HETATM   16  C   UNL     1     -36.146  41.043 -56.559  1.00  0.00     0.032 A 
HETATM   17  C   UNL     1     -36.194  41.851 -57.704  1.00  0.00     0.023 A 
HETATM   18  C   UNL     1     -37.186  41.642 -58.670  1.00  0.00    -0.061 A 
HETATM   19  C   UNL     1     -37.262  42.510 -59.892  1.00  0.00     0.048 C 
HETATM   20  C   UNL     1     -38.140  40.637 -58.460  1.00  0.00     0.007 A 
HETATM   21  C   UNL     1     -38.082  39.826 -57.324  1.00  0.00     0.002 A 
HETATM   22  C   UNL     1     -37.078  40.019 -56.378  1.00  0.00     0.017 A 
ENDBRANCH   1  16
TORSDOF 4
ENDMDL
MODEL 9
REMARK VINA RESULT:      -6.4      1.354      2.310
REMARK  4 active torsions:
REMARK  status: ('A' for Active; 'I' for Inactive)
REMARK    1  A    between atoms: C_4  and  C_5 
REMARK       I    between atoms: C_5  and  N_6 
REMARK    2  A    between atoms: N_6  and  C_7 
REMARK    3  A    between atoms: C_7  and  N_8 
REMARK    4  A    between atoms: N_8  and  C_9 
ROOT
HETATM    1  C   UNL     1     -42.188  54.478 -54.516  1.00  0.00     0.257 C 
HETATM    2  N   UNL     1     -41.915  55.832 -54.370  1.00  0.00    -0.299 N 
HETATM    3  O   UNL     1     -42.963  53.962 -55.308  1.00  0.00    -0.267 OA
HETATM    4  H   UNL     1     -41.077  56.057 -53.836  1.00  0.00     0.171 HD
ENDROOT
BRANCH   2   5
HETATM    5  C   UNL     1     -42.573  56.957 -54.819  1.00  0.00     0.180 C 
HETATM    6  S   UNL     1     -42.579  57.566 -56.374  1.00  0.00    -0.040 SA
BRANCH   5   7
HETATM    7  N   UNL     1     -43.313  57.637 -53.879  1.00  0.00    -0.318 N 
HETATM    8  H   UNL     1     -44.313  57.584 -54.028  1.00  0.00     0.170 HD
BRANCH   7   9
HETATM    9  C   UNL     1     -42.860  58.410 -52.800  1.00  0.00     0.129 A 
HETATM   10  N   UNL     1     -41.549  58.380 -52.465  1.00  0.00    -0.236 NA
HETATM   11  C   UNL     1     -41.134  59.161 -51.436  1.00  0.00     0.033 A 
HETATM   12  C   UNL     1     -39.675  59.130 -51.094  1.00  0.00     0.070 C 
HETATM   13  C   UNL     1     -42.005  59.962 -50.708  1.00  0.00     0.027 A 
HETATM   14  C   UNL     1     -43.351  59.971 -51.056  1.00  0.00     0.006 A 
HETATM   15  C   UNL     1     -43.788  59.185 -52.119  1.00  0.00     0.050 A 
ENDBRANCH   7   9
ENDBRANCH   5   7
ENDBRANCH   2   5
BRANCH   1  16
HETATM   16  C   UNL     1     -41.333  53.609 -53.669  1.00  0.00     0.032 A 
HETATM   17  C   UNL     1     -41.191  53.865 -52.297  1.00  0.00     0.023 A 
HETATM   18  C   UNL     1     -40.365  53.050 -51.513  1.00  0.00    -0.061 A 
HETATM   19  C   UNL     1     -40.189  53.322 -50.047  1.00  0.00     0.048 C 
HETATM   20  C   UNL     1     -39.667  52.000 -52.123  1.00  0.00     0.007 A 
HETATM   21  C   UNL     1     -39.820  51.740 -53.487  1.00  0.00     0.002 A 
HETATM   22  C   UNL     1     -40.662  52.536 -54.260  1.00  0.00     0.017 A 
ENDBRANCH   1  16
TORSDOF 4
ENDMDL
MODEL 10
REMARK VINA RESULT:      -6.3     15.307     16.350
REMARK  4 active torsions:
REMARK  status: ('A' for Active; 'I' for Inactive)
REMARK    1  A    between atoms: C_4  and  C_5 
REMARK       I    between atoms: C_5  and  N_6 
REMARK    2  A    between atoms: N_6  and  C_7 
REMARK    3  A    between atoms: C_7  and  N_8 
REMARK    4  A    between atoms: N_8  and  C_9 
ROOT
HETATM    1  C   UNL     1     -34.999  41.548 -56.536  1.00  0.00     0.257 C 
HETATM    2  N   UNL     1     -34.149  40.525 -56.135  1.00  0.00    -0.299 N 
HETATM    3  O   UNL     1     -35.058  42.681 -56.080  1.00  0.00    -0.267 OA
HETATM    4  H   UNL     1     -34.072  39.739 -56.778  1.00  0.00     0.171 HD
ENDROOT
BRANCH   2   5
HETATM    5  C   UNL     1     -33.371  40.365 -55.009  1.00  0.00     0.180 C 
HETATM    6  S   UNL     1     -32.086  39.316 -54.814  1.00  0.00    -0.040 SA
BRANCH   5   7
HETATM    7  N   UNL     1     -33.688  41.168 -53.939  1.00  0.00    -0.318 N 
HETATM    8  H   UNL     1     -33.183  42.045 -53.921  1.00  0.00     0.170 HD
BRANCH   7   9
HETATM    9  C   UNL     1     -34.566  40.907 -52.877  1.00  0.00     0.129 A 
HETATM   10  N   UNL     1     -35.899  40.872 -53.110  1.00  0.00    -0.236 NA
HETATM   11  C   UNL     1     -36.722  40.587 -52.071  1.00  0.00     0.033 A 
HETATM   12  C   UNL     1     -38.194  40.531 -52.354  1.00  0.00     0.070 C 
HETATM   13  C   UNL     1     -36.250  40.357 -50.785  1.00  0.00     0.027 A 
HETATM   14  C   UNL     1     -34.879  40.410 -50.559  1.00  0.00     0.006 A 
HETATM   15  C   UNL     1     -34.022  40.688 -51.619  1.00  0.00     0.050 A 
ENDBRANCH   7   9
ENDBRANCH   5   7
ENDBRANCH   2   5
BRANCH   1  16
HETATM   16  C   UNL     1     -35.820  41.201 -57.724  1.00  0.00     0.032 A 
HETATM   17  C   UNL     1     -35.767  39.914 -58.278  1.00  0.00     0.023 A 
HETATM   18  C   UNL     1     -36.531  39.606 -59.411  1.00  0.00    -0.061 A 
HETATM   19  C   UNL     1     -36.471  38.238 -60.026  1.00  0.00     0.048 C 
HETATM   20  C   UNL     1     -37.320  40.606 -59.993  1.00  0.00     0.007 A 
HETATM   21  C   UNL     1     -37.380  41.884 -59.432  1.00  0.00     0.002 A 
HETATM   22  C   UNL     1     -36.640  42.180 -58.289  1.00  0.00     0.017 A 
ENDBRANCH   1  16
TORSDOF 4
ENDMDL
