MODEL 1
REMARK VINA RESULT:      -7.3      0.000      0.000
REMARK  7 active torsions:
REMARK  status: ('A' for Active; 'I' for Inactive)
REMARK    1  A    between atoms: C_3  and  C_4 
REMARK    2  A    between atoms: C_9  and  N_10 
REMARK       I    between atoms: N_10  and  C_11 
REMARK       I    between atoms: C_11  and  N_15 
REMARK    3  A    between atoms: N_15  and  CA_16 
REMARK    4  A    between atoms: CA_16  and  C_17 
REMARK    5  A    between atoms: CA_16  and  CB_19 
REMARK    6  A    between atoms: C_17  and  O_18 
REMARK    7  A    between atoms: CB_19  and  CG_20 
ROOT
HETATM    1  N   UNK A   0     -44.121  58.743 -52.345  1.00  0.00    -0.309 N 
HETATM    2  C   UNK A   0     -44.178  59.136 -53.648  1.00  0.00     0.321 C 
HETATM    3  O   UNK A   0     -45.148  59.781 -54.039  1.00  0.00    -0.247 OA
HETATM    4  H   UNK A   0     -44.869  59.176 -51.815  1.00  0.00     0.170 HD
ATOM      5  N   TRP A   1     -43.128  58.819 -54.446  1.00  0.00    -0.336 N 
ATOM      6  H   TRP A   1     -42.238  58.881 -53.969  1.00  0.00     0.164 HD
ENDROOT
BRANCH   5   7
ATOM      7  CA  TRP A   1     -43.056  59.273 -55.845  1.00  0.00     0.114 C 
BRANCH   7   8
ATOM      8  C   TRP A   1     -42.482  60.703 -55.875  1.00  0.00     0.189 C 
BRANCH   8   9
ATOM      9  O   TRP A   1     -41.362  60.760 -56.763  1.00  0.00    -0.399 OA
ATOM     10  H   TRP A   1     -41.725  60.755 -57.666  1.00  0.00     0.209 HD
ENDBRANCH   8   9
ENDBRANCH   7   8
BRANCH   7  11
ATOM     11  CB  TRP A   1     -42.189  58.295 -56.666  1.00  0.00     0.068 C 
BRANCH  11  12
ATOM     12  CG  TRP A   1     -42.487  56.838 -56.428  1.00  0.00    -0.028 A 
ATOM     13  CD2 TRP A   1     -41.938  55.961 -55.431  1.00  0.00    -0.002 A 
ATOM     14  CE2 TRP A   1     -42.509  54.700 -55.622  1.00  0.00     0.042 A 
ATOM     15  CE3 TRP A   1     -41.015  56.114 -54.375  1.00  0.00     0.014 A 
ATOM     16  CZ2 TRP A   1     -42.211  53.597 -54.811  1.00  0.00     0.030 A 
ATOM     17  NE1 TRP A   1     -43.354  54.796 -56.700  1.00  0.00    -0.365 N 
ATOM     18  CH2 TRP A   1     -41.306  53.785 -53.764  1.00  0.00     0.002 A 
ATOM     19  CZ3 TRP A   1     -40.715  55.026 -53.548  1.00  0.00     0.001 A 
ATOM     20  HE1 TRP A   1     -43.894  54.028 -57.074  1.00  0.00     0.165 HD
ATOM     21  CD1 TRP A   1     -43.351  56.072 -57.192  1.00  0.00     0.096 A 
ENDBRANCH  11  12
ENDBRANCH   7  11
ENDBRANCH   5   7
BRANCH   1  22
HETATM   22  C   UNK A   0     -43.277  57.868 -51.638  1.00  0.00     0.036 A 
HETATM   23  C   UNK A   0     -42.020  58.203 -51.140  1.00  0.00     0.030 A 
HETATM   24  C   UNK A   0     -41.265  57.266 -50.421  1.00  0.00     0.018 A 
HETATM   25  C   UNK A   0     -41.746  55.965 -50.216  1.00  0.00     0.015 A 
HETATM   26  C   UNK A   0     -42.988  55.592 -50.760  1.00  0.00    -0.046 A 
HETATM   27  C   UNK A   0     -43.558  54.208 -50.604  1.00  0.00     0.049 C 
HETATM   28  C   UNK A   0     -43.738  56.555 -51.461  1.00  0.00     0.037 A 
BRANCH  25  29
HETATM   29  C   UNK A   0     -40.932  55.011 -49.404  1.00  0.00     0.156 C 
HETATM   30  C   UNK A   0     -39.912  54.156 -50.110  1.00  0.00     0.097 C 
HETATM   31  O   UNK A   0     -41.073  54.953 -48.185  1.00  0.00    -0.293 OA
ENDBRANCH  25  29
ENDBRANCH   1  22
TORSDOF 7
ENDMDL
MODEL 2
REMARK VINA RESULT:      -7.3      2.352      3.302
REMARK  7 active torsions:
REMARK  status: ('A' for Active; 'I' for Inactive)
REMARK    1  A    between atoms: C_3  and  C_4 
REMARK    2  A    between atoms: C_9  and  N_10 
REMARK       I    between atoms: N_10  and  C_11 
REMARK       I    between atoms: C_11  and  N_15 
REMARK    3  A    between atoms: N_15  and  CA_16 
REMARK    4  A    between atoms: CA_16  and  C_17 
REMARK    5  A    between atoms: CA_16  and  CB_19 
REMARK    6  A    between atoms: C_17  and  O_18 
REMARK    7  A    between atoms: CB_19  and  CG_20 
ROOT
HETATM    1  N   UNK A   0     -44.227  56.076 -50.554  1.00  0.00    -0.309 N 
HETATM    2  C   UNK A   0     -44.419  57.327 -51.056  1.00  0.00     0.321 C 
HETATM    3  O   UNK A   0     -45.481  57.905 -50.840  1.00  0.00    -0.247 OA
HETATM    4  H   UNK A   0     -44.981  55.832 -49.922  1.00  0.00     0.170 HD
ATOM      5  N   TRP A   1     -43.397  57.890 -51.749  1.00  0.00    -0.336 N 
ATOM      6  H   TRP A   1     -42.489  57.667 -51.362  1.00  0.00     0.164 HD
ENDROOT
BRANCH   5   7
ATOM      7  CA  TRP A   1     -43.475  59.270 -52.257  1.00  0.00     0.114 C 
BRANCH   7   8
ATOM      8  C   TRP A   1     -42.712  60.199 -51.293  1.00  0.00     0.189 C 
BRANCH   8   9
ATOM      9  O   TRP A   1     -43.384  60.250 -50.031  1.00  0.00    -0.399 OA
ATOM     10  H   TRP A   1     -42.775  59.865 -49.378  1.00  0.00     0.209 HD
ENDBRANCH   8   9
ENDBRANCH   7   8
BRANCH   7  11
ATOM     11  CB  TRP A   1     -42.893  59.332 -53.686  1.00  0.00     0.068 C 
BRANCH  11  12
ATOM     12  CG  TRP A   1     -43.113  58.091 -54.510  1.00  0.00    -0.028 A 
ATOM     13  CD2 TRP A   1     -42.267  56.936 -54.635  1.00  0.00    -0.002 A 
ATOM     14  CE2 TRP A   1     -42.887  56.057 -55.526  1.00  0.00     0.042 A 
ATOM     15  CE3 TRP A   1     -41.034  56.544 -54.071  1.00  0.00     0.014 A 
ATOM     16  CZ2 TRP A   1     -42.343  54.813 -55.872  1.00  0.00     0.030 A 
ATOM     17  NE1 TRP A   1     -44.050  56.656 -55.944  1.00  0.00    -0.365 N 
ATOM     18  CH2 TRP A   1     -41.131  54.446 -55.284  1.00  0.00     0.002 A 
ATOM     19  CZ3 TRP A   1     -40.483  55.299 -54.396  1.00  0.00     0.001 A 
ATOM     20  HE1 TRP A   1     -44.697  56.249 -56.605  1.00  0.00     0.165 HD
ATOM     21  CD1 TRP A   1     -44.198  57.874 -55.341  1.00  0.00     0.096 A 
ENDBRANCH  11  12
ENDBRANCH   7  11
ENDBRANCH   5   7
BRANCH   1  22
HETATM   22  C   UNK A   0     -43.240  55.095 -50.761  1.00  0.00     0.036 A 
HETATM   23  C   UNK A   0     -43.237  54.178 -51.810  1.00  0.00     0.030 A 
HETATM   24  C   UNK A   0     -42.191  53.255 -51.946  1.00  0.00     0.018 A 
HETATM   25  C   UNK A   0     -41.145  53.215 -51.013  1.00  0.00     0.015 A 
HETATM   26  C   UNK A   0     -41.162  54.094 -49.916  1.00  0.00    -0.046 A 
HETATM   27  C   UNK A   0     -40.089  54.094 -48.860  1.00  0.00     0.049 C 
HETATM   28  C   UNK A   0     -42.212  55.027 -49.810  1.00  0.00     0.037 A 
BRANCH  25  29
HETATM   29  C   UNK A   0     -40.025  52.248 -51.220  1.00  0.00     0.156 C 
HETATM   30  C   UNK A   0     -40.112  50.896 -50.560  1.00  0.00     0.097 C 
HETATM   31  O   UNK A   0     -39.074  52.542 -51.939  1.00  0.00    -0.293 OA
ENDBRANCH  25  29
ENDBRANCH   1  22
TORSDOF 7
ENDMDL
MODEL 3
REMARK VINA RESULT:      -7.2      2.722      6.608
REMARK  7 active torsions:
REMARK  status: ('A' for Active; 'I' for Inactive)
REMARK    1  A    between atoms: C_3  and  C_4 
REMARK    2  A    between atoms: C_9  and  N_10 
REMARK       I    between atoms: N_10  and  C_11 
REMARK       I    between atoms: C_11  and  N_15 
REMARK    3  A    between atoms: N_15  and  CA_16 
REMARK    4  A    between atoms: CA_16  and  C_17 
REMARK    5  A    between atoms: CA_16  and  CB_19 
REMARK    6  A    between atoms: C_17  and  O_18 
REMARK    7  A    between atoms: CB_19  and  CG_20 
ROOT
HETATM    1  N   UNK A   0     -43.943  57.869 -54.123  1.00  0.00    -0.309 N 
HETATM    2  C   UNK A   0     -43.629  57.492 -52.853  1.00  0.00     0.321 C 
HETATM    3  O   UNK A   0     -43.777  58.295 -51.934  1.00  0.00    -0.247 OA
HETATM    4  H   UNK A   0     -44.408  58.769 -54.117  1.00  0.00     0.170 HD
ATOM      5  N   TRP A   1     -43.196  56.220 -52.663  1.00  0.00    -0.336 N 
ATOM      6  H   TRP A   1     -43.671  55.550 -53.254  1.00  0.00     0.164 HD
ENDROOT
BRANCH   5   7
ATOM      7  CA  TRP A   1     -42.914  55.692 -51.318  1.00  0.00     0.114 C 
BRANCH   7   8
ATOM      8  C   TRP A   1     -43.575  54.307 -51.178  1.00  0.00     0.189 C 
BRANCH   8   9
ATOM      9  O   TRP A   1     -44.674  54.382 -50.265  1.00  0.00    -0.399 OA
ATOM     10  H   TRP A   1     -44.949  53.465 -50.089  1.00  0.00     0.209 HD
ENDBRANCH   8   9
ENDBRANCH   7   8
BRANCH   7  11
ATOM     11  CB  TRP A   1     -41.388  55.619 -51.097  1.00  0.00     0.068 C 
BRANCH  11  12
ATOM     12  CG  TRP A   1     -40.806  54.232 -51.180  1.00  0.00    -0.028 A 
ATOM     13  CD2 TRP A   1     -40.556  53.432 -52.347  1.00  0.00    -0.002 A 
ATOM     14  CE2 TRP A   1     -40.026  52.214 -51.914  1.00  0.00     0.042 A 
ATOM     15  CE3 TRP A   1     -40.720  53.624 -53.735  1.00  0.00     0.014 A 
ATOM     16  CZ2 TRP A   1     -39.648  51.191 -52.794  1.00  0.00     0.030 A 
ATOM     17  NE1 TRP A   1     -39.973  52.258 -50.543  1.00  0.00    -0.365 N 
ATOM     18  CH2 TRP A   1     -39.808  51.419 -54.163  1.00  0.00     0.002 A 
ATOM     19  CZ3 TRP A   1     -40.337  52.618 -54.629  1.00  0.00     0.001 A 
ATOM     20  HE1 TRP A   1     -39.642  51.503 -49.958  1.00  0.00     0.165 HD
ATOM     21  CD1 TRP A   1     -40.436  53.463 -50.090  1.00  0.00     0.096 A 
ENDBRANCH  11  12
ENDBRANCH   7  11
ENDBRANCH   5   7
BRANCH   1  22
HETATM   22  C   UNK A   0     -43.727  57.283 -55.384  1.00  0.00     0.036 A 
HETATM   23  C   UNK A   0     -42.949  56.150 -55.614  1.00  0.00     0.030 A 
HETATM   24  C   UNK A   0     -42.819  55.626 -56.907  1.00  0.00     0.018 A 
HETATM   25  C   UNK A   0     -43.442  56.247 -57.998  1.00  0.00     0.015 A 
HETATM   26  C   UNK A   0     -44.184  57.424 -57.794  1.00  0.00    -0.046 A 
HETATM   27  C   UNK A   0     -44.860  58.161 -58.918  1.00  0.00     0.049 C 
HETATM   28  C   UNK A   0     -44.319  57.921 -56.484  1.00  0.00     0.037 A 
BRANCH  25  29
HETATM   29  C   UNK A   0     -43.317  55.629 -59.352  1.00  0.00     0.156 C 
HETATM   30  C   UNK A   0     -44.334  54.599 -59.769  1.00  0.00     0.097 C 
HETATM   31  O   UNK A   0     -42.421  55.982 -60.117  1.00  0.00    -0.293 OA
ENDBRANCH  25  29
ENDBRANCH   1  22
TORSDOF 7
ENDMDL
MODEL 4
REMARK VINA RESULT:      -7.1      3.239      5.451
REMARK  7 active torsions:
REMARK  status: ('A' for Active; 'I' for Inactive)
REMARK    1  A    between atoms: C_3  and  C_4 
REMARK    2  A    between atoms: C_9  and  N_10 
REMARK       I    between atoms: N_10  and  C_11 
REMARK       I    between atoms: C_11  and  N_15 
REMARK    3  A    between atoms: N_15  and  CA_16 
REMARK    4  A    between atoms: CA_16  and  C_17 
REMARK    5  A    between atoms: CA_16  and  CB_19 
REMARK    6  A    between atoms: C_17  and  O_18 
REMARK    7  A    between atoms: CB_19  and  CG_20 
ROOT
HETATM    1  N   UNK A   0     -44.093  56.149 -51.361  1.00  0.00    -0.309 N 
HETATM    2  C   UNK A   0     -43.535  55.175 -52.132  1.00  0.00     0.321 C 
HETATM    3  O   UNK A   0     -43.637  54.001 -51.784  1.00  0.00    -0.247 OA
HETATM    4  H   UNK A   0     -44.663  55.736 -50.632  1.00  0.00     0.170 HD
ATOM      5  N   TRP A   1     -42.918  55.557 -53.279  1.00  0.00    -0.336 N 
ATOM      6  H   TRP A   1     -43.391  56.320 -53.745  1.00  0.00     0.164 HD
ENDROOT
BRANCH   5   7
ATOM      7  CA  TRP A   1     -42.361  54.573 -54.221  1.00  0.00     0.114 C 
BRANCH   7   8
ATOM      8  C   TRP A   1     -42.722  54.998 -55.657  1.00  0.00     0.189 C 
BRANCH   8   9
ATOM      9  O   TRP A   1     -41.597  55.628 -56.277  1.00  0.00    -0.399 OA
ATOM     10  H   TRP A   1     -41.858  55.818 -57.195  1.00  0.00     0.209 HD
ENDBRANCH   8   9
ENDBRANCH   7   8
BRANCH   7  11
ATOM     11  CB  TRP A   1     -40.832  54.473 -54.025  1.00  0.00     0.068 C 
BRANCH  11  12
ATOM     12  CG  TRP A   1     -40.392  53.444 -53.017  1.00  0.00    -0.028 A 
ATOM     13  CD2 TRP A   1     -40.141  52.044 -53.215  1.00  0.00    -0.002 A 
ATOM     14  CE2 TRP A   1     -39.773  51.505 -51.980  1.00  0.00     0.042 A 
ATOM     15  CE3 TRP A   1     -40.181  51.176 -54.328  1.00  0.00     0.014 A 
ATOM     16  CZ2 TRP A   1     -39.439  50.155 -51.806  1.00  0.00     0.030 A 
ATOM     17  NE1 TRP A   1     -39.818  52.525 -51.063  1.00  0.00    -0.365 N 
ATOM     18  CH2 TRP A   1     -39.472  49.326 -52.930  1.00  0.00     0.002 A 
ATOM     19  CZ3 TRP A   1     -39.838  49.828 -54.174  1.00  0.00     0.001 A 
ATOM     20  HE1 TRP A   1     -39.610  52.420 -50.079  1.00  0.00     0.165 HD
ATOM     21  CD1 TRP A   1     -40.186  53.693 -51.671  1.00  0.00     0.096 A 
ENDBRANCH  11  12
ENDBRANCH   7  11
ENDBRANCH   5   7
BRANCH   1  22
HETATM   22  C   UNK A   0     -44.007  57.554 -51.370  1.00  0.00     0.036 A 
HETATM   23  C   UNK A   0     -45.049  58.413 -51.712  1.00  0.00     0.030 A 
HETATM   24  C   UNK A   0     -44.872  59.802 -51.661  1.00  0.00     0.018 A 
HETATM   25  C   UNK A   0     -43.635  60.354 -51.296  1.00  0.00     0.015 A 
HETATM   26  C   UNK A   0     -42.556  59.502 -51.004  1.00  0.00    -0.046 A 
HETATM   27  C   UNK A   0     -41.193  60.019 -50.630  1.00  0.00     0.049 C 
HETATM   28  C   UNK A   0     -42.762  58.109 -51.041  1.00  0.00     0.037 A 
BRANCH  25  29
HETATM   29  C   UNK A   0     -43.502  61.839 -51.209  1.00  0.00     0.156 C 
HETATM   30  C   UNK A   0     -43.744  62.506 -49.880  1.00  0.00     0.097 C 
HETATM   31  O   UNK A   0     -43.169  62.493 -52.195  1.00  0.00    -0.293 OA
ENDBRANCH  25  29
ENDBRANCH   1  22
TORSDOF 7
ENDMDL
MODEL 5
REMARK VINA RESULT:      -7.0      2.040      4.376
REMARK  7 active torsions:
REMARK  status: ('A' for Active; 'I' for Inactive)
REMARK    1  A    between atoms: C_3  and  C_4 
REMARK    2  A    between atoms: C_9  and  N_10 
REMARK       I    between atoms: N_10  and  C_11 
REMARK       I    between atoms: C_11  and  N_15 
REMARK    3  A    between atoms: N_15  and  CA_16 
REMARK    4  A    between atoms: CA_16  and  C_17 
REMARK    5  A    between atoms: CA_16  and  CB_19 
REMARK    6  A    between atoms: C_17  and  O_18 
REMARK    7  A    between atoms: CB_19  and  CG_20 
ROOT
HETATM    1  N   UNK A   0     -42.558  54.461 -55.842  1.00  0.00    -0.309 N 
HETATM    2  C   UNK A   0     -42.894  55.659 -56.395  1.00  0.00     0.321 C 
HETATM    3  O   UNK A   0     -43.213  55.706 -57.580  1.00  0.00    -0.247 OA
HETATM    4  H   UNK A   0     -42.757  53.708 -56.490  1.00  0.00     0.170 HD
ATOM      5  N   TRP A   1     -42.891  56.748 -55.585  1.00  0.00    -0.336 N 
ATOM      6  H   TRP A   1     -43.224  56.545 -54.651  1.00  0.00     0.164 HD
ENDROOT
BRANCH   5   7
ATOM      7  CA  TRP A   1     -43.322  58.071 -56.067  1.00  0.00     0.114 C 
BRANCH   7   8
ATOM      8  C   TRP A   1     -44.651  58.442 -55.381  1.00  0.00     0.189 C 
BRANCH   8   9
ATOM      9  O   TRP A   1     -45.713  57.642 -55.909  1.00  0.00    -0.399 OA
ATOM     10  H   TRP A   1     -45.612  57.653 -56.877  1.00  0.00     0.209 HD
ENDBRANCH   8   9
ENDBRANCH   7   8
BRANCH   7  11
ATOM     11  CB  TRP A   1     -42.222  59.114 -55.776  1.00  0.00     0.068 C 
BRANCH  11  12
ATOM     12  CG  TRP A   1     -42.211  59.642 -54.366  1.00  0.00    -0.028 A 
ATOM     13  CD2 TRP A   1     -41.793  58.977 -53.163  1.00  0.00    -0.002 A 
ATOM     14  CE2 TRP A   1     -41.986  59.867 -52.103  1.00  0.00     0.042 A 
ATOM     15  CE3 TRP A   1     -41.261  57.704 -52.866  1.00  0.00     0.014 A 
ATOM     16  CZ2 TRP A   1     -41.667  59.553 -50.776  1.00  0.00     0.030 A 
ATOM     17  NE1 TRP A   1     -42.517  61.018 -52.631  1.00  0.00    -0.365 N 
ATOM     18  CH2 TRP A   1     -41.126  58.291 -50.517  1.00  0.00     0.002 A 
ATOM     19  CZ3 TRP A   1     -40.925  57.378 -51.547  1.00  0.00     0.001 A 
ATOM     20  HE1 TRP A   1     -42.770  61.832 -52.089  1.00  0.00     0.165 HD
ATOM     21  CD1 TRP A   1     -42.656  60.897 -53.987  1.00  0.00     0.096 A 
ENDBRANCH  11  12
ENDBRANCH   7  11
ENDBRANCH   5   7
BRANCH   1  22
HETATM   22  C   UNK A   0     -41.987  54.093 -54.610  1.00  0.00     0.036 A 
HETATM   23  C   UNK A   0     -40.721  53.530 -54.455  1.00  0.00     0.030 A 
HETATM   24  C   UNK A   0     -40.229  53.225 -53.179  1.00  0.00     0.018 A 
HETATM   25  C   UNK A   0     -41.011  53.449 -52.037  1.00  0.00     0.015 A 
HETATM   26  C   UNK A   0     -42.312  53.963 -52.179  1.00  0.00    -0.046 A 
HETATM   27  C   UNK A   0     -43.219  54.206 -51.003  1.00  0.00     0.049 C 
HETATM   28  C   UNK A   0     -42.778  54.282 -53.468  1.00  0.00     0.037 A 
BRANCH  25  29
HETATM   29  C   UNK A   0     -40.432  53.153 -50.692  1.00  0.00     0.156 C 
HETATM   30  C   UNK A   0     -39.787  54.277 -49.924  1.00  0.00     0.097 C 
HETATM   31  O   UNK A   0     -40.511  52.023 -50.215  1.00  0.00    -0.293 OA
ENDBRANCH  25  29
ENDBRANCH   1  22
TORSDOF 7
ENDMDL
MODEL 6
REMARK VINA RESULT:      -7.0      2.625      4.267
REMARK  7 active torsions:
REMARK  status: ('A' for Active; 'I' for Inactive)
REMARK    1  A    between atoms: C_3  and  C_4 
REMARK    2  A    between atoms: C_9  and  N_10 
REMARK       I    between atoms: N_10  and  C_11 
REMARK       I    between atoms: C_11  and  N_15 
REMARK    3  A    between atoms: N_15  and  CA_16 
REMARK    4  A    between atoms: CA_16  and  C_17 
REMARK    5  A    between atoms: CA_16  and  CB_19 
REMARK    6  A    between atoms: C_17  and  O_18 
REMARK    7  A    between atoms: CB_19  and  CG_20 
ROOT
HETATM    1  N   UNK A   0     -44.371  56.028 -54.374  1.00  0.00    -0.309 N 
HETATM    2  C   UNK A   0     -44.405  57.165 -55.123  1.00  0.00     0.321 C 
HETATM    3  O   UNK A   0     -45.480  57.730 -55.309  1.00  0.00    -0.247 OA
HETATM    4  H   UNK A   0     -45.271  55.868 -53.937  1.00  0.00     0.170 HD
ATOM      5  N   TRP A   1     -43.226  57.639 -55.600  1.00  0.00    -0.336 N 
ATOM      6  H   TRP A   1     -42.461  57.521 -54.949  1.00  0.00     0.164 HD
ENDROOT
BRANCH   5   7
ATOM      7  CA  TRP A   1     -43.148  58.905 -56.346  1.00  0.00     0.114 C 
BRANCH   7   8
ATOM      8  C   TRP A   1     -42.453  59.960 -55.464  1.00  0.00     0.189 C 
BRANCH   8   9
ATOM      9  O   TRP A   1     -41.376  59.358 -54.740  1.00  0.00    -0.399 OA
ATOM     10  H   TRP A   1     -40.554  59.682 -55.147  1.00  0.00     0.209 HD
ENDBRANCH   8   9
ENDBRANCH   7   8
BRANCH   7  11
ATOM     11  CB  TRP A   1     -42.388  58.683 -57.672  1.00  0.00     0.068 C 
BRANCH  11  12
ATOM     12  CG  TRP A   1     -43.245  58.215 -58.818  1.00  0.00    -0.028 A 
ATOM     13  CD2 TRP A   1     -43.661  56.878 -59.141  1.00  0.00    -0.002 A 
ATOM     14  CE2 TRP A   1     -44.430  56.947 -60.304  1.00  0.00     0.042 A 
ATOM     15  CE3 TRP A   1     -43.466  55.610 -58.553  1.00  0.00     0.014 A 
ATOM     16  CZ2 TRP A   1     -45.015  55.822 -60.900  1.00  0.00     0.030 A 
ATOM     17  NE1 TRP A   1     -44.467  58.265 -60.689  1.00  0.00    -0.365 N 
ATOM     18  CH2 TRP A   1     -44.818  54.584 -60.285  1.00  0.00     0.002 A 
ATOM     19  CZ3 TRP A   1     -44.053  54.477 -59.128  1.00  0.00     0.001 A 
ATOM     20  HE1 TRP A   1     -44.945  58.608 -61.511  1.00  0.00     0.165 HD
ATOM     21  CD1 TRP A   1     -43.762  59.036 -59.806  1.00  0.00     0.096 A 
ENDBRANCH  11  12
ENDBRANCH   7  11
ENDBRANCH   5   7
BRANCH   1  22
HETATM   22  C   UNK A   0     -43.376  55.064 -54.128  1.00  0.00     0.036 A 
HETATM   23  C   UNK A   0     -42.729  54.319 -55.112  1.00  0.00     0.030 A 
HETATM   24  C   UNK A   0     -41.728  53.401 -54.766  1.00  0.00     0.018 A 
HETATM   25  C   UNK A   0     -41.380  53.192 -53.424  1.00  0.00     0.015 A 
HETATM   26  C   UNK A   0     -42.062  53.893 -52.414  1.00  0.00    -0.046 A 
HETATM   27  C   UNK A   0     -41.762  53.704 -50.952  1.00  0.00     0.049 C 
HETATM   28  C   UNK A   0     -43.050  54.826 -52.785  1.00  0.00     0.037 A 
BRANCH  25  29
HETATM   29  C   UNK A   0     -40.275  52.239 -53.102  1.00  0.00     0.156 C 
HETATM   30  C   UNK A   0     -40.043  51.070 -54.023  1.00  0.00     0.097 C 
HETATM   31  O   UNK A   0     -39.556  52.428 -52.124  1.00  0.00    -0.293 OA
ENDBRANCH  25  29
ENDBRANCH   1  22
TORSDOF 7
ENDMDL
MODEL 7
REMARK VINA RESULT:      -6.8      2.504      6.456
REMARK  7 active torsions:
REMARK  status: ('A' for Active; 'I' for Inactive)
REMARK    1  A    between atoms: C_3  and  C_4 
REMARK    2  A    between atoms: C_9  and  N_10 
REMARK       I    between atoms: N_10  and  C_11 
REMARK       I    between atoms: C_11  and  N_15 
REMARK    3  A    between atoms: N_15  and  CA_16 
REMARK    4  A    between atoms: CA_16  and  C_17 
REMARK    5  A    between atoms: CA_16  and  CB_19 
REMARK    6  A    between atoms: C_17  and  O_18 
REMARK    7  A    between atoms: CB_19  and  CG_20 
ROOT
HETATM    1  N   UNK A   0     -41.918  59.669 -54.895  1.00  0.00    -0.309 N 
HETATM    2  C   UNK A   0     -41.986  59.380 -53.566  1.00  0.00     0.321 C 
HETATM    3  O   UNK A   0     -41.534  60.182 -52.752  1.00  0.00    -0.247 OA
HETATM    4  H   UNK A   0     -41.604  60.623 -55.030  1.00  0.00     0.170 HD
ATOM      5  N   TRP A   1     -42.591  58.220 -53.205  1.00  0.00    -0.336 N 
ATOM      6  H   TRP A   1     -43.391  57.997 -53.783  1.00  0.00     0.164 HD
ENDROOT
BRANCH   5   7
ATOM      7  CA  TRP A   1     -42.790  57.859 -51.792  1.00  0.00     0.114 C 
BRANCH   7   8
ATOM      8  C   TRP A   1     -44.012  56.927 -51.684  1.00  0.00     0.189 C 
BRANCH   8   9
ATOM      9  O   TRP A   1     -44.723  57.192 -50.471  1.00  0.00    -0.399 OA
ATOM     10  H   TRP A   1     -45.590  56.759 -50.558  1.00  0.00     0.209 HD
ENDBRANCH   8   9
ENDBRANCH   7   8
BRANCH   7  11
ATOM     11  CB  TRP A   1     -41.513  57.189 -51.240  1.00  0.00     0.068 C 
BRANCH  11  12
ATOM     12  CG  TRP A   1     -41.409  55.712 -51.514  1.00  0.00    -0.028 A 
ATOM     13  CD2 TRP A   1     -41.017  55.050 -52.727  1.00  0.00    -0.002 A 
ATOM     14  CE2 TRP A   1     -41.092  53.674 -52.498  1.00  0.00     0.042 A 
ATOM     15  CE3 TRP A   1     -40.595  55.483 -54.003  1.00  0.00     0.014 A 
ATOM     16  CZ2 TRP A   1     -40.763  52.719 -53.468  1.00  0.00     0.030 A 
ATOM     17  NE1 TRP A   1     -41.531  53.501 -51.208  1.00  0.00    -0.365 N 
ATOM     18  CH2 TRP A   1     -40.333  53.180 -54.715  1.00  0.00     0.002 A 
ATOM     19  CZ3 TRP A   1     -40.250  54.543 -54.980  1.00  0.00     0.001 A 
ATOM     20  HE1 TRP A   1     -41.691  52.603 -50.773  1.00  0.00     0.165 HD
ATOM     21  CD1 TRP A   1     -41.723  54.715 -50.607  1.00  0.00     0.096 A 
ENDBRANCH  11  12
ENDBRANCH   7  11
ENDBRANCH   5   7
BRANCH   1  22
HETATM   22  C   UNK A   0     -42.163  58.918 -56.059  1.00  0.00     0.036 A 
HETATM   23  C   UNK A   0     -42.511  57.569 -56.079  1.00  0.00     0.030 A 
HETATM   24  C   UNK A   0     -42.763  56.916 -57.293  1.00  0.00     0.018 A 
HETATM   25  C   UNK A   0     -42.639  57.597 -58.512  1.00  0.00     0.015 A 
HETATM   26  C   UNK A   0     -42.233  58.944 -58.515  1.00  0.00    -0.046 A 
HETATM   27  C   UNK A   0     -42.054  59.733 -59.783  1.00  0.00     0.049 C 
HETATM   28  C   UNK A   0     -42.006  59.586 -57.283  1.00  0.00     0.037 A 
BRANCH  25  29
HETATM   29  C   UNK A   0     -42.962  56.878 -59.780  1.00  0.00     0.156 C 
HETATM   30  C   UNK A   0     -44.391  56.867 -60.257  1.00  0.00     0.097 C 
HETATM   31  O   UNK A   0     -42.072  56.337 -60.433  1.00  0.00    -0.293 OA
ENDBRANCH  25  29
ENDBRANCH   1  22
TORSDOF 7
ENDMDL
MODEL 8
REMARK VINA RESULT:      -6.8      3.394      7.168
REMARK  7 active torsions:
REMARK  status: ('A' for Active; 'I' for Inactive)
REMARK    1  A    between atoms: C_3  and  C_4 
REMARK    2  A    between atoms: C_9  and  N_10 
REMARK       I    between atoms: N_10  and  C_11 
REMARK       I    between atoms: C_11  and  N_15 
REMARK    3  A    between atoms: N_15  and  CA_16 
REMARK    4  A    between atoms: CA_16  and  C_17 
REMARK    5  A    between atoms: CA_16  and  CB_19 
REMARK    6  A    between atoms: C_17  and  O_18 
REMARK    7  A    between atoms: CB_19  and  CG_20 
ROOT
HETATM    1  N   UNK A   0     -42.554  58.468 -55.493  1.00  0.00    -0.309 N 
HETATM    2  C   UNK A   0     -41.993  57.671 -54.542  1.00  0.00     0.321 C 
HETATM    3  O   UNK A   0     -41.069  58.109 -53.859  1.00  0.00    -0.247 OA
HETATM    4  H   UNK A   0     -42.198  59.414 -55.412  1.00  0.00     0.170 HD
ATOM      5  N   TRP A   1     -42.516  56.431 -54.373  1.00  0.00    -0.336 N 
ATOM      6  H   TRP A   1     -43.522  56.410 -54.478  1.00  0.00     0.164 HD
ENDROOT
BRANCH   5   7
ATOM      7  CA  TRP A   1     -42.037  55.528 -53.313  1.00  0.00     0.114 C 
BRANCH   7   8
ATOM      8  C   TRP A   1     -43.240  54.765 -52.727  1.00  0.00     0.189 C 
BRANCH   8   9
ATOM      9  O   TRP A   1     -43.929  55.591 -51.784  1.00  0.00    -0.399 OA
ATOM     10  H   TRP A   1     -43.302  56.283 -51.514  1.00  0.00     0.209 HD
ENDBRANCH   8   9
ENDBRANCH   7   8
BRANCH   7  11
ATOM     11  CB  TRP A   1     -40.978  54.563 -53.891  1.00  0.00     0.068 C 
BRANCH  11  12
ATOM     12  CG  TRP A   1     -40.491  53.513 -52.928  1.00  0.00    -0.028 A 
ATOM     13  CD2 TRP A   1     -40.218  52.124 -53.177  1.00  0.00    -0.002 A 
ATOM     14  CE2 TRP A   1     -39.806  51.555 -51.970  1.00  0.00     0.042 A 
ATOM     15  CE3 TRP A   1     -40.273  51.291 -54.315  1.00  0.00     0.014 A 
ATOM     16  CZ2 TRP A   1     -39.442  50.208 -51.848  1.00  0.00     0.030 A 
ATOM     17  NE1 TRP A   1     -39.845  52.545 -51.020  1.00  0.00    -0.365 N 
ATOM     18  CH2 TRP A   1     -39.491  49.414 -52.996  1.00  0.00     0.002 A 
ATOM     19  CZ3 TRP A   1     -39.901  49.946 -54.213  1.00  0.00     0.001 A 
ATOM     20  HE1 TRP A   1     -39.608  52.414 -50.046  1.00  0.00     0.165 HD
ATOM     21  CD1 TRP A   1     -40.252  53.724 -51.581  1.00  0.00     0.096 A 
ENDBRANCH  11  12
ENDBRANCH   7  11
ENDBRANCH   5   7
BRANCH   1  22
HETATM   22  C   UNK A   0     -43.468  58.229 -56.535  1.00  0.00     0.036 A 
HETATM   23  C   UNK A   0     -44.841  58.453 -56.457  1.00  0.00     0.030 A 
HETATM   24  C   UNK A   0     -45.667  58.210 -57.563  1.00  0.00     0.018 A 
HETATM   25  C   UNK A   0     -45.134  57.707 -58.758  1.00  0.00     0.015 A 
HETATM   26  C   UNK A   0     -43.759  57.421 -58.837  1.00  0.00    -0.046 A 
HETATM   27  C   UNK A   0     -43.118  56.857 -60.076  1.00  0.00     0.049 C 
HETATM   28  C   UNK A   0     -42.945  57.693 -57.720  1.00  0.00     0.037 A 
BRANCH  25  29
HETATM   29  C   UNK A   0     -46.040  57.506 -59.928  1.00  0.00     0.156 C 
HETATM   30  C   UNK A   0     -46.593  56.127 -60.181  1.00  0.00     0.097 C 
HETATM   31  O   UNK A   0     -46.350  58.454 -60.646  1.00  0.00    -0.293 OA
ENDBRANCH  25  29
ENDBRANCH   1  22
TORSDOF 7
ENDMDL
MODEL 9
REMARK VINA RESULT:      -6.7     16.370     19.015
REMARK  7 active torsions:
REMARK  status: ('A' for Active; 'I' for Inactive)
REMARK    1  A    between atoms: C_3  and  C_4 
REMARK    2  A    between atoms: C_9  and  N_10 
REMARK       I    between atoms: N_10  and  C_11 
REMARK       I    between atoms: C_11  and  N_15 
REMARK    3  A    between atoms: N_15  and  CA_16 
REMARK    4  A    between atoms: CA_16  and  C_17 
REMARK    5  A    between atoms: CA_16  and  CB_19 
REMARK    6  A    between atoms: C_17  and  O_18 
REMARK    7  A    between atoms: CB_19  and  CG_20 
ROOT
HETATM    1  N   UNK A   0     -35.464  42.507 -53.341  1.00  0.00    -0.309 N 
HETATM    2  C   UNK A   0     -35.037  41.736 -52.303  1.00  0.00     0.321 C 
HETATM    3  O   UNK A   0     -34.716  42.274 -51.246  1.00  0.00    -0.247 OA
HETATM    4  H   UNK A   0     -35.591  43.465 -53.036  1.00  0.00     0.170 HD
ATOM      5  N   TRP A   1     -35.022  40.391 -52.484  1.00  0.00    -0.336 N 
ATOM      6  H   TRP A   1     -35.804  40.059 -53.034  1.00  0.00     0.164 HD
ENDROOT
BRANCH   5   7
ATOM      7  CA  TRP A   1     -34.660  39.468 -51.396  1.00  0.00     0.114 C 
BRANCH   7   8
ATOM      8  C   TRP A   1     -35.949  38.985 -50.703  1.00  0.00     0.189 C 
BRANCH   8   9
ATOM      9  O   TRP A   1     -36.410  39.979 -49.783  1.00  0.00    -0.399 OA
ATOM     10  H   TRP A   1     -35.636  40.524 -49.554  1.00  0.00     0.209 HD
ENDBRANCH   8   9
ENDBRANCH   7   8
BRANCH   7  11
ATOM     11  CB  TRP A   1     -33.843  38.288 -51.964  1.00  0.00     0.068 C 
BRANCH  11  12
ATOM     12  CG  TRP A   1     -33.087  38.596 -53.230  1.00  0.00    -0.028 A 
ATOM     13  CD2 TRP A   1     -33.555  38.549 -54.588  1.00  0.00    -0.002 A 
ATOM     14  CE2 TRP A   1     -32.484  38.903 -55.412  1.00  0.00     0.042 A 
ATOM     15  CE3 TRP A   1     -34.789  38.249 -55.202  1.00  0.00     0.014 A 
ATOM     16  CZ2 TRP A   1     -32.587  38.977 -56.807  1.00  0.00     0.030 A 
ATOM     17  NE1 TRP A   1     -31.403  39.135 -54.597  1.00  0.00    -0.365 N 
ATOM     18  CH2 TRP A   1     -33.826  38.689 -57.384  1.00  0.00     0.002 A 
ATOM     19  CZ3 TRP A   1     -34.913  38.330 -56.594  1.00  0.00     0.001 A 
ATOM     20  HE1 TRP A   1     -30.484  39.396 -54.926  1.00  0.00     0.165 HD
ATOM     21  CD1 TRP A   1     -31.752  38.956 -53.286  1.00  0.00     0.096 A 
ENDBRANCH  11  12
ENDBRANCH   7  11
ENDBRANCH   5   7
BRANCH   1  22
HETATM   22  C   UNK A   0     -35.721  42.242 -54.698  1.00  0.00     0.036 A 
HETATM   23  C   UNK A   0     -34.832  42.492 -55.741  1.00  0.00     0.030 A 
HETATM   24  C   UNK A   0     -35.171  42.165 -57.061  1.00  0.00     0.018 A 
HETATM   25  C   UNK A   0     -36.423  41.609 -57.362  1.00  0.00     0.015 A 
HETATM   26  C   UNK A   0     -37.355  41.403 -56.330  1.00  0.00    -0.046 A 
HETATM   27  C   UNK A   0     -38.726  40.835 -56.578  1.00  0.00     0.049 C 
HETATM   28  C   UNK A   0     -36.985  41.719 -55.009  1.00  0.00     0.037 A 
BRANCH  25  29
HETATM   29  C   UNK A   0     -36.727  41.232 -58.775  1.00  0.00     0.156 C 
HETATM   30  C   UNK A   0     -37.269  42.290 -59.701  1.00  0.00     0.097 C 
HETATM   31  O   UNK A   0     -36.508  40.091 -59.175  1.00  0.00    -0.293 OA
ENDBRANCH  25  29
ENDBRANCH   1  22
TORSDOF 7
ENDMDL
MODEL 10
REMARK VINA RESULT:      -6.6      2.717      4.540
REMARK  7 active torsions:
REMARK  status: ('A' for Active; 'I' for Inactive)
REMARK    1  A    between atoms: C_3  and  C_4 
REMARK    2  A    between atoms: C_9  and  N_10 
REMARK       I    between atoms: N_10  and  C_11 
REMARK       I    between atoms: C_11  and  N_15 
REMARK    3  A    between atoms: N_15  and  CA_16 
REMARK    4  A    between atoms: CA_16  and  C_17 
REMARK    5  A    between atoms: CA_16  and  CB_19 
REMARK    6  A    between atoms: C_17  and  O_18 
REMARK    7  A    between atoms: CB_19  and  CG_20 
ROOT
HETATM    1  N   UNK A   0     -44.238  56.314 -51.246  1.00  0.00    -0.309 N 
HETATM    2  C   UNK A   0     -44.610  57.623 -51.182  1.00  0.00     0.321 C 
HETATM    3  O   UNK A   0     -45.634  57.927 -50.575  1.00  0.00    -0.247 OA
HETATM    4  H   UNK A   0     -44.821  55.753 -50.636  1.00  0.00     0.170 HD
ATOM      5  N   TRP A   1     -43.798  58.537 -51.770  1.00  0.00    -0.336 N 
ATOM      6  H   TRP A   1     -42.816  58.316 -51.667  1.00  0.00     0.164 HD
ENDROOT
BRANCH   5   7
ATOM      7  CA  TRP A   1     -44.068  59.981 -51.681  1.00  0.00     0.114 C 
BRANCH   7   8
ATOM      8  C   TRP A   1     -43.291  60.560 -50.483  1.00  0.00     0.189 C 
BRANCH   8   9
ATOM      9  O   TRP A   1     -44.091  60.481 -49.300  1.00  0.00    -0.399 OA
ATOM     10  H   TRP A   1     -45.017  60.566 -49.586  1.00  0.00     0.209 HD
ENDBRANCH   8   9
ENDBRANCH   7   8
BRANCH   7  11
ATOM     11  CB  TRP A   1     -43.667  60.668 -53.005  1.00  0.00     0.068 C 
BRANCH  11  12
ATOM     12  CG  TRP A   1     -44.316  60.092 -54.235  1.00  0.00    -0.028 A 
ATOM     13  CD2 TRP A   1     -43.792  59.121 -55.155  1.00  0.00    -0.002 A 
ATOM     14  CE2 TRP A   1     -44.756  58.919 -56.146  1.00  0.00     0.042 A 
ATOM     15  CE3 TRP A   1     -42.593  58.383 -55.242  1.00  0.00     0.014 A 
ATOM     16  CZ2 TRP A   1     -44.585  58.018 -57.205  1.00  0.00     0.030 A 
ATOM     17  NE1 TRP A   1     -45.814  59.745 -55.857  1.00  0.00    -0.365 N 
ATOM     18  CH2 TRP A   1     -43.394  57.290 -57.253  1.00  0.00     0.002 A 
ATOM     19  CZ3 TRP A   1     -42.410  57.469 -56.286  1.00  0.00     0.001 A 
ATOM     20  HE1 TRP A   1     -46.653  59.817 -56.416  1.00  0.00     0.165 HD
ATOM     21  CD1 TRP A   1     -45.564  60.453 -54.714  1.00  0.00     0.096 A 
ENDBRANCH  11  12
ENDBRANCH   7  11
ENDBRANCH   5   7
BRANCH   1  22
HETATM   22  C   UNK A   0     -43.260  55.625 -51.987  1.00  0.00     0.036 A 
HETATM   23  C   UNK A   0     -41.960  55.377 -51.553  1.00  0.00     0.030 A 
HETATM   24  C   UNK A   0     -41.067  54.653 -52.355  1.00  0.00     0.018 A 
HETATM   25  C   UNK A   0     -41.454  54.193 -53.621  1.00  0.00     0.015 A 
HETATM   26  C   UNK A   0     -42.744  54.483 -54.100  1.00  0.00    -0.046 A 
HETATM   27  C   UNK A   0     -43.222  54.045 -55.458  1.00  0.00     0.049 C 
HETATM   28  C   UNK A   0     -43.631  55.193 -53.268  1.00  0.00     0.037 A 
BRANCH  25  29
HETATM   29  C   UNK A   0     -40.488  53.385 -54.425  1.00  0.00     0.156 C 
HETATM   30  C   UNK A   0     -40.410  51.901 -54.178  1.00  0.00     0.097 C 
HETATM   31  O   UNK A   0     -39.798  53.920 -55.290  1.00  0.00    -0.293 OA
ENDBRANCH  25  29
ENDBRANCH   1  22
TORSDOF 7
ENDMDL
