MODEL 1
REMARK VINA RESULT:      -8.2      0.000      0.000
REMARK  9 active torsions:
REMARK  status: ('A' for Active; 'I' for Inactive)
REMARK    1  A    between atoms: C_2  and  N_3 
REMARK    2  A    between atoms: C_2  and  C_23 
REMARK       I    between atoms: N_3  and  C_4 
REMARK       I    between atoms: C_4  and  N_5 
REMARK    3  A    between atoms: N_5  and  C_6 
REMARK    4  A    between atoms: C_6  and  C_7 
REMARK    5  A    between atoms: C_7  and  N_8 
REMARK    6  A    between atoms: C_7  and  C_14 
REMARK    7  A    between atoms: C_16  and  O_17 
REMARK    8  A    between atoms: C_23  and  C_24 
REMARK    9  A    between atoms: C_27  and  O_28 
ROOT
HETATM    1  N   UNL     1     -42.111  53.914 -50.984  1.00  0.00    -0.339 N 
HETATM    2  C   UNL     1     -43.101  54.166 -51.864  1.00  0.00     0.316 C 
HETATM    3  N   UNL     1     -42.759  54.754 -53.040  1.00  0.00    -0.341 N 
HETATM    4  O   UNL     1     -44.254  53.836 -51.613  1.00  0.00    -0.248 OA
HETATM    5  H   UNL     1     -42.469  53.523 -50.119  1.00  0.00     0.164 HD
HETATM    6  H   UNL     1     -41.842  55.180 -53.079  1.00  0.00     0.164 HD
ENDROOT
BRANCH   3   7
HETATM    7  C   UNL     1     -43.784  55.337 -53.906  1.00  0.00     0.162 C 
BRANCH   7   8
HETATM    8  C   UNL     1     -43.437  56.747 -54.473  1.00  0.00     0.238 C 
BRANCH   8   9
HETATM    9  N   UNL     1     -42.542  56.651 -55.711  1.00  0.00    -0.061 N 
HETATM   10  H   UNL     1     -41.578  56.701 -55.354  1.00  0.00     0.280 HD
HETATM   11  C   UNL     1     -42.758  57.736 -56.746  1.00  0.00     0.236 C 
HETATM   12  C   UNL     1     -43.654  57.080 -57.773  1.00  0.00     0.029 C 
HETATM   13  C   UNL     1     -43.055  55.698 -57.889  1.00  0.00     0.029 C 
HETATM   14  C   UNL     1     -42.665  55.327 -56.466  1.00  0.00     0.236 C 
ENDBRANCH   8   9
BRANCH   8  15
HETATM   15  C   UNL     1     -42.857  57.607 -53.356  1.00  0.00    -0.023 A 
HETATM   16  C   UNL     1     -41.491  57.958 -53.396  1.00  0.00     0.046 A 
HETATM   17  C   UNL     1     -40.927  58.749 -52.394  1.00  0.00     0.068 A 
HETATM   18  C   UNL     1     -41.729  59.194 -51.343  1.00  0.00     0.037 A 
HETATM   19  C   UNL     1     -43.082  58.862 -51.290  1.00  0.00     0.003 A 
HETATM   20  C   UNL     1     -43.646  58.075 -52.291  1.00  0.00     0.009 A 
BRANCH  17  21
HETATM   21  O   UNL     1     -39.624  59.151 -52.322  1.00  0.00    -0.356 OA
HETATM   22  C   UNL     1     -39.050  59.313 -51.031  1.00  0.00     0.210 C 
ENDBRANCH  17  21
ENDBRANCH   8  15
ENDBRANCH   7   8
ENDBRANCH   3   7
BRANCH   1  23
HETATM   23  C   UNL     1     -40.686  54.261 -51.006  1.00  0.00     0.086 C 
HETATM   24  C   UNL     1     -40.385  55.329 -49.950  1.00  0.00     0.032 C 
BRANCH  23  25
HETATM   25  C   UNL     1     -39.800  53.025 -50.736  1.00  0.00     0.063 C 
BRANCH  25  26
HETATM   26  C   UNL     1     -39.788  52.018 -51.864  1.00  0.00    -0.056 A 
HETATM   27  C   UNL     1     -39.568  50.658 -51.599  1.00  0.00     0.010 A 
HETATM   28  C   UNL     1     -39.593  49.720 -52.635  1.00  0.00     0.037 A 
HETATM   29  C   UNL     1     -39.827  50.146 -53.938  1.00  0.00     0.065 A 
HETATM   30  C   UNL     1     -40.033  51.490 -54.221  1.00  0.00     0.037 A 
HETATM   31  C   UNL     1     -40.020  52.425 -53.185  1.00  0.00     0.010 A 
BRANCH  29  32
HETATM   32  O   UNL     1     -39.869  49.267 -54.978  1.00  0.00    -0.361 OA
HETATM   33  H   UNL     1     -40.789  49.188 -55.284  1.00  0.00     0.217 HD
ENDBRANCH  29  32
ENDBRANCH  25  26
ENDBRANCH  23  25
ENDBRANCH   1  23
TORSDOF 9
ENDMDL
MODEL 2
REMARK VINA RESULT:      -8.0      3.014      5.688
REMARK  9 active torsions:
REMARK  status: ('A' for Active; 'I' for Inactive)
REMARK    1  A    between atoms: C_2  and  N_3 
REMARK    2  A    between atoms: C_2  and  C_23 
REMARK       I    between atoms: N_3  and  C_4 
REMARK       I    between atoms: C_4  and  N_5 
REMARK    3  A    between atoms: N_5  and  C_6 
REMARK    4  A    between atoms: C_6  and  C_7 
REMARK    5  A    between atoms: C_7  and  N_8 
REMARK    6  A    between atoms: C_7  and  C_14 
REMARK    7  A    between atoms: C_16  and  O_17 
REMARK    8  A    between atoms: C_23  and  C_24 
REMARK    9  A    between atoms: C_27  and  O_28 
ROOT
HETATM    1  N   UNL     1     -42.712  54.033 -54.234  1.00  0.00    -0.339 N 
HETATM    2  C   UNL     1     -43.076  54.596 -55.404  1.00  0.00     0.316 C 
HETATM    3  N   UNL     1     -42.746  55.900 -55.601  1.00  0.00    -0.341 N 
HETATM    4  O   UNL     1     -43.648  53.933 -56.261  1.00  0.00    -0.248 OA
HETATM    5  H   UNL     1     -43.045  53.077 -54.158  1.00  0.00     0.164 HD
HETATM    6  H   UNL     1     -42.473  56.422 -54.780  1.00  0.00     0.164 HD
ENDROOT
BRANCH   3   7
HETATM    7  C   UNL     1     -43.360  56.666 -56.685  1.00  0.00     0.162 C 
BRANCH   7   8
HETATM    8  C   UNL     1     -42.790  56.365 -58.103  1.00  0.00     0.238 C 
BRANCH   8   9
HETATM    9  N   UNL     1     -41.807  57.447 -58.557  1.00  0.00    -0.061 N 
HETATM   10  H   UNL     1     -40.874  57.091 -58.306  1.00  0.00     0.280 HD
HETATM   11  C   UNL     1     -42.017  58.810 -57.931  1.00  0.00     0.236 C 
HETATM   12  C   UNL     1     -42.798  59.572 -58.979  1.00  0.00     0.029 C 
HETATM   13  C   UNL     1     -42.108  59.159 -60.259  1.00  0.00     0.029 C 
HETATM   14  C   UNL     1     -41.795  57.682 -60.068  1.00  0.00     0.236 C 
ENDBRANCH   8   9
BRANCH   8  15
HETATM   15  C   UNL     1     -43.946  56.137 -59.070  1.00  0.00    -0.023 A 
HETATM   16  C   UNL     1     -45.051  57.014 -59.040  1.00  0.00     0.046 A 
HETATM   17  C   UNL     1     -46.126  56.840 -59.914  1.00  0.00     0.068 A 
HETATM   18  C   UNL     1     -46.100  55.784 -60.825  1.00  0.00     0.037 A 
HETATM   19  C   UNL     1     -45.014  54.910 -60.872  1.00  0.00     0.003 A 
HETATM   20  C   UNL     1     -43.941  55.086 -60.002  1.00  0.00     0.009 A 
BRANCH  17  21
HETATM   21  O   UNL     1     -47.246  57.618 -59.979  1.00  0.00    -0.356 OA
HETATM   22  C   UNL     1     -47.180  58.812 -60.749  1.00  0.00     0.210 C 
ENDBRANCH  17  21
ENDBRANCH   8  15
ENDBRANCH   7   8
ENDBRANCH   3   7
BRANCH   1  23
HETATM   23  C   UNL     1     -42.093  54.608 -53.035  1.00  0.00     0.086 C 
HETATM   24  C   UNL     1     -42.771  54.060 -51.776  1.00  0.00     0.032 C 
BRANCH  23  25
HETATM   25  C   UNL     1     -40.582  54.288 -52.972  1.00  0.00     0.063 C 
BRANCH  25  26
HETATM   26  C   UNL     1     -40.268  52.811 -52.913  1.00  0.00    -0.056 A 
HETATM   27  C   UNL     1     -40.342  52.022 -54.072  1.00  0.00     0.010 A 
HETATM   28  C   UNL     1     -40.016  50.664 -54.027  1.00  0.00     0.037 A 
HETATM   29  C   UNL     1     -39.626  50.093 -52.821  1.00  0.00     0.065 A 
HETATM   30  C   UNL     1     -39.559  50.855 -51.662  1.00  0.00     0.037 A 
HETATM   31  C   UNL     1     -39.873  52.214 -51.708  1.00  0.00     0.010 A 
BRANCH  29  32
HETATM   32  O   UNL     1     -39.290  48.775 -52.733  1.00  0.00    -0.361 OA
HETATM   33  H   UNL     1     -38.572  48.678 -52.086  1.00  0.00     0.217 HD
ENDBRANCH  29  32
ENDBRANCH  25  26
ENDBRANCH  23  25
ENDBRANCH   1  23
TORSDOF 9
ENDMDL
MODEL 3
REMARK VINA RESULT:      -7.9      1.695      4.092
REMARK  9 active torsions:
REMARK  status: ('A' for Active; 'I' for Inactive)
REMARK    1  A    between atoms: C_2  and  N_3 
REMARK    2  A    between atoms: C_2  and  C_23 
REMARK       I    between atoms: N_3  and  C_4 
REMARK       I    between atoms: C_4  and  N_5 
REMARK    3  A    between atoms: N_5  and  C_6 
REMARK    4  A    between atoms: C_6  and  C_7 
REMARK    5  A    between atoms: C_7  and  N_8 
REMARK    6  A    between atoms: C_7  and  C_14 
REMARK    7  A    between atoms: C_16  and  O_17 
REMARK    8  A    between atoms: C_23  and  C_24 
REMARK    9  A    between atoms: C_27  and  O_28 
ROOT
HETATM    1  N   UNL     1     -42.004  53.858 -50.927  1.00  0.00    -0.339 N 
HETATM    2  C   UNL     1     -42.856  54.175 -51.923  1.00  0.00     0.316 C 
HETATM    3  N   UNL     1     -42.317  54.617 -53.090  1.00  0.00    -0.341 N 
HETATM    4  O   UNL     1     -44.064  54.027 -51.779  1.00  0.00    -0.248 OA
HETATM    5  H   UNL     1     -42.499  53.588 -50.083  1.00  0.00     0.164 HD
HETATM    6  H   UNL     1     -41.350  54.908 -53.056  1.00  0.00     0.164 HD
ENDROOT
BRANCH   3   7
HETATM    7  C   UNL     1     -43.157  55.267 -54.096  1.00  0.00     0.162 C 
BRANCH   7   8
HETATM    8  C   UNL     1     -42.609  56.626 -54.626  1.00  0.00     0.238 C 
BRANCH   8   9
HETATM    9  N   UNL     1     -43.305  57.814 -53.956  1.00  0.00    -0.061 N 
HETATM   10  H   UNL     1     -43.560  58.449 -54.725  1.00  0.00     0.280 HD
HETATM   11  C   UNL     1     -42.468  58.558 -52.936  1.00  0.00     0.236 C 
HETATM   12  C   UNL     1     -42.926  57.990 -51.611  1.00  0.00     0.029 C 
HETATM   13  C   UNL     1     -44.423  57.902 -51.797  1.00  0.00     0.029 C 
HETATM   14  C   UNL     1     -44.605  57.448 -53.238  1.00  0.00     0.236 C 
ENDBRANCH   8   9
BRANCH   8  15
HETATM   15  C   UNL     1     -42.692  56.641 -56.148  1.00  0.00    -0.023 A 
HETATM   16  C   UNL     1     -42.398  57.834 -56.842  1.00  0.00     0.046 A 
HETATM   17  C   UNL     1     -42.458  57.882 -58.236  1.00  0.00     0.068 A 
HETATM   18  C   UNL     1     -42.813  56.735 -58.944  1.00  0.00     0.037 A 
HETATM   19  C   UNL     1     -43.101  55.546 -58.276  1.00  0.00     0.003 A 
HETATM   20  C   UNL     1     -43.039  55.496 -56.885  1.00  0.00     0.009 A 
BRANCH  17  21
HETATM   21  O   UNL     1     -42.199  58.973 -59.016  1.00  0.00    -0.356 OA
HETATM   22  C   UNL     1     -42.093  58.774 -60.420  1.00  0.00     0.210 C 
ENDBRANCH  17  21
ENDBRANCH   8  15
ENDBRANCH   7   8
ENDBRANCH   3   7
BRANCH   1  23
HETATM   23  C   UNL     1     -40.549  54.002 -50.816  1.00  0.00     0.086 C 
HETATM   24  C   UNL     1     -40.199  54.989 -49.698  1.00  0.00     0.032 C 
BRANCH  23  25
HETATM   25  C   UNL     1     -39.869  52.647 -50.521  1.00  0.00     0.063 C 
BRANCH  25  26
HETATM   26  C   UNL     1     -39.801  51.719 -51.712  1.00  0.00    -0.056 A 
HETATM   27  C   UNL     1     -39.634  50.338 -51.528  1.00  0.00     0.010 A 
HETATM   28  C   UNL     1     -39.608  49.474 -52.627  1.00  0.00     0.037 A 
HETATM   29  C   UNL     1     -39.737  49.995 -53.910  1.00  0.00     0.065 A 
HETATM   30  C   UNL     1     -39.890  51.360 -54.112  1.00  0.00     0.037 A 
HETATM   31  C   UNL     1     -39.928  52.222 -53.015  1.00  0.00     0.010 A 
BRANCH  29  32
HETATM   32  O   UNL     1     -39.727  49.190 -55.009  1.00  0.00    -0.361 OA
HETATM   33  H   UNL     1     -40.407  49.499 -55.631  1.00  0.00     0.217 HD
ENDBRANCH  29  32
ENDBRANCH  25  26
ENDBRANCH  23  25
ENDBRANCH   1  23
TORSDOF 9
ENDMDL
MODEL 4
REMARK VINA RESULT:      -7.9      2.342      4.862
REMARK  9 active torsions:
REMARK  status: ('A' for Active; 'I' for Inactive)
REMARK    1  A    between atoms: C_2  and  N_3 
REMARK    2  A    between atoms: C_2  and  C_23 
REMARK       I    between atoms: N_3  and  C_4 
REMARK       I    between atoms: C_4  and  N_5 
REMARK    3  A    between atoms: N_5  and  C_6 
REMARK    4  A    between atoms: C_6  and  C_7 
REMARK    5  A    between atoms: C_7  and  N_8 
REMARK    6  A    between atoms: C_7  and  C_14 
REMARK    7  A    between atoms: C_16  and  O_17 
REMARK    8  A    between atoms: C_23  and  C_24 
REMARK    9  A    between atoms: C_27  and  O_28 
ROOT
HETATM    1  N   UNL     1     -41.971  56.139 -55.509  1.00  0.00    -0.339 N 
HETATM    2  C   UNL     1     -42.076  57.345 -54.916  1.00  0.00     0.316 C 
HETATM    3  N   UNL     1     -42.119  57.374 -53.558  1.00  0.00    -0.341 N 
HETATM    4  O   UNL     1     -42.092  58.369 -55.590  1.00  0.00    -0.248 OA
HETATM    5  H   UNL     1     -41.997  56.214 -56.520  1.00  0.00     0.164 HD
HETATM    6  H   UNL     1     -42.313  56.496 -53.097  1.00  0.00     0.164 HD
ENDROOT
BRANCH   3   7
HETATM    7  C   UNL     1     -42.538  58.585 -52.854  1.00  0.00     0.162 C 
BRANCH   7   8
HETATM    8  C   UNL     1     -43.414  58.337 -51.589  1.00  0.00     0.238 C 
BRANCH   8   9
HETATM    9  N   UNL     1     -43.261  59.466 -50.567  1.00  0.00    -0.061 N 
HETATM   10  H   UNL     1     -42.964  59.005 -49.695  1.00  0.00     0.280 HD
HETATM   11  C   UNL     1     -44.514  60.279 -50.312  1.00  0.00     0.236 C 
HETATM   12  C   UNL     1     -44.328  61.507 -51.176  1.00  0.00     0.029 C 
HETATM   13  C   UNL     1     -42.869  61.834 -50.963  1.00  0.00     0.029 C 
HETATM   14  C   UNL     1     -42.173  60.481 -50.921  1.00  0.00     0.236 C 
ENDBRANCH   8   9
BRANCH   8  15
HETATM   15  C   UNL     1     -43.107  56.952 -51.031  1.00  0.00    -0.023 A 
HETATM   16  C   UNL     1     -41.840  56.706 -50.459  1.00  0.00     0.046 A 
HETATM   17  C   UNL     1     -41.525  55.452 -49.933  1.00  0.00     0.068 A 
HETATM   18  C   UNL     1     -42.478  54.435 -49.977  1.00  0.00     0.037 A 
HETATM   19  C   UNL     1     -43.737  54.661 -50.534  1.00  0.00     0.003 A 
HETATM   20  C   UNL     1     -44.052  55.913 -51.056  1.00  0.00     0.009 A 
BRANCH  17  21
HETATM   21  O   UNL     1     -40.339  55.094 -49.359  1.00  0.00    -0.356 OA
HETATM   22  C   UNL     1     -40.364  54.077 -48.364  1.00  0.00     0.210 C 
ENDBRANCH  17  21
ENDBRANCH   8  15
ENDBRANCH   7   8
ENDBRANCH   3   7
BRANCH   1  23
HETATM   23  C   UNL     1     -41.999  54.782 -54.952  1.00  0.00     0.086 C 
HETATM   24  C   UNL     1     -43.154  53.983 -55.565  1.00  0.00     0.032 C 
BRANCH  23  25
HETATM   25  C   UNL     1     -40.674  54.034 -55.220  1.00  0.00     0.063 C 
BRANCH  25  26
HETATM   26  C   UNL     1     -40.293  53.050 -54.138  1.00  0.00    -0.056 A 
HETATM   27  C   UNL     1     -40.274  53.446 -52.792  1.00  0.00     0.010 A 
HETATM   28  C   UNL     1     -39.958  52.528 -51.787  1.00  0.00     0.037 A 
HETATM   29  C   UNL     1     -39.651  51.216 -52.130  1.00  0.00     0.065 A 
HETATM   30  C   UNL     1     -39.653  50.809 -53.457  1.00  0.00     0.037 A 
HETATM   31  C   UNL     1     -39.980  51.722 -54.461  1.00  0.00     0.010 A 
BRANCH  29  32
HETATM   32  O   UNL     1     -39.347  50.285 -51.183  1.00  0.00    -0.361 OA
HETATM   33  H   UNL     1     -39.786  50.529 -50.350  1.00  0.00     0.217 HD
ENDBRANCH  29  32
ENDBRANCH  25  26
ENDBRANCH  23  25
ENDBRANCH   1  23
TORSDOF 9
ENDMDL
MODEL 5
REMARK VINA RESULT:      -7.8      2.603      7.533
REMARK  9 active torsions:
REMARK  status: ('A' for Active; 'I' for Inactive)
REMARK    1  A    between atoms: C_2  and  N_3 
REMARK    2  A    between atoms: C_2  and  C_23 
REMARK       I    between atoms: N_3  and  C_4 
REMARK       I    between atoms: C_4  and  N_5 
REMARK    3  A    between atoms: N_5  and  C_6 
REMARK    4  A    between atoms: C_6  and  C_7 
REMARK    5  A    between atoms: C_7  and  N_8 
REMARK    6  A    between atoms: C_7  and  C_14 
REMARK    7  A    between atoms: C_16  and  O_17 
REMARK    8  A    between atoms: C_23  and  C_24 
REMARK    9  A    between atoms: C_27  and  O_28 
ROOT
HETATM    1  N   UNL     1     -43.102  58.638 -55.680  1.00  0.00    -0.339 N 
HETATM    2  C   UNL     1     -42.057  58.208 -54.945  1.00  0.00     0.316 C 
HETATM    3  N   UNL     1     -41.904  56.866 -54.799  1.00  0.00    -0.341 N 
HETATM    4  O   UNL     1     -41.263  59.010 -54.466  1.00  0.00    -0.248 OA
HETATM    5  H   UNL     1     -43.163  59.651 -55.690  1.00  0.00     0.164 HD
HETATM    6  H   UNL     1     -42.703  56.295 -55.039  1.00  0.00     0.164 HD
ENDROOT
BRANCH   3   7
HETATM    7  C   UNL     1     -41.000  56.327 -53.782  1.00  0.00     0.162 C 
BRANCH   7   8
HETATM    8  C   UNL     1     -41.692  55.469 -52.681  1.00  0.00     0.238 C 
BRANCH   8   9
HETATM    9  N   UNL     1     -41.827  56.242 -51.367  1.00  0.00    -0.061 N 
HETATM   10  H   UNL     1     -41.467  55.608 -50.640  1.00  0.00     0.280 HD
HETATM   11  C   UNL     1     -43.237  56.671 -51.015  1.00  0.00     0.236 C 
HETATM   12  C   UNL     1     -43.297  58.114 -51.465  1.00  0.00     0.029 C 
HETATM   13  C   UNL     1     -41.954  58.647 -51.022  1.00  0.00     0.029 C 
HETATM   14  C   UNL     1     -40.979  57.512 -51.303  1.00  0.00     0.236 C 
ENDBRANCH   8   9
BRANCH   8  15
HETATM   15  C   UNL     1     -40.955  54.142 -52.544  1.00  0.00    -0.023 A 
HETATM   16  C   UNL     1     -40.821  53.309 -53.675  1.00  0.00     0.046 A 
HETATM   17  C   UNL     1     -40.148  52.089 -53.589  1.00  0.00     0.068 A 
HETATM   18  C   UNL     1     -39.604  51.695 -52.366  1.00  0.00     0.037 A 
HETATM   19  C   UNL     1     -39.722  52.507 -51.239  1.00  0.00     0.003 A 
HETATM   20  C   UNL     1     -40.391  53.726 -51.326  1.00  0.00     0.009 A 
BRANCH  17  21
HETATM   21  O   UNL     1     -39.956  51.200 -54.608  1.00  0.00    -0.356 OA
HETATM   22  C   UNL     1     -39.856  49.821 -54.275  1.00  0.00     0.210 C 
ENDBRANCH  17  21
ENDBRANCH   8  15
ENDBRANCH   7   8
ENDBRANCH   3   7
BRANCH   1  23
HETATM   23  C   UNL     1     -44.217  57.910 -56.295  1.00  0.00     0.086 C 
HETATM   24  C   UNL     1     -45.460  57.996 -55.406  1.00  0.00     0.032 C 
BRANCH  23  25
HETATM   25  C   UNL     1     -44.558  58.475 -57.692  1.00  0.00     0.063 C 
BRANCH  25  26
HETATM   26  C   UNL     1     -44.632  57.427 -58.779  1.00  0.00    -0.056 A 
HETATM   27  C   UNL     1     -43.518  56.623 -59.068  1.00  0.00     0.010 A 
HETATM   28  C   UNL     1     -43.596  55.629 -60.047  1.00  0.00     0.037 A 
HETATM   29  C   UNL     1     -44.784  55.446 -60.744  1.00  0.00     0.065 A 
HETATM   30  C   UNL     1     -45.893  56.240 -60.481  1.00  0.00     0.037 A 
HETATM   31  C   UNL     1     -45.820  57.225 -59.495  1.00  0.00     0.010 A 
BRANCH  29  32
HETATM   32  O   UNL     1     -44.908  54.483 -61.700  1.00  0.00    -0.361 OA
HETATM   33  H   UNL     1     -44.148  53.880 -61.638  1.00  0.00     0.217 HD
ENDBRANCH  29  32
ENDBRANCH  25  26
ENDBRANCH  23  25
ENDBRANCH   1  23
TORSDOF 9
ENDMDL
MODEL 6
REMARK VINA RESULT:      -7.8      2.260      7.764
REMARK  9 active torsions:
REMARK  status: ('A' for Active; 'I' for Inactive)
REMARK    1  A    between atoms: C_2  and  N_3 
REMARK    2  A    between atoms: C_2  and  C_23 
REMARK       I    between atoms: N_3  and  C_4 
REMARK       I    between atoms: C_4  and  N_5 
REMARK    3  A    between atoms: N_5  and  C_6 
REMARK    4  A    between atoms: C_6  and  C_7 
REMARK    5  A    between atoms: C_7  and  N_8 
REMARK    6  A    between atoms: C_7  and  C_14 
REMARK    7  A    between atoms: C_16  and  O_17 
REMARK    8  A    between atoms: C_23  and  C_24 
REMARK    9  A    between atoms: C_27  and  O_28 
ROOT
HETATM    1  N   UNL     1     -43.481  55.270 -57.379  1.00  0.00    -0.339 N 
HETATM    2  C   UNL     1     -42.838  55.033 -56.217  1.00  0.00     0.316 C 
HETATM    3  N   UNL     1     -41.771  55.820 -55.921  1.00  0.00    -0.341 N 
HETATM    4  O   UNL     1     -43.237  54.162 -55.453  1.00  0.00    -0.248 OA
HETATM    5  H   UNL     1     -44.229  54.603 -57.536  1.00  0.00     0.164 HD
HETATM    6  H   UNL     1     -41.385  56.359 -56.684  1.00  0.00     0.164 HD
ENDROOT
BRANCH   3   7
HETATM    7  C   UNL     1     -40.841  55.441 -54.856  1.00  0.00     0.162 C 
BRANCH   7   8
HETATM    8  C   UNL     1     -41.495  55.246 -53.456  1.00  0.00     0.238 C 
BRANCH   8   9
HETATM    9  N   UNL     1     -41.443  56.532 -52.626  1.00  0.00    -0.061 N 
HETATM   10  H   UNL     1     -40.973  56.270 -51.748  1.00  0.00     0.280 HD
HETATM   11  C   UNL     1     -42.789  57.154 -52.317  1.00  0.00     0.236 C 
HETATM   12  C   UNL     1     -42.930  58.244 -53.356  1.00  0.00     0.029 C 
HETATM   13  C   UNL     1     -41.541  58.840 -53.388  1.00  0.00     0.029 C 
HETATM   14  C   UNL     1     -40.607  57.645 -53.258  1.00  0.00     0.236 C 
ENDBRANCH   8   9
BRANCH   8  15
HETATM   15  C   UNL     1     -40.860  54.042 -52.770  1.00  0.00    -0.023 A 
HETATM   16  C   UNL     1     -40.390  52.970 -53.558  1.00  0.00     0.046 A 
HETATM   17  C   UNL     1     -39.798  51.853 -52.964  1.00  0.00     0.068 A 
HETATM   18  C   UNL     1     -39.674  51.804 -51.576  1.00  0.00     0.037 A 
HETATM   19  C   UNL     1     -40.128  52.856 -50.782  1.00  0.00     0.003 A 
HETATM   20  C   UNL     1     -40.715  53.972 -51.374  1.00  0.00     0.009 A 
BRANCH  17  21
HETATM   21  O   UNL     1     -39.310  50.758 -53.617  1.00  0.00    -0.356 OA
HETATM   22  C   UNL     1     -40.223  49.980 -54.382  1.00  0.00     0.210 C 
ENDBRANCH  17  21
ENDBRANCH   8  15
ENDBRANCH   7   8
ENDBRANCH   3   7
BRANCH   1  23
HETATM   23  C   UNL     1     -43.177  56.186 -58.483  1.00  0.00     0.086 C 
HETATM   24  C   UNL     1     -43.551  55.543 -59.822  1.00  0.00     0.032 C 
BRANCH  23  25
HETATM   25  C   UNL     1     -43.942  57.521 -58.336  1.00  0.00     0.063 C 
BRANCH  25  26
HETATM   26  C   UNL     1     -43.047  58.732 -58.203  1.00  0.00    -0.056 A 
HETATM   27  C   UNL     1     -42.597  59.411 -59.345  1.00  0.00     0.010 A 
HETATM   28  C   UNL     1     -41.799  60.553 -59.223  1.00  0.00     0.037 A 
HETATM   29  C   UNL     1     -41.443  61.007 -57.958  1.00  0.00     0.065 A 
HETATM   30  C   UNL     1     -41.868  60.340 -56.817  1.00  0.00     0.037 A 
HETATM   31  C   UNL     1     -42.674  59.207 -56.937  1.00  0.00     0.010 A 
BRANCH  29  32
HETATM   32  O   UNL     1     -40.675  62.120 -57.791  1.00  0.00    -0.361 OA
HETATM   33  H   UNL     1     -41.259  62.889 -57.673  1.00  0.00     0.217 HD
ENDBRANCH  29  32
ENDBRANCH  25  26
ENDBRANCH  23  25
ENDBRANCH   1  23
TORSDOF 9
ENDMDL
MODEL 7
REMARK VINA RESULT:      -7.6      1.629      6.498
REMARK  9 active torsions:
REMARK  status: ('A' for Active; 'I' for Inactive)
REMARK    1  A    between atoms: C_2  and  N_3 
REMARK    2  A    between atoms: C_2  and  C_23 
REMARK       I    between atoms: N_3  and  C_4 
REMARK       I    between atoms: C_4  and  N_5 
REMARK    3  A    between atoms: N_5  and  C_6 
REMARK    4  A    between atoms: C_6  and  C_7 
REMARK    5  A    between atoms: C_7  and  N_8 
REMARK    6  A    between atoms: C_7  and  C_14 
REMARK    7  A    between atoms: C_16  and  O_17 
REMARK    8  A    between atoms: C_23  and  C_24 
REMARK    9  A    between atoms: C_27  and  O_28 
ROOT
HETATM    1  N   UNL     1     -44.329  57.341 -50.511  1.00  0.00    -0.339 N 
HETATM    2  C   UNL     1     -43.796  56.159 -50.880  1.00  0.00     0.316 C 
HETATM    3  N   UNL     1     -43.322  56.054 -52.149  1.00  0.00    -0.341 N 
HETATM    4  O   UNL     1     -43.715  55.237 -50.076  1.00  0.00    -0.248 OA
HETATM    5  H   UNL     1     -44.700  57.307 -49.568  1.00  0.00     0.164 HD
HETATM    6  H   UNL     1     -43.614  56.772 -52.798  1.00  0.00     0.164 HD
ENDROOT
BRANCH   3   7
HETATM    7  C   UNL     1     -43.018  54.743 -52.723  1.00  0.00     0.162 C 
BRANCH   7   8
HETATM    8  C   UNL     1     -41.554  54.573 -53.228  1.00  0.00     0.238 C 
BRANCH   8   9
HETATM    9  N   UNL     1     -41.489  54.511 -54.756  1.00  0.00    -0.061 N 
HETATM   10  H   UNL     1     -40.876  53.713 -54.971  1.00  0.00     0.280 HD
HETATM   11  C   UNL     1     -40.954  55.759 -55.429  1.00  0.00     0.236 C 
HETATM   12  C   UNL     1     -42.201  56.500 -55.859  1.00  0.00     0.029 C 
HETATM   13  C   UNL     1     -43.075  55.384 -56.383  1.00  0.00     0.029 C 
HETATM   14  C   UNL     1     -42.835  54.226 -55.424  1.00  0.00     0.236 C 
ENDBRANCH   8   9
BRANCH   8  15
HETATM   15  C   UNL     1     -40.920  53.373 -52.534  1.00  0.00    -0.023 A 
HETATM   16  C   UNL     1     -40.391  52.325 -53.318  1.00  0.00     0.046 A 
HETATM   17  C   UNL     1     -39.799  51.213 -52.717  1.00  0.00     0.068 A 
HETATM   18  C   UNL     1     -39.733  51.143 -51.326  1.00  0.00     0.037 A 
HETATM   19  C   UNL     1     -40.246  52.171 -50.536  1.00  0.00     0.003 A 
HETATM   20  C   UNL     1     -40.834  53.282 -51.135  1.00  0.00     0.009 A 
BRANCH  17  21
HETATM   21  O   UNL     1     -39.257  50.140 -53.366  1.00  0.00    -0.356 OA
HETATM   22  C   UNL     1     -39.715  49.861 -54.683  1.00  0.00     0.210 C 
ENDBRANCH  17  21
ENDBRANCH   8  15
ENDBRANCH   7   8
ENDBRANCH   3   7
BRANCH   1  23
HETATM   23  C   UNL     1     -44.604  58.560 -51.280  1.00  0.00     0.086 C 
HETATM   24  C   UNL     1     -46.056  59.000 -51.073  1.00  0.00     0.032 C 
BRANCH  23  25
HETATM   25  C   UNL     1     -43.665  59.714 -50.863  1.00  0.00     0.063 C 
BRANCH  25  26
HETATM   26  C   UNL     1     -42.229  59.527 -51.299  1.00  0.00    -0.056 A 
HETATM   27  C   UNL     1     -41.923  59.277 -52.646  1.00  0.00     0.010 A 
HETATM   28  C   UNL     1     -40.594  59.141 -53.057  1.00  0.00     0.037 A 
HETATM   29  C   UNL     1     -39.573  59.245 -52.119  1.00  0.00     0.065 A 
HETATM   30  C   UNL     1     -39.858  59.480 -50.781  1.00  0.00     0.037 A 
HETATM   31  C   UNL     1     -41.184  59.627 -50.371  1.00  0.00     0.010 A 
BRANCH  29  32
HETATM   32  O   UNL     1     -38.264  59.128 -52.477  1.00  0.00    -0.361 OA
HETATM   33  H   UNL     1     -38.165  59.410 -53.402  1.00  0.00     0.217 HD
ENDBRANCH  29  32
ENDBRANCH  25  26
ENDBRANCH  23  25
ENDBRANCH   1  23
TORSDOF 9
ENDMDL
MODEL 8
REMARK VINA RESULT:      -7.6      2.660      7.477
REMARK  9 active torsions:
REMARK  status: ('A' for Active; 'I' for Inactive)
REMARK    1  A    between atoms: C_2  and  N_3 
REMARK    2  A    between atoms: C_2  and  C_23 
REMARK       I    between atoms: N_3  and  C_4 
REMARK       I    between atoms: C_4  and  N_5 
REMARK    3  A    between atoms: N_5  and  C_6 
REMARK    4  A    between atoms: C_6  and  C_7 
REMARK    5  A    between atoms: C_7  and  N_8 
REMARK    6  A    between atoms: C_7  and  C_14 
REMARK    7  A    between atoms: C_16  and  O_17 
REMARK    8  A    between atoms: C_23  and  C_24 
REMARK    9  A    between atoms: C_27  and  O_28 
ROOT
HETATM    1  N   UNL     1     -42.731  59.839 -54.886  1.00  0.00    -0.339 N 
HETATM    2  C   UNL     1     -41.733  59.057 -54.427  1.00  0.00     0.316 C 
HETATM    3  N   UNL     1     -41.866  57.714 -54.584  1.00  0.00    -0.341 N 
HETATM    4  O   UNL     1     -40.734  59.558 -53.924  1.00  0.00    -0.248 OA
HETATM    5  H   UNL     1     -42.566  60.818 -54.680  1.00  0.00     0.164 HD
HETATM    6  H   UNL     1     -42.793  57.378 -54.808  1.00  0.00     0.164 HD
ENDROOT
BRANCH   3   7
HETATM    7  C   UNL     1     -40.999  56.791 -53.853  1.00  0.00     0.162 C 
BRANCH   7   8
HETATM    8  C   UNL     1     -41.749  55.757 -52.959  1.00  0.00     0.238 C 
BRANCH   8   9
HETATM    9  N   UNL     1     -41.874  56.248 -51.515  1.00  0.00    -0.061 N 
HETATM   10  H   UNL     1     -41.616  55.441 -50.930  1.00  0.00     0.280 HD
HETATM   11  C   UNL     1     -43.251  56.743 -51.121  1.00  0.00     0.236 C 
HETATM   12  C   UNL     1     -43.145  58.246 -51.254  1.00  0.00     0.029 C 
HETATM   13  C   UNL     1     -41.780  58.527 -50.668  1.00  0.00     0.029 C 
HETATM   14  C   UNL     1     -40.909  57.378 -51.156  1.00  0.00     0.236 C 
ENDBRANCH   8   9
BRANCH   8  15
HETATM   15  C   UNL     1     -41.075  54.397 -53.093  1.00  0.00    -0.023 A 
HETATM   16  C   UNL     1     -40.783  53.656 -51.928  1.00  0.00     0.046 A 
HETATM   17  C   UNL     1     -40.171  52.404 -52.013  1.00  0.00     0.068 A 
HETATM   18  C   UNL     1     -39.846  51.886 -53.266  1.00  0.00     0.037 A 
HETATM   19  C   UNL     1     -40.132  52.602 -54.429  1.00  0.00     0.003 A 
HETATM   20  C   UNL     1     -40.745  53.850 -54.345  1.00  0.00     0.009 A 
BRANCH  17  21
HETATM   21  O   UNL     1     -39.838  51.597 -50.963  1.00  0.00    -0.356 OA
HETATM   22  C   UNL     1     -39.518  50.240 -51.244  1.00  0.00     0.210 C 
ENDBRANCH  17  21
ENDBRANCH   8  15
ENDBRANCH   7   8
ENDBRANCH   3   7
BRANCH   1  23
HETATM   23  C   UNL     1     -44.040  59.501 -55.456  1.00  0.00     0.086 C 
HETATM   24  C   UNL     1     -45.156  60.176 -54.653  1.00  0.00     0.032 C 
BRANCH  23  25
HETATM   25  C   UNL     1     -44.145  59.944 -56.932  1.00  0.00     0.063 C 
BRANCH  25  26
HETATM   26  C   UNL     1     -43.448  59.019 -57.904  1.00  0.00    -0.056 A 
HETATM   27  C   UNL     1     -42.661  59.542 -58.942  1.00  0.00     0.010 A 
HETATM   28  C   UNL     1     -41.987  58.688 -59.819  1.00  0.00     0.037 A 
HETATM   29  C   UNL     1     -42.109  57.312 -59.664  1.00  0.00     0.065 A 
HETATM   30  C   UNL     1     -42.893  56.777 -58.650  1.00  0.00     0.037 A 
HETATM   31  C   UNL     1     -43.558  57.628 -57.767  1.00  0.00     0.010 A 
BRANCH  29  32
HETATM   32  O   UNL     1     -41.462  56.442 -60.489  1.00  0.00    -0.361 OA
HETATM   33  H   UNL     1     -42.107  55.808 -60.844  1.00  0.00     0.217 HD
ENDBRANCH  29  32
ENDBRANCH  25  26
ENDBRANCH  23  25
ENDBRANCH   1  23
TORSDOF 9
ENDMDL
MODEL 9
REMARK VINA RESULT:      -7.5      2.389      5.046
REMARK  9 active torsions:
REMARK  status: ('A' for Active; 'I' for Inactive)
REMARK    1  A    between atoms: C_2  and  N_3 
REMARK    2  A    between atoms: C_2  and  C_23 
REMARK       I    between atoms: N_3  and  C_4 
REMARK       I    between atoms: C_4  and  N_5 
REMARK    3  A    between atoms: N_5  and  C_6 
REMARK    4  A    between atoms: C_6  and  C_7 
REMARK    5  A    between atoms: C_7  and  N_8 
REMARK    6  A    between atoms: C_7  and  C_14 
REMARK    7  A    between atoms: C_16  and  O_17 
REMARK    8  A    between atoms: C_23  and  C_24 
REMARK    9  A    between atoms: C_27  and  O_28 
ROOT
HETATM    1  N   UNL     1     -42.510  54.071 -53.078  1.00  0.00    -0.339 N 
HETATM    2  C   UNL     1     -42.920  54.707 -54.194  1.00  0.00     0.316 C 
HETATM    3  N   UNL     1     -42.737  56.052 -54.251  1.00  0.00    -0.341 N 
HETATM    4  O   UNL     1     -43.404  54.076 -55.126  1.00  0.00    -0.248 OA
HETATM    5  H   UNL     1     -42.734  53.082 -53.107  1.00  0.00     0.164 HD
HETATM    6  H   UNL     1     -42.534  56.515 -53.376  1.00  0.00     0.164 HD
ENDROOT
BRANCH   3   7
HETATM    7  C   UNL     1     -43.420  56.853 -55.267  1.00  0.00     0.162 C 
BRANCH   7   8
HETATM    8  C   UNL     1     -42.492  57.790 -56.096  1.00  0.00     0.238 C 
BRANCH   8   9
HETATM    9  N   UNL     1     -42.789  59.266 -55.818  1.00  0.00    -0.061 N 
HETATM   10  H   UNL     1     -42.610  59.752 -56.707  1.00  0.00     0.280 HD
HETATM   11  C   UNL     1     -41.957  59.894 -54.718  1.00  0.00     0.236 C 
HETATM   12  C   UNL     1     -42.863  59.844 -53.508  1.00  0.00     0.029 C 
HETATM   13  C   UNL     1     -44.201  60.235 -54.090  1.00  0.00     0.029 C 
HETATM   14  C   UNL     1     -44.245  59.548 -55.447  1.00  0.00     0.236 C 
ENDBRANCH   8   9
BRANCH   8  15
HETATM   15  C   UNL     1     -42.581  57.409 -57.569  1.00  0.00    -0.023 A 
HETATM   16  C   UNL     1     -43.289  56.245 -57.937  1.00  0.00     0.046 A 
HETATM   17  C   UNL     1     -43.396  55.868 -59.277  1.00  0.00     0.068 A 
HETATM   18  C   UNL     1     -42.794  56.656 -60.258  1.00  0.00     0.037 A 
HETATM   19  C   UNL     1     -42.095  57.812 -59.913  1.00  0.00     0.003 A 
HETATM   20  C   UNL     1     -41.990  58.190 -58.576  1.00  0.00     0.009 A 
BRANCH  17  21
HETATM   21  O   UNL     1     -44.049  54.768 -59.755  1.00  0.00    -0.356 OA
HETATM   22  C   UNL     1     -44.876  54.934 -60.901  1.00  0.00     0.210 C 
ENDBRANCH  17  21
ENDBRANCH   8  15
ENDBRANCH   7   8
ENDBRANCH   3   7
BRANCH   1  23
HETATM   23  C   UNL     1     -41.972  54.585 -51.814  1.00  0.00     0.086 C 
HETATM   24  C   UNL     1     -42.785  54.042 -50.635  1.00  0.00     0.032 C 
BRANCH  23  25
HETATM   25  C   UNL     1     -40.490  54.190 -51.628  1.00  0.00     0.063 C 
BRANCH  25  26
HETATM   26  C   UNL     1     -40.199  52.736 -51.924  1.00  0.00    -0.056 A 
HETATM   27  C   UNL     1     -40.108  52.286 -53.250  1.00  0.00     0.010 A 
HETATM   28  C   UNL     1     -39.802  50.951 -53.527  1.00  0.00     0.037 A 
HETATM   29  C   UNL     1     -39.599  50.064 -52.476  1.00  0.00     0.065 A 
HETATM   30  C   UNL     1     -39.698  50.488 -51.158  1.00  0.00     0.037 A 
HETATM   31  C   UNL     1     -39.992  51.824 -50.880  1.00  0.00     0.010 A 
BRANCH  29  32
HETATM   32  O   UNL     1     -39.290  48.755 -52.698  1.00  0.00    -0.361 OA
HETATM   33  H   UNL     1     -40.014  48.343 -53.199  1.00  0.00     0.217 HD
ENDBRANCH  29  32
ENDBRANCH  25  26
ENDBRANCH  23  25
ENDBRANCH   1  23
TORSDOF 9
ENDMDL
MODEL 10
REMARK VINA RESULT:      -7.5      3.014      5.842
REMARK  9 active torsions:
REMARK  status: ('A' for Active; 'I' for Inactive)
REMARK    1  A    between atoms: C_2  and  N_3 
REMARK    2  A    between atoms: C_2  and  C_23 
REMARK       I    between atoms: N_3  and  C_4 
REMARK       I    between atoms: C_4  and  N_5 
REMARK    3  A    between atoms: N_5  and  C_6 
REMARK    4  A    between atoms: C_6  and  C_7 
REMARK    5  A    between atoms: C_7  and  N_8 
REMARK    6  A    between atoms: C_7  and  C_14 
REMARK    7  A    between atoms: C_16  and  O_17 
REMARK    8  A    between atoms: C_23  and  C_24 
REMARK    9  A    between atoms: C_27  and  O_28 
ROOT
HETATM    1  N   UNL     1     -42.973  55.741 -53.475  1.00  0.00    -0.339 N 
HETATM    2  C   UNL     1     -43.812  56.478 -54.231  1.00  0.00     0.316 C 
HETATM    3  N   UNL     1     -43.497  56.636 -55.544  1.00  0.00    -0.341 N 
HETATM    4  O   UNL     1     -44.835  56.947 -53.746  1.00  0.00    -0.248 OA
HETATM    5  H   UNL     1     -43.263  55.722 -52.503  1.00  0.00     0.164 HD
HETATM    6  H   UNL     1     -42.550  56.404 -55.809  1.00  0.00     0.164 HD
ENDROOT
BRANCH   3   7
HETATM    7  C   UNL     1     -44.167  57.656 -56.351  1.00  0.00     0.162 C 
BRANCH   7   8
HETATM    8  C   UNL     1     -43.572  57.857 -57.777  1.00  0.00     0.238 C 
BRANCH   8   9
HETATM    9  N   UNL     1     -43.638  59.323 -58.213  1.00  0.00    -0.061 N 
HETATM   10  H   UNL     1     -44.580  59.447 -58.610  1.00  0.00     0.280 HD
HETATM   11  C   UNL     1     -42.597  59.739 -59.233  1.00  0.00     0.236 C 
HETATM   12  C   UNL     1     -41.520  60.398 -58.400  1.00  0.00     0.029 C 
HETATM   13  C   UNL     1     -42.326  61.209 -57.413  1.00  0.00     0.029 C 
HETATM   14  C   UNL     1     -43.511  60.320 -57.061  1.00  0.00     0.236 C 
ENDBRANCH   8   9
BRANCH   8  15
HETATM   15  C   UNL     1     -44.251  56.894 -58.744  1.00  0.00    -0.023 A 
HETATM   16  C   UNL     1     -45.592  57.125 -59.117  1.00  0.00     0.046 A 
HETATM   17  C   UNL     1     -46.244  56.267 -60.005  1.00  0.00     0.068 A 
HETATM   18  C   UNL     1     -45.556  55.171 -60.524  1.00  0.00     0.037 A 
HETATM   19  C   UNL     1     -44.229  54.930 -60.170  1.00  0.00     0.003 A 
HETATM   20  C   UNL     1     -43.577  55.787 -59.287  1.00  0.00     0.009 A 
BRANCH  17  21
HETATM   21  O   UNL     1     -47.534  56.384 -60.437  1.00  0.00    -0.356 OA
HETATM   22  C   UNL     1     -47.751  56.568 -61.831  1.00  0.00     0.210 C 
ENDBRANCH  17  21
ENDBRANCH   8  15
ENDBRANCH   7   8
ENDBRANCH   3   7
BRANCH   1  23
HETATM   23  C   UNL     1     -41.673  55.136 -53.783  1.00  0.00     0.086 C 
HETATM   24  C   UNL     1     -40.682  56.213 -54.234  1.00  0.00     0.032 C 
BRANCH  23  25
HETATM   25  C   UNL     1     -41.090  54.397 -52.558  1.00  0.00     0.063 C 
BRANCH  25  26
HETATM   26  C   UNL     1     -40.583  53.006 -52.862  1.00  0.00    -0.056 A 
HETATM   27  C   UNL     1     -39.952  52.246 -51.864  1.00  0.00     0.010 A 
HETATM   28  C   UNL     1     -39.516  50.946 -52.133  1.00  0.00     0.037 A 
HETATM   29  C   UNL     1     -39.700  50.411 -53.402  1.00  0.00     0.065 A 
HETATM   30  C   UNL     1     -40.310  51.152 -54.405  1.00  0.00     0.037 A 
HETATM   31  C   UNL     1     -40.757  52.446 -54.135  1.00  0.00     0.010 A 
BRANCH  29  32
HETATM   32  O   UNL     1     -39.299  49.144 -53.706  1.00  0.00    -0.361 OA
HETATM   33  H   UNL     1     -38.736  48.812 -52.986  1.00  0.00     0.217 HD
ENDBRANCH  29  32
ENDBRANCH  25  26
ENDBRANCH  23  25
ENDBRANCH   1  23
TORSDOF 9
ENDMDL
