MODEL 1
REMARK VINA RESULT:      -9.0      0.000      0.000
REMARK  8 active torsions:
REMARK  status: ('A' for Active; 'I' for Inactive)
REMARK    1  A    between atoms: C_6  and  S_7 
REMARK    2  A    between atoms: S_7  and  C_8 
REMARK    3  A    between atoms: C_8  and  C_9 
REMARK       I    between atoms: C_9  and  N_10 
REMARK    4  A    between atoms: N_10  and  C_11 
REMARK    5  A    between atoms: C_24  and  C_25 
REMARK    6  A    between atoms: C_25  and  C_26 
REMARK       I    between atoms: C_26  and  N_27 
REMARK    7  A    between atoms: N_27  and  C_28 
REMARK    8  A    between atoms: C_28  and  C_29 
ROOT
HETATM    1  C   UNL     1     -38.817  59.182 -51.795  1.00  0.00     0.001 A 
HETATM    2  C   UNL     1     -39.675  58.738 -52.801  1.00  0.00     0.018 A 
HETATM    3  C   UNL     1     -41.041  58.625 -52.532  1.00  0.00     0.039 A 
HETATM    4  C   UNL     1     -41.566  58.938 -51.272  1.00  0.00     0.073 A 
HETATM    5  N   UNL     1     -42.941  58.858 -50.984  1.00  0.00    -0.223 NA
HETATM    6  C   UNL     1     -43.739  58.515 -51.945  1.00  0.00     0.178 A 
HETATM    7  N   UNL     1     -43.311  58.186 -53.222  1.00  0.00    -0.241 N 
HETATM    8  C   UNL     1     -41.999  58.225 -53.568  1.00  0.00     0.147 A 
HETATM    9  N   UNL     1     -41.686  57.917 -54.795  1.00  0.00    -0.256 NA
HETATM   10  C   UNL     1     -44.015  57.762 -54.324  1.00  0.00     0.257 C 
HETATM   11  O   UNL     1     -45.194  57.467 -54.423  1.00  0.00    -0.270 OA
HETATM   12  C   UNL     1     -43.003  57.692 -55.453  1.00  0.00     0.211 C 
HETATM   13  C   UNL     1     -40.694  59.380 -50.276  1.00  0.00     0.032 A 
HETATM   14  C   UNL     1     -39.327  59.506 -50.535  1.00  0.00     0.002 A 
ENDROOT
BRANCH  12  15
HETATM   15  C   UNL     1     -43.126  56.399 -56.239  1.00  0.00     0.140 C 
BRANCH  15  16
HETATM   16  C   UNL     1     -42.609  55.133 -55.599  1.00  0.00     0.220 C 
HETATM   17  N   UNL     1     -41.249  55.118 -55.399  1.00  0.00    -0.357 N 
HETATM   18  H   UNL     1     -40.837  55.999 -55.114  1.00  0.00     0.162 HD
HETATM   19  O   UNL     1     -43.339  54.171 -55.384  1.00  0.00    -0.274 OA
BRANCH  17  20
HETATM   20  C   UNL     1     -40.589  53.904 -54.977  1.00  0.00     0.161 C 
BRANCH  20  21
HETATM   21  C   UNL     1     -40.532  53.748 -53.473  1.00  0.00    -0.038 A 
HETATM   22  C   UNL     1     -40.963  54.816 -52.665  1.00  0.00     0.048 A 
HETATM   23  C   UNL     1     -40.942  54.653 -51.294  1.00  0.00     0.105 A 
HETATM   24  C   UNL     1     -40.520  53.486 -50.709  1.00  0.00     0.105 A 
HETATM   25  O   UNL     1     -41.324  55.584 -50.379  1.00  0.00    -0.323 OA
HETATM   26  O   UNL     1     -40.574  53.534 -49.352  1.00  0.00    -0.323 OA
HETATM   27  C   UNL     1     -40.109  52.408 -51.460  1.00  0.00     0.040 A 
HETATM   28  C   UNL     1     -41.092  54.865 -49.149  1.00  0.00     0.352 A 
HETATM   29  C   UNL     1     -40.129  52.539 -52.854  1.00  0.00     0.012 A 
ENDBRANCH  20  21
ENDBRANCH  17  20
ENDBRANCH  15  16
ENDBRANCH  12  15
BRANCH   6  30
HETATM   30  S   UNL     1     -45.443  58.515 -51.587  1.00  0.00    -0.082 SA
BRANCH  30  31
HETATM   31  C   UNL     1     -45.833  60.202 -52.134  1.00  0.00     0.185 C 
BRANCH  31  32
HETATM   32  C   UNL     1     -46.070  61.109 -50.938  1.00  0.00     0.232 C 
HETATM   33  N   UNL     1     -45.254  60.803 -49.858  1.00  0.00    -0.324 N 
HETATM   34  H   UNL     1     -44.414  60.278 -50.084  1.00  0.00     0.169 HD
HETATM   35  O   UNL     1     -46.913  61.998 -50.986  1.00  0.00    -0.272 OA
BRANCH  33  36
HETATM   36  C   UNL     1     -45.300  61.398 -48.577  1.00  0.00     0.073 A 
HETATM   37  C   UNL     1     -45.746  60.763 -47.412  1.00  0.00     0.143 A 
HETATM   38  F   UNL     1     -46.079  59.465 -47.398  1.00  0.00    -0.204 F 
HETATM   39  C   UNL     1     -45.774  61.437 -46.190  1.00  0.00     0.044 A 
HETATM   40  C   UNL     1     -45.336  62.755 -46.110  1.00  0.00     0.003 A 
HETATM   41  C   UNL     1     -44.852  63.391 -47.251  1.00  0.00     0.002 A 
HETATM   42  C   UNL     1     -44.827  62.714 -48.476  1.00  0.00     0.033 A 
ENDBRANCH  33  36
ENDBRANCH  31  32
ENDBRANCH  30  31
ENDBRANCH   6  30
TORSDOF 8
ENDMDL
MODEL 2
REMARK VINA RESULT:      -9.0      3.701      8.159
REMARK  8 active torsions:
REMARK  status: ('A' for Active; 'I' for Inactive)
REMARK    1  A    between atoms: C_6  and  S_7 
REMARK    2  A    between atoms: S_7  and  C_8 
REMARK    3  A    between atoms: C_8  and  C_9 
REMARK       I    between atoms: C_9  and  N_10 
REMARK    4  A    between atoms: N_10  and  C_11 
REMARK    5  A    between atoms: C_24  and  C_25 
REMARK    6  A    between atoms: C_25  and  C_26 
REMARK       I    between atoms: C_26  and  N_27 
REMARK    7  A    between atoms: N_27  and  C_28 
REMARK    8  A    between atoms: C_28  and  C_29 
ROOT
HETATM    1  C   UNL     1     -45.079  56.115 -60.724  1.00  0.00     0.001 A 
HETATM    2  C   UNL     1     -44.645  57.198 -59.959  1.00  0.00     0.018 A 
HETATM    3  C   UNL     1     -43.907  56.959 -58.797  1.00  0.00     0.039 A 
HETATM    4  C   UNL     1     -43.603  55.658 -58.379  1.00  0.00     0.073 A 
HETATM    5  N   UNL     1     -42.838  55.391 -57.228  1.00  0.00    -0.223 NA
HETATM    6  C   UNL     1     -42.378  56.404 -56.563  1.00  0.00     0.178 A 
HETATM    7  N   UNL     1     -42.628  57.725 -56.900  1.00  0.00    -0.241 N 
HETATM    8  C   UNL     1     -43.369  58.058 -57.987  1.00  0.00     0.147 A 
HETATM    9  N   UNL     1     -43.541  59.324 -58.241  1.00  0.00    -0.256 NA
HETATM   10  C   UNL     1     -42.257  58.896 -56.281  1.00  0.00     0.257 C 
HETATM   11  O   UNL     1     -41.696  59.062 -55.211  1.00  0.00    -0.270 OA
HETATM   12  C   UNL     1     -42.723  60.009 -57.202  1.00  0.00     0.211 C 
HETATM   13  C   UNL     1     -44.045  54.585 -59.155  1.00  0.00     0.032 A 
HETATM   14  C   UNL     1     -44.776  54.811 -60.324  1.00  0.00     0.002 A 
ENDROOT
BRANCH  12  15
HETATM   15  C   UNL     1     -43.432  61.112 -56.436  1.00  0.00     0.140 C 
BRANCH  15  16
HETATM   16  C   UNL     1     -44.504  60.709 -55.452  1.00  0.00     0.220 C 
HETATM   17  N   UNL     1     -44.086  60.684 -54.142  1.00  0.00    -0.357 N 
HETATM   18  H   UNL     1     -43.443  61.420 -53.872  1.00  0.00     0.162 HD
HETATM   19  O   UNL     1     -45.613  60.334 -55.819  1.00  0.00    -0.274 OA
BRANCH  17  20
HETATM   20  C   UNL     1     -44.940  60.133 -53.115  1.00  0.00     0.161 C 
BRANCH  20  21
HETATM   21  C   UNL     1     -44.295  59.001 -52.347  1.00  0.00    -0.038 A 
HETATM   22  C   UNL     1     -42.898  59.006 -52.181  1.00  0.00     0.048 A 
HETATM   23  C   UNL     1     -42.320  57.988 -51.448  1.00  0.00     0.105 A 
HETATM   24  C   UNL     1     -43.069  56.988 -50.879  1.00  0.00     0.105 A 
HETATM   25  O   UNL     1     -40.990  57.849 -51.196  1.00  0.00    -0.323 OA
HETATM   26  O   UNL     1     -42.308  56.086 -50.205  1.00  0.00    -0.323 OA
HETATM   27  C   UNL     1     -44.440  56.954 -50.999  1.00  0.00     0.040 A 
HETATM   28  C   UNL     1     -40.991  56.642 -50.403  1.00  0.00     0.352 A 
HETATM   29  C   UNL     1     -45.055  57.979 -51.728  1.00  0.00     0.012 A 
ENDBRANCH  20  21
ENDBRANCH  17  20
ENDBRANCH  15  16
ENDBRANCH  12  15
BRANCH   6  30
HETATM   30  S   UNL     1     -41.357  56.047 -55.199  1.00  0.00    -0.082 SA
BRANCH  30  31
HETATM   31  C   UNL     1     -42.649  55.575 -54.012  1.00  0.00     0.185 C 
BRANCH  31  32
HETATM   32  C   UNL     1     -42.287  54.268 -53.325  1.00  0.00     0.232 C 
HETATM   33  N   UNL     1     -41.094  53.728 -53.782  1.00  0.00    -0.324 N 
HETATM   34  H   UNL     1     -40.467  54.386 -54.238  1.00  0.00     0.169 HD
HETATM   35  O   UNL     1     -43.021  53.793 -52.465  1.00  0.00    -0.272 OA
BRANCH  33  36
HETATM   36  C   UNL     1     -40.540  52.483 -53.410  1.00  0.00     0.073 A 
HETATM   37  C   UNL     1     -39.971  52.198 -52.162  1.00  0.00     0.143 A 
HETATM   38  F   UNL     1     -40.002  53.080 -51.154  1.00  0.00    -0.204 F 
HETATM   39  C   UNL     1     -39.429  50.942 -51.888  1.00  0.00     0.044 A 
HETATM   40  C   UNL     1     -39.464  49.941 -52.853  1.00  0.00     0.003 A 
HETATM   41  C   UNL     1     -40.060  50.194 -54.087  1.00  0.00     0.002 A 
HETATM   42  C   UNL     1     -40.602  51.455 -54.361  1.00  0.00     0.033 A 
ENDBRANCH  33  36
ENDBRANCH  31  32
ENDBRANCH  30  31
ENDBRANCH   6  30
TORSDOF 8
ENDMDL
MODEL 3
REMARK VINA RESULT:      -8.9      5.253      9.548
REMARK  8 active torsions:
REMARK  status: ('A' for Active; 'I' for Inactive)
REMARK    1  A    between atoms: C_6  and  S_7 
REMARK    2  A    between atoms: S_7  and  C_8 
REMARK    3  A    between atoms: C_8  and  C_9 
REMARK       I    between atoms: C_9  and  N_10 
REMARK    4  A    between atoms: N_10  and  C_11 
REMARK    5  A    between atoms: C_24  and  C_25 
REMARK    6  A    between atoms: C_25  and  C_26 
REMARK       I    between atoms: C_26  and  N_27 
REMARK    7  A    between atoms: N_27  and  C_28 
REMARK    8  A    between atoms: C_28  and  C_29 
ROOT
HETATM    1  C   UNL     1     -44.263  55.621 -60.808  1.00  0.00     0.001 A 
HETATM    2  C   UNL     1     -43.790  56.843 -60.329  1.00  0.00     0.018 A 
HETATM    3  C   UNL     1     -43.412  56.950 -58.988  1.00  0.00     0.039 A 
HETATM    4  C   UNL     1     -43.510  55.861 -58.113  1.00  0.00     0.073 A 
HETATM    5  N   UNL     1     -43.111  55.935 -56.765  1.00  0.00    -0.223 NA
HETATM    6  C   UNL     1     -42.605  57.052 -56.348  1.00  0.00     0.178 A 
HETATM    7  N   UNL     1     -42.471  58.182 -57.140  1.00  0.00    -0.241 N 
HETATM    8  C   UNL     1     -42.848  58.189 -58.444  1.00  0.00     0.147 A 
HETATM    9  N   UNL     1     -42.671  59.288 -59.121  1.00  0.00    -0.256 NA
HETATM   10  C   UNL     1     -42.004  59.440 -56.840  1.00  0.00     0.257 C 
HETATM   11  O   UNL     1     -41.684  59.910 -55.761  1.00  0.00    -0.270 OA
HETATM   12  C   UNL     1     -41.986  60.193 -58.157  1.00  0.00     0.211 C 
HETATM   13  C   UNL     1     -43.986  54.646 -58.607  1.00  0.00     0.032 A 
HETATM   14  C   UNL     1     -44.358  54.524 -59.949  1.00  0.00     0.002 A 
ENDROOT
BRANCH  12  15
HETATM   15  C   UNL     1     -42.590  61.579 -58.021  1.00  0.00     0.140 C 
BRANCH  15  16
HETATM   16  C   UNL     1     -44.010  61.778 -58.498  1.00  0.00     0.220 C 
HETATM   17  N   UNL     1     -44.956  61.143 -57.729  1.00  0.00    -0.357 N 
HETATM   18  H   UNL     1     -44.785  61.144 -56.730  1.00  0.00     0.162 HD
HETATM   19  O   UNL     1     -44.265  62.367 -59.543  1.00  0.00    -0.274 OA
BRANCH  17  20
HETATM   20  C   UNL     1     -46.331  61.082 -58.171  1.00  0.00     0.161 C 
BRANCH  20  21
HETATM   21  C   UNL     1     -46.716  59.733 -58.736  1.00  0.00    -0.038 A 
HETATM   22  C   UNL     1     -47.090  59.648 -60.089  1.00  0.00     0.048 A 
HETATM   23  C   UNL     1     -47.406  58.407 -60.608  1.00  0.00     0.105 A 
HETATM   24  C   UNL     1     -47.359  57.268 -59.842  1.00  0.00     0.105 A 
HETATM   25  O   UNL     1     -47.784  58.156 -61.890  1.00  0.00    -0.323 OA
HETATM   26  O   UNL     1     -47.709  56.157 -60.541  1.00  0.00    -0.323 OA
HETATM   27  C   UNL     1     -46.980  57.302 -58.519  1.00  0.00     0.040 A 
HETATM   28  C   UNL     1     -47.971  56.726 -61.841  1.00  0.00     0.352 A 
HETATM   29  C   UNL     1     -46.643  58.544 -57.969  1.00  0.00     0.012 A 
ENDBRANCH  20  21
ENDBRANCH  17  20
ENDBRANCH  15  16
ENDBRANCH  12  15
BRANCH   6  30
HETATM   30  S   UNL     1     -42.033  57.087 -54.703  1.00  0.00    -0.082 SA
BRANCH  30  31
HETATM   31  C   UNL     1     -43.396  56.173 -53.925  1.00  0.00     0.185 C 
BRANCH  31  32
HETATM   32  C   UNL     1     -42.883  54.884 -53.302  1.00  0.00     0.232 C 
HETATM   33  N   UNL     1     -41.594  54.566 -53.701  1.00  0.00    -0.324 N 
HETATM   34  H   UNL     1     -41.047  55.343 -54.061  1.00  0.00     0.169 HD
HETATM   35  O   UNL     1     -43.590  54.238 -52.535  1.00  0.00    -0.272 OA
BRANCH  33  36
HETATM   36  C   UNL     1     -40.880  53.392 -53.372  1.00  0.00     0.073 A 
HETATM   37  C   UNL     1     -40.232  53.162 -52.151  1.00  0.00     0.143 A 
HETATM   38  F   UNL     1     -40.328  54.020 -51.127  1.00  0.00    -0.204 F 
HETATM   39  C   UNL     1     -39.532  51.976 -51.921  1.00  0.00     0.044 A 
HETATM   40  C   UNL     1     -39.485  50.991 -52.902  1.00  0.00     0.003 A 
HETATM   41  C   UNL     1     -40.156  51.186 -54.107  1.00  0.00     0.002 A 
HETATM   42  C   UNL     1     -40.855  52.376 -54.338  1.00  0.00     0.033 A 
ENDBRANCH  33  36
ENDBRANCH  31  32
ENDBRANCH  30  31
ENDBRANCH   6  30
TORSDOF 8
ENDMDL
MODEL 4
REMARK VINA RESULT:      -8.7      4.447      9.267
REMARK  8 active torsions:
REMARK  status: ('A' for Active; 'I' for Inactive)
REMARK    1  A    between atoms: C_6  and  S_7 
REMARK    2  A    between atoms: S_7  and  C_8 
REMARK    3  A    between atoms: C_8  and  C_9 
REMARK       I    between atoms: C_9  and  N_10 
REMARK    4  A    between atoms: N_10  and  C_11 
REMARK    5  A    between atoms: C_24  and  C_25 
REMARK    6  A    between atoms: C_25  and  C_26 
REMARK       I    between atoms: C_26  and  N_27 
REMARK    7  A    between atoms: N_27  and  C_28 
REMARK    8  A    between atoms: C_28  and  C_29 
ROOT
HETATM    1  C   UNL     1     -42.482  57.244 -59.843  1.00  0.00     0.001 A 
HETATM    2  C   UNL     1     -42.402  58.161 -58.795  1.00  0.00     0.018 A 
HETATM    3  C   UNL     1     -42.702  57.742 -57.497  1.00  0.00     0.039 A 
HETATM    4  C   UNL     1     -43.091  56.423 -57.227  1.00  0.00     0.073 A 
HETATM    5  N   UNL     1     -43.372  55.969 -55.925  1.00  0.00    -0.223 NA
HETATM    6  C   UNL     1     -43.225  56.809 -54.949  1.00  0.00     0.178 A 
HETATM    7  N   UNL     1     -42.847  58.131 -55.120  1.00  0.00    -0.241 N 
HETATM    8  C   UNL     1     -42.575  58.643 -56.347  1.00  0.00     0.147 A 
HETATM    9  N   UNL     1     -42.209  59.892 -56.416  1.00  0.00    -0.256 NA
HETATM   10  C   UNL     1     -42.694  59.148 -54.207  1.00  0.00     0.257 C 
HETATM   11  O   UNL     1     -42.957  59.165 -53.016  1.00  0.00    -0.270 OA
HETATM   12  C   UNL     1     -42.138  60.321 -54.992  1.00  0.00     0.211 C 
HETATM   13  C   UNL     1     -43.166  55.518 -58.286  1.00  0.00     0.032 A 
HETATM   14  C   UNL     1     -42.860  55.923 -59.588  1.00  0.00     0.002 A 
ENDROOT
BRANCH  12  15
HETATM   15  C   UNL     1     -42.865  61.613 -54.663  1.00  0.00     0.140 C 
BRANCH  15  16
HETATM   16  C   UNL     1     -44.041  61.999 -55.528  1.00  0.00     0.220 C 
HETATM   17  N   UNL     1     -45.042  61.057 -55.570  1.00  0.00    -0.357 N 
HETATM   18  H   UNL     1     -45.229  60.575 -54.698  1.00  0.00     0.162 HD
HETATM   19  O   UNL     1     -44.036  63.017 -56.211  1.00  0.00    -0.274 OA
BRANCH  17  20
HETATM   20  C   UNL     1     -46.136  61.199 -56.503  1.00  0.00     0.161 C 
BRANCH  20  21
HETATM   21  C   UNL     1     -46.027  60.275 -57.696  1.00  0.00    -0.038 A 
HETATM   22  C   UNL     1     -46.583  58.986 -57.606  1.00  0.00     0.048 A 
HETATM   23  C   UNL     1     -46.511  58.160 -58.711  1.00  0.00     0.105 A 
HETATM   24  C   UNL     1     -45.920  58.566 -59.882  1.00  0.00     0.105 A 
HETATM   25  O   UNL     1     -46.998  56.893 -58.787  1.00  0.00    -0.323 OA
HETATM   26  O   UNL     1     -45.952  57.605 -60.842  1.00  0.00    -0.323 OA
HETATM   27  C   UNL     1     -45.381  59.825 -60.021  1.00  0.00     0.040 A 
HETATM   28  C   UNL     1     -46.643  56.548 -60.143  1.00  0.00     0.352 A 
HETATM   29  C   UNL     1     -45.449  60.688 -58.921  1.00  0.00     0.012 A 
ENDBRANCH  20  21
ENDBRANCH  17  20
ENDBRANCH  15  16
ENDBRANCH  12  15
BRANCH   6  30
HETATM   30  S   UNL     1     -43.489  56.195 -53.341  1.00  0.00    -0.082 SA
BRANCH  30  31
HETATM   31  C   UNL     1     -41.783  55.705 -52.957  1.00  0.00     0.185 C 
BRANCH  31  32
HETATM   32  C   UNL     1     -41.711  54.215 -52.662  1.00  0.00     0.232 C 
HETATM   33  N   UNL     1     -40.489  53.655 -53.005  1.00  0.00    -0.324 N 
HETATM   34  H   UNL     1     -39.717  54.312 -53.083  1.00  0.00     0.169 HD
HETATM   35  O   UNL     1     -42.671  53.629 -52.175  1.00  0.00    -0.272 OA
BRANCH  33  36
HETATM   36  C   UNL     1     -40.146  52.286 -52.941  1.00  0.00     0.073 A 
HETATM   37  C   UNL     1     -39.783  51.602 -51.774  1.00  0.00     0.143 A 
HETATM   38  F   UNL     1     -39.833  52.186 -50.569  1.00  0.00    -0.204 F 
HETATM   39  C   UNL     1     -39.441  50.250 -51.809  1.00  0.00     0.044 A 
HETATM   40  C   UNL     1     -39.477  49.551 -53.012  1.00  0.00     0.003 A 
HETATM   41  C   UNL     1     -39.873  50.205 -54.177  1.00  0.00     0.002 A 
HETATM   42  C   UNL     1     -40.213  51.562 -54.140  1.00  0.00     0.033 A 
ENDBRANCH  33  36
ENDBRANCH  31  32
ENDBRANCH  30  31
ENDBRANCH   6  30
TORSDOF 8
ENDMDL
MODEL 5
REMARK VINA RESULT:      -8.7      1.898      2.384
REMARK  8 active torsions:
REMARK  status: ('A' for Active; 'I' for Inactive)
REMARK    1  A    between atoms: C_6  and  S_7 
REMARK    2  A    between atoms: S_7  and  C_8 
REMARK    3  A    between atoms: C_8  and  C_9 
REMARK       I    between atoms: C_9  and  N_10 
REMARK    4  A    between atoms: N_10  and  C_11 
REMARK    5  A    between atoms: C_24  and  C_25 
REMARK    6  A    between atoms: C_25  and  C_26 
REMARK       I    between atoms: C_26  and  N_27 
REMARK    7  A    between atoms: N_27  and  C_28 
REMARK    8  A    between atoms: C_28  and  C_29 
ROOT
HETATM    1  C   UNL     1     -39.601  58.798 -51.362  1.00  0.00     0.001 A 
HETATM    2  C   UNL     1     -40.254  58.786 -52.594  1.00  0.00     0.018 A 
HETATM    3  C   UNL     1     -41.437  59.514 -52.746  1.00  0.00     0.039 A 
HETATM    4  C   UNL     1     -41.985  60.247 -51.686  1.00  0.00     0.073 A 
HETATM    5  N   UNL     1     -43.159  61.010 -51.820  1.00  0.00    -0.223 NA
HETATM    6  C   UNL     1     -43.720  61.052 -52.987  1.00  0.00     0.178 A 
HETATM    7  N   UNL     1     -43.251  60.359 -54.093  1.00  0.00    -0.241 N 
HETATM    8  C   UNL     1     -42.134  59.591 -54.034  1.00  0.00     0.147 A 
HETATM    9  N   UNL     1     -41.754  58.988 -55.125  1.00  0.00    -0.256 NA
HETATM   10  C   UNL     1     -43.751  60.261 -55.371  1.00  0.00     0.257 C 
HETATM   11  O   UNL     1     -44.801  60.683 -55.826  1.00  0.00    -0.270 OA
HETATM   12  C   UNL     1     -42.721  59.465 -56.151  1.00  0.00     0.211 C 
HETATM   13  C   UNL     1     -41.318  60.249 -50.459  1.00  0.00     0.032 A 
HETATM   14  C   UNL     1     -40.130  59.531 -50.298  1.00  0.00     0.002 A 
ENDROOT
BRANCH  12  15
HETATM   15  C   UNL     1     -43.370  58.379 -56.991  1.00  0.00     0.140 C 
BRANCH  15  16
HETATM   16  C   UNL     1     -43.273  56.955 -56.497  1.00  0.00     0.220 C 
HETATM   17  N   UNL     1     -43.933  56.724 -55.313  1.00  0.00    -0.357 N 
HETATM   18  H   UNL     1     -44.816  57.209 -55.199  1.00  0.00     0.162 HD
HETATM   19  O   UNL     1     -42.572  56.120 -57.060  1.00  0.00    -0.274 OA
BRANCH  17  20
HETATM   20  C   UNL     1     -43.768  55.465 -54.621  1.00  0.00     0.161 C 
BRANCH  20  21
HETATM   21  C   UNL     1     -43.183  55.619 -53.235  1.00  0.00    -0.038 A 
HETATM   22  C   UNL     1     -42.084  54.818 -52.872  1.00  0.00     0.048 A 
HETATM   23  C   UNL     1     -41.532  54.989 -51.618  1.00  0.00     0.105 A 
HETATM   24  C   UNL     1     -42.022  55.914 -50.730  1.00  0.00     0.105 A 
HETATM   25  O   UNL     1     -40.473  54.299 -51.117  1.00  0.00    -0.323 OA
HETATM   26  O   UNL     1     -41.341  55.919 -49.554  1.00  0.00    -0.323 OA
HETATM   27  C   UNL     1     -43.083  56.732 -51.049  1.00  0.00     0.040 A 
HETATM   28  C   UNL     1     -40.355  54.897 -49.809  1.00  0.00     0.352 A 
HETATM   29  C   UNL     1     -43.656  56.589 -52.318  1.00  0.00     0.012 A 
ENDBRANCH  20  21
ENDBRANCH  17  20
ENDBRANCH  15  16
ENDBRANCH  12  15
BRANCH   6  30
HETATM   30  S   UNL     1     -45.117  62.078 -53.149  1.00  0.00    -0.082 SA
BRANCH  30  31
HETATM   31  C   UNL     1     -46.389  60.883 -52.646  1.00  0.00     0.185 C 
BRANCH  31  32
HETATM   32  C   UNL     1     -46.359  60.676 -51.141  1.00  0.00     0.232 C 
HETATM   33  N   UNL     1     -46.235  61.864 -50.434  1.00  0.00    -0.324 N 
HETATM   34  H   UNL     1     -46.508  62.701 -50.942  1.00  0.00     0.169 HD
HETATM   35  O   UNL     1     -46.436  59.549 -50.664  1.00  0.00    -0.272 OA
BRANCH  33  36
HETATM   36  C   UNL     1     -46.085  61.996 -49.035  1.00  0.00     0.073 A 
HETATM   37  C   UNL     1     -45.005  61.502 -48.293  1.00  0.00     0.143 A 
HETATM   38  F   UNL     1     -43.942  60.937 -48.883  1.00  0.00    -0.204 F 
HETATM   39  C   UNL     1     -44.950  61.662 -46.908  1.00  0.00     0.044 A 
HETATM   40  C   UNL     1     -45.967  62.339 -46.243  1.00  0.00     0.003 A 
HETATM   41  C   UNL     1     -47.030  62.871 -46.969  1.00  0.00     0.002 A 
HETATM   42  C   UNL     1     -47.085  62.708 -48.357  1.00  0.00     0.033 A 
ENDBRANCH  33  36
ENDBRANCH  31  32
ENDBRANCH  30  31
ENDBRANCH   6  30
TORSDOF 8
ENDMDL
MODEL 6
REMARK VINA RESULT:      -8.7      3.800      7.583
REMARK  8 active torsions:
REMARK  status: ('A' for Active; 'I' for Inactive)
REMARK    1  A    between atoms: C_6  and  S_7 
REMARK    2  A    between atoms: S_7  and  C_8 
REMARK    3  A    between atoms: C_8  and  C_9 
REMARK       I    between atoms: C_9  and  N_10 
REMARK    4  A    between atoms: N_10  and  C_11 
REMARK    5  A    between atoms: C_24  and  C_25 
REMARK    6  A    between atoms: C_25  and  C_26 
REMARK       I    between atoms: C_26  and  N_27 
REMARK    7  A    between atoms: N_27  and  C_28 
REMARK    8  A    between atoms: C_28  and  C_29 
ROOT
HETATM    1  C   UNL     1     -43.724  54.007 -55.022  1.00  0.00     0.001 A 
HETATM    2  C   UNL     1     -43.663  55.130 -54.197  1.00  0.00     0.018 A 
HETATM    3  C   UNL     1     -43.227  56.345 -54.731  1.00  0.00     0.039 A 
HETATM    4  C   UNL     1     -42.840  56.457 -56.073  1.00  0.00     0.073 A 
HETATM    5  N   UNL     1     -42.423  57.674 -56.642  1.00  0.00    -0.223 NA
HETATM    6  C   UNL     1     -42.439  58.728 -55.887  1.00  0.00     0.178 A 
HETATM    7  N   UNL     1     -42.803  58.713 -54.550  1.00  0.00    -0.241 N 
HETATM    8  C   UNL     1     -43.202  57.574 -53.930  1.00  0.00     0.147 A 
HETATM    9  N   UNL     1     -43.544  57.653 -52.676  1.00  0.00    -0.256 NA
HETATM   10  C   UNL     1     -42.828  59.721 -53.614  1.00  0.00     0.257 C 
HETATM   11  O   UNL     1     -42.431  60.870 -53.703  1.00  0.00    -0.270 OA
HETATM   12  C   UNL     1     -43.442  59.106 -52.370  1.00  0.00     0.211 C 
HETATM   13  C   UNL     1     -42.907  55.324 -56.884  1.00  0.00     0.032 A 
HETATM   14  C   UNL     1     -43.350  54.104 -56.364  1.00  0.00     0.002 A 
ENDROOT
BRANCH  12  15
HETATM   15  C   UNL     1     -42.653  59.457 -51.121  1.00  0.00     0.140 C 
BRANCH  15  16
HETATM   16  C   UNL     1     -41.555  58.512 -50.694  1.00  0.00     0.220 C 
HETATM   17  N   UNL     1     -41.993  57.253 -50.360  1.00  0.00    -0.357 N 
HETATM   18  H   UNL     1     -42.745  56.883 -50.932  1.00  0.00     0.162 HD
HETATM   19  O   UNL     1     -40.394  58.887 -50.559  1.00  0.00    -0.274 OA
BRANCH  17  20
HETATM   20  C   UNL     1     -41.089  56.305 -49.751  1.00  0.00     0.161 C 
BRANCH  20  21
HETATM   21  C   UNL     1     -40.863  55.069 -50.594  1.00  0.00    -0.038 A 
HETATM   22  C   UNL     1     -40.776  55.210 -51.991  1.00  0.00     0.048 A 
HETATM   23  C   UNL     1     -40.533  54.084 -52.752  1.00  0.00     0.105 A 
HETATM   24  C   UNL     1     -40.374  52.845 -52.182  1.00  0.00     0.105 A 
HETATM   25  O   UNL     1     -40.421  54.050 -54.107  1.00  0.00    -0.323 OA
HETATM   26  O   UNL     1     -40.148  51.872 -53.104  1.00  0.00    -0.323 OA
HETATM   27  C   UNL     1     -40.431  52.663 -50.819  1.00  0.00     0.040 A 
HETATM   28  C   UNL     1     -40.172  52.645 -54.323  1.00  0.00     0.352 A 
HETATM   29  C   UNL     1     -40.665  53.790 -50.021  1.00  0.00     0.012 A 
ENDBRANCH  20  21
ENDBRANCH  17  20
ENDBRANCH  15  16
ENDBRANCH  12  15
BRANCH   6  30
HETATM   30  S   UNL     1     -42.009  60.237 -56.641  1.00  0.00    -0.082 SA
BRANCH  30  31
HETATM   31  C   UNL     1     -43.644  60.693 -57.286  1.00  0.00     0.185 C 
BRANCH  31  32
HETATM   32  C   UNL     1     -43.986  59.856 -58.507  1.00  0.00     0.232 C 
HETATM   33  N   UNL     1     -44.741  58.734 -58.200  1.00  0.00    -0.324 N 
HETATM   34  H   UNL     1     -45.238  58.775 -57.315  1.00  0.00     0.169 HD
HETATM   35  O   UNL     1     -43.601  60.193 -59.622  1.00  0.00    -0.272 OA
BRANCH  33  36
HETATM   36  C   UNL     1     -45.135  57.716 -59.098  1.00  0.00     0.073 A 
HETATM   37  C   UNL     1     -44.258  56.944 -59.870  1.00  0.00     0.143 A 
HETATM   38  F   UNL     1     -42.928  57.040 -59.739  1.00  0.00    -0.204 F 
HETATM   39  C   UNL     1     -44.739  55.971 -60.748  1.00  0.00     0.044 A 
HETATM   40  C   UNL     1     -46.107  55.739 -60.852  1.00  0.00     0.003 A 
HETATM   41  C   UNL     1     -46.992  56.471 -60.063  1.00  0.00     0.002 A 
HETATM   42  C   UNL     1     -46.508  57.448 -59.185  1.00  0.00     0.033 A 
ENDBRANCH  33  36
ENDBRANCH  31  32
ENDBRANCH  30  31
ENDBRANCH   6  30
TORSDOF 8
ENDMDL
MODEL 7
REMARK VINA RESULT:      -8.6      3.994      7.376
REMARK  8 active torsions:
REMARK  status: ('A' for Active; 'I' for Inactive)
REMARK    1  A    between atoms: C_6  and  S_7 
REMARK    2  A    between atoms: S_7  and  C_8 
REMARK    3  A    between atoms: C_8  and  C_9 
REMARK       I    between atoms: C_9  and  N_10 
REMARK    4  A    between atoms: N_10  and  C_11 
REMARK    5  A    between atoms: C_24  and  C_25 
REMARK    6  A    between atoms: C_25  and  C_26 
REMARK       I    between atoms: C_26  and  N_27 
REMARK    7  A    between atoms: N_27  and  C_28 
REMARK    8  A    between atoms: C_28  and  C_29 
ROOT
HETATM    1  C   UNL     1     -39.524  51.032 -52.893  1.00  0.00     0.001 A 
HETATM    2  C   UNL     1     -40.156  51.988 -53.687  1.00  0.00     0.018 A 
HETATM    3  C   UNL     1     -40.739  53.103 -53.078  1.00  0.00     0.039 A 
HETATM    4  C   UNL     1     -40.712  53.273 -51.688  1.00  0.00     0.073 A 
HETATM    5  N   UNL     1     -41.268  54.399 -51.053  1.00  0.00    -0.223 NA
HETATM    6  C   UNL     1     -41.788  55.319 -51.803  1.00  0.00     0.178 A 
HETATM    7  N   UNL     1     -41.862  55.236 -53.185  1.00  0.00    -0.241 N 
HETATM    8  C   UNL     1     -41.361  54.173 -53.865  1.00  0.00     0.147 A 
HETATM    9  N   UNL     1     -41.457  54.184 -55.164  1.00  0.00    -0.256 NA
HETATM   10  C   UNL     1     -42.416  56.090 -54.109  1.00  0.00     0.257 C 
HETATM   11  O   UNL     1     -43.081  57.097 -53.930  1.00  0.00    -0.270 OA
HETATM   12  C   UNL     1     -42.062  55.511 -55.465  1.00  0.00     0.211 C 
HETATM   13  C   UNL     1     -40.076  52.307 -50.908  1.00  0.00     0.032 A 
HETATM   14  C   UNL     1     -39.481  51.192 -51.506  1.00  0.00     0.002 A 
ENDROOT
BRANCH  12  15
HETATM   15  C   UNL     1     -43.261  55.485 -56.396  1.00  0.00     0.140 C 
BRANCH  15  16
HETATM   16  C   UNL     1     -43.036  55.852 -57.844  1.00  0.00     0.220 C 
HETATM   17  N   UNL     1     -42.401  57.058 -58.027  1.00  0.00    -0.357 N 
HETATM   18  H   UNL     1     -41.668  57.274 -57.361  1.00  0.00     0.162 HD
HETATM   19  O   UNL     1     -43.486  55.174 -58.761  1.00  0.00    -0.274 OA
BRANCH  17  20
HETATM   20  C   UNL     1     -42.292  57.630 -59.349  1.00  0.00     0.161 C 
BRANCH  20  21
HETATM   21  C   UNL     1     -41.937  59.100 -59.336  1.00  0.00    -0.038 A 
HETATM   22  C   UNL     1     -41.935  59.807 -60.552  1.00  0.00     0.048 A 
HETATM   23  C   UNL     1     -41.645  61.157 -60.528  1.00  0.00     0.105 A 
HETATM   24  C   UNL     1     -41.366  61.817 -59.357  1.00  0.00     0.105 A 
HETATM   25  O   UNL     1     -41.603  61.979 -61.610  1.00  0.00    -0.323 OA
HETATM   26  O   UNL     1     -41.105  63.136 -59.552  1.00  0.00    -0.323 OA
HETATM   27  C   UNL     1     -41.375  61.170 -58.142  1.00  0.00     0.040 A 
HETATM   28  C   UNL     1     -41.264  63.234 -60.983  1.00  0.00     0.352 A 
HETATM   29  C   UNL     1     -41.677  59.803 -58.134  1.00  0.00     0.012 A 
ENDBRANCH  20  21
ENDBRANCH  17  20
ENDBRANCH  15  16
ENDBRANCH  12  15
BRANCH   6  30
HETATM   30  S   UNL     1     -42.384  56.743 -50.998  1.00  0.00    -0.082 SA
BRANCH  30  31
HETATM   31  C   UNL     1     -40.830  57.681 -50.924  1.00  0.00     0.185 C 
BRANCH  31  32
HETATM   32  C   UNL     1     -40.933  58.947 -51.758  1.00  0.00     0.232 C 
HETATM   33  N   UNL     1     -42.243  59.345 -51.977  1.00  0.00    -0.324 N 
HETATM   34  H   UNL     1     -42.925  58.976 -51.320  1.00  0.00     0.169 HD
HETATM   35  O   UNL     1     -39.922  59.509 -52.166  1.00  0.00    -0.272 OA
BRANCH  33  36
HETATM   36  C   UNL     1     -42.668  60.422 -52.787  1.00  0.00     0.073 A 
HETATM   37  C   UNL     1     -42.415  60.544 -54.159  1.00  0.00     0.143 A 
HETATM   38  F   UNL     1     -41.818  59.568 -54.857  1.00  0.00    -0.204 F 
HETATM   39  C   UNL     1     -42.858  61.656 -54.877  1.00  0.00     0.044 A 
HETATM   40  C   UNL     1     -43.583  62.657 -54.237  1.00  0.00     0.003 A 
HETATM   41  C   UNL     1     -43.878  62.534 -52.881  1.00  0.00     0.002 A 
HETATM   42  C   UNL     1     -43.431  61.420 -52.162  1.00  0.00     0.033 A 
ENDBRANCH  33  36
ENDBRANCH  31  32
ENDBRANCH  30  31
ENDBRANCH   6  30
TORSDOF 8
ENDMDL
MODEL 8
REMARK VINA RESULT:      -8.6      3.599      8.950
REMARK  8 active torsions:
REMARK  status: ('A' for Active; 'I' for Inactive)
REMARK    1  A    between atoms: C_6  and  S_7 
REMARK    2  A    between atoms: S_7  and  C_8 
REMARK    3  A    between atoms: C_8  and  C_9 
REMARK       I    between atoms: C_9  and  N_10 
REMARK    4  A    between atoms: N_10  and  C_11 
REMARK    5  A    between atoms: C_24  and  C_25 
REMARK    6  A    between atoms: C_25  and  C_26 
REMARK       I    between atoms: C_26  and  N_27 
REMARK    7  A    between atoms: N_27  and  C_28 
REMARK    8  A    between atoms: C_28  and  C_29 
ROOT
HETATM    1  C   UNL     1     -39.392  51.626 -51.913  1.00  0.00     0.001 A 
HETATM    2  C   UNL     1     -39.818  52.889 -51.501  1.00  0.00     0.018 A 
HETATM    3  C   UNL     1     -40.627  53.647 -52.352  1.00  0.00     0.039 A 
HETATM    4  C   UNL     1     -41.010  53.170 -53.612  1.00  0.00     0.073 A 
HETATM    5  N   UNL     1     -41.846  53.902 -54.476  1.00  0.00    -0.223 NA
HETATM    6  C   UNL     1     -42.295  55.042 -54.056  1.00  0.00     0.178 A 
HETATM    7  N   UNL     1     -41.969  55.594 -52.827  1.00  0.00    -0.241 N 
HETATM    8  C   UNL     1     -41.157  54.953 -51.948  1.00  0.00     0.147 A 
HETATM    9  N   UNL     1     -40.915  55.536 -50.808  1.00  0.00    -0.256 NA
HETATM   10  C   UNL     1     -42.319  56.798 -52.260  1.00  0.00     0.257 C 
HETATM   11  O   UNL     1     -42.928  57.735 -52.749  1.00  0.00    -0.270 OA
HETATM   12  C   UNL     1     -41.755  56.765 -50.852  1.00  0.00     0.211 C 
HETATM   13  C   UNL     1     -40.576  51.905 -54.008  1.00  0.00     0.032 A 
HETATM   14  C   UNL     1     -39.774  51.133 -53.163  1.00  0.00     0.002 A 
ENDROOT
BRANCH  12  15
HETATM   15  C   UNL     1     -41.040  58.057 -50.502  1.00  0.00     0.140 C 
BRANCH  15  16
HETATM   16  C   UNL     1     -41.691  59.356 -50.914  1.00  0.00     0.220 C 
HETATM   17  N   UNL     1     -42.973  59.518 -50.442  1.00  0.00    -0.357 N 
HETATM   18  H   UNL     1     -43.142  59.176 -49.503  1.00  0.00     0.162 HD
HETATM   19  O   UNL     1     -41.149  60.135 -51.691  1.00  0.00    -0.274 OA
BRANCH  17  20
HETATM   20  C   UNL     1     -43.788  60.614 -50.911  1.00  0.00     0.161 C 
BRANCH  20  21
HETATM   21  C   UNL     1     -44.391  61.432 -49.790  1.00  0.00    -0.038 A 
HETATM   22  C   UNL     1     -45.399  60.853 -48.998  1.00  0.00     0.048 A 
HETATM   23  C   UNL     1     -45.919  61.591 -47.953  1.00  0.00     0.105 A 
HETATM   24  C   UNL     1     -45.477  62.860 -47.671  1.00  0.00     0.105 A 
HETATM   25  O   UNL     1     -46.893  61.179 -47.098  1.00  0.00    -0.323 OA
HETATM   26  O   UNL     1     -46.119  63.412 -46.609  1.00  0.00    -0.323 OA
HETATM   27  C   UNL     1     -44.478  63.458 -48.407  1.00  0.00     0.040 A 
HETATM   28  C   UNL     1     -47.012  62.338 -46.245  1.00  0.00     0.352 A 
HETATM   29  C   UNL     1     -43.924  62.729 -49.466  1.00  0.00     0.012 A 
ENDBRANCH  20  21
ENDBRANCH  17  20
ENDBRANCH  15  16
ENDBRANCH  12  15
BRANCH   6  30
HETATM   30  S   UNL     1     -43.402  55.883 -55.105  1.00  0.00    -0.082 SA
BRANCH  30  31
HETATM   31  C   UNL     1     -42.717  55.350 -56.701  1.00  0.00     0.185 C 
BRANCH  31  32
HETATM   32  C   UNL     1     -42.992  56.393 -57.772  1.00  0.00     0.232 C 
HETATM   33  N   UNL     1     -41.964  57.315 -57.905  1.00  0.00    -0.324 N 
HETATM   34  H   UNL     1     -41.062  57.014 -57.547  1.00  0.00     0.169 HD
HETATM   35  O   UNL     1     -44.036  56.367 -58.414  1.00  0.00    -0.272 OA
BRANCH  33  36
HETATM   36  C   UNL     1     -41.961  58.453 -58.743  1.00  0.00     0.073 A 
HETATM   37  C   UNL     1     -41.936  58.419 -60.143  1.00  0.00     0.143 A 
HETATM   38  F   UNL     1     -42.019  57.268 -60.824  1.00  0.00    -0.204 F 
HETATM   39  C   UNL     1     -41.915  59.597 -60.891  1.00  0.00     0.044 A 
HETATM   40  C   UNL     1     -41.941  60.832 -60.250  1.00  0.00     0.003 A 
HETATM   41  C   UNL     1     -42.006  60.885 -58.859  1.00  0.00     0.002 A 
HETATM   42  C   UNL     1     -42.024  59.703 -58.111  1.00  0.00     0.033 A 
ENDBRANCH  33  36
ENDBRANCH  31  32
ENDBRANCH  30  31
ENDBRANCH   6  30
TORSDOF 8
ENDMDL
MODEL 9
REMARK VINA RESULT:      -8.6      3.495      8.143
REMARK  8 active torsions:
REMARK  status: ('A' for Active; 'I' for Inactive)
REMARK    1  A    between atoms: C_6  and  S_7 
REMARK    2  A    between atoms: S_7  and  C_8 
REMARK    3  A    between atoms: C_8  and  C_9 
REMARK       I    between atoms: C_9  and  N_10 
REMARK    4  A    between atoms: N_10  and  C_11 
REMARK    5  A    between atoms: C_24  and  C_25 
REMARK    6  A    between atoms: C_25  and  C_26 
REMARK       I    between atoms: C_26  and  N_27 
REMARK    7  A    between atoms: N_27  and  C_28 
REMARK    8  A    between atoms: C_28  and  C_29 
ROOT
HETATM    1  C   UNL     1     -43.505  61.221 -53.265  1.00  0.00     0.001 A 
HETATM    2  C   UNL     1     -43.552  59.959 -53.858  1.00  0.00     0.018 A 
HETATM    3  C   UNL     1     -43.286  58.829 -53.079  1.00  0.00     0.039 A 
HETATM    4  C   UNL     1     -42.963  58.938 -51.721  1.00  0.00     0.073 A 
HETATM    5  N   UNL     1     -42.717  57.815 -50.909  1.00  0.00    -0.223 NA
HETATM    6  C   UNL     1     -42.834  56.644 -51.450  1.00  0.00     0.178 A 
HETATM    7  N   UNL     1     -43.148  56.439 -52.785  1.00  0.00    -0.241 N 
HETATM    8  C   UNL     1     -43.383  57.474 -53.631  1.00  0.00     0.147 A 
HETATM    9  N   UNL     1     -43.688  57.191 -54.865  1.00  0.00    -0.256 NA
HETATM   10  C   UNL     1     -43.262  55.278 -53.513  1.00  0.00     0.257 C 
HETATM   11  O   UNL     1     -43.011  54.131 -53.185  1.00  0.00    -0.270 OA
HETATM   12  C   UNL     1     -43.754  55.704 -54.884  1.00  0.00     0.211 C 
HETATM   13  C   UNL     1     -42.919  60.208 -51.143  1.00  0.00     0.032 A 
HETATM   14  C   UNL     1     -43.192  61.345 -51.909  1.00  0.00     0.002 A 
ENDROOT
BRANCH  12  15
HETATM   15  C   UNL     1     -42.970  55.030 -55.997  1.00  0.00     0.140 C 
BRANCH  15  16
HETATM   16  C   UNL     1     -42.894  55.735 -57.331  1.00  0.00     0.220 C 
HETATM   17  N   UNL     1     -42.167  56.901 -57.311  1.00  0.00    -0.357 N 
HETATM   18  H   UNL     1     -41.337  56.892 -56.729  1.00  0.00     0.162 HD
HETATM   19  O   UNL     1     -43.524  55.342 -58.307  1.00  0.00    -0.274 OA
BRANCH  17  20
HETATM   20  C   UNL     1     -42.168  57.779 -58.459  1.00  0.00     0.161 C 
BRANCH  20  21
HETATM   21  C   UNL     1     -42.476  59.218 -58.108  1.00  0.00    -0.038 A 
HETATM   22  C   UNL     1     -43.774  59.545 -57.674  1.00  0.00     0.048 A 
HETATM   23  C   UNL     1     -44.038  60.854 -57.321  1.00  0.00     0.105 A 
HETATM   24  C   UNL     1     -43.074  61.830 -57.380  1.00  0.00     0.105 A 
HETATM   25  O   UNL     1     -45.234  61.331 -56.882  1.00  0.00    -0.323 OA
HETATM   26  O   UNL     1     -43.541  63.047 -56.995  1.00  0.00    -0.323 OA
HETATM   27  C   UNL     1     -41.787  61.551 -57.780  1.00  0.00     0.040 A 
HETATM   28  C   UNL     1     -44.910  62.722 -56.673  1.00  0.00     0.352 A 
HETATM   29  C   UNL     1     -41.486  60.230 -58.133  1.00  0.00     0.012 A 
ENDBRANCH  20  21
ENDBRANCH  17  20
ENDBRANCH  15  16
ENDBRANCH  12  15
BRANCH   6  30
HETATM   30  S   UNL     1     -42.617  55.271 -50.401  1.00  0.00    -0.082 SA
BRANCH  30  31
HETATM   31  C   UNL     1     -40.856  55.499 -50.020  1.00  0.00     0.185 C 
BRANCH  31  32
HETATM   32  C   UNL     1     -40.069  54.248 -50.376  1.00  0.00     0.232 C 
HETATM   33  N   UNL     1     -40.681  53.486 -51.360  1.00  0.00    -0.324 N 
HETATM   34  H   UNL     1     -41.355  53.982 -51.937  1.00  0.00     0.169 HD
HETATM   35  O   UNL     1     -39.010  53.996 -49.811  1.00  0.00    -0.272 OA
BRANCH  33  36
HETATM   36  C   UNL     1     -40.249  52.229 -51.838  1.00  0.00     0.073 A 
HETATM   37  C   UNL     1     -40.045  51.094 -51.042  1.00  0.00     0.143 A 
HETATM   38  F   UNL     1     -40.353  51.082 -49.738  1.00  0.00    -0.204 F 
HETATM   39  C   UNL     1     -39.597  49.896 -51.598  1.00  0.00     0.044 A 
HETATM   40  C   UNL     1     -39.363  49.805 -52.967  1.00  0.00     0.003 A 
HETATM   41  C   UNL     1     -39.597  50.912 -53.780  1.00  0.00     0.002 A 
HETATM   42  C   UNL     1     -40.045  52.114 -53.220  1.00  0.00     0.033 A 
ENDBRANCH  33  36
ENDBRANCH  31  32
ENDBRANCH  30  31
ENDBRANCH   6  30
TORSDOF 8
ENDMDL
MODEL 10
REMARK VINA RESULT:      -8.6      4.574      9.211
REMARK  8 active torsions:
REMARK  status: ('A' for Active; 'I' for Inactive)
REMARK    1  A    between atoms: C_6  and  S_7 
REMARK    2  A    between atoms: S_7  and  C_8 
REMARK    3  A    between atoms: C_8  and  C_9 
REMARK       I    between atoms: C_9  and  N_10 
REMARK    4  A    between atoms: N_10  and  C_11 
REMARK    5  A    between atoms: C_24  and  C_25 
REMARK    6  A    between atoms: C_25  and  C_26 
REMARK       I    between atoms: C_26  and  N_27 
REMARK    7  A    between atoms: N_27  and  C_28 
REMARK    8  A    between atoms: C_28  and  C_29 
ROOT
HETATM    1  C   UNL     1     -45.883  61.765 -54.757  1.00  0.00     0.001 A 
HETATM    2  C   UNL     1     -45.375  60.628 -55.385  1.00  0.00     0.018 A 
HETATM    3  C   UNL     1     -44.461  59.822 -54.701  1.00  0.00     0.039 A 
HETATM    4  C   UNL     1     -44.037  60.138 -53.404  1.00  0.00     0.073 A 
HETATM    5  N   UNL     1     -43.139  59.329 -52.683  1.00  0.00    -0.223 NA
HETATM    6  C   UNL     1     -42.728  58.237 -53.246  1.00  0.00     0.178 A 
HETATM    7  N   UNL     1     -43.091  57.844 -54.525  1.00  0.00    -0.241 N 
HETATM    8  C   UNL     1     -43.941  58.581 -55.284  1.00  0.00     0.147 A 
HETATM    9  N   UNL     1     -44.243  58.130 -56.468  1.00  0.00    -0.256 NA
HETATM   10  C   UNL     1     -42.711  56.754 -55.273  1.00  0.00     0.257 C 
HETATM   11  O   UNL     1     -41.869  55.906 -55.032  1.00  0.00    -0.270 OA
HETATM   12  C   UNL     1     -43.550  56.814 -56.536  1.00  0.00     0.211 C 
HETATM   13  C   UNL     1     -44.555  61.279 -52.790  1.00  0.00     0.032 A 
HETATM   14  C   UNL     1     -45.477  62.088 -53.461  1.00  0.00     0.002 A 
ENDROOT
BRANCH  12  15
HETATM   15  C   UNL     1     -42.711  56.582 -57.779  1.00  0.00     0.140 C 
BRANCH  15  16
HETATM   16  C   UNL     1     -43.430  56.216 -59.056  1.00  0.00     0.220 C 
HETATM   17  N   UNL     1     -44.801  56.244 -58.958  1.00  0.00    -0.357 N 
HETATM   18  H   UNL     1     -45.186  56.991 -58.391  1.00  0.00     0.162 HD
HETATM   19  O   UNL     1     -42.827  55.826 -60.050  1.00  0.00    -0.274 OA
BRANCH  17  20
HETATM   20  C   UNL     1     -45.619  55.733 -60.034  1.00  0.00     0.161 C 
BRANCH  20  21
HETATM   21  C   UNL     1     -46.542  56.774 -60.627  1.00  0.00    -0.038 A 
HETATM   22  C   UNL     1     -47.628  56.346 -61.413  1.00  0.00     0.048 A 
HETATM   23  C   UNL     1     -48.487  57.300 -61.922  1.00  0.00     0.105 A 
HETATM   24  C   UNL     1     -48.311  58.639 -61.677  1.00  0.00     0.105 A 
HETATM   25  O   UNL     1     -49.579  57.053 -62.695  1.00  0.00    -0.323 OA
HETATM   26  O   UNL     1     -49.262  59.407 -62.271  1.00  0.00    -0.323 OA
HETATM   27  C   UNL     1     -47.274  59.101 -60.898  1.00  0.00     0.040 A 
HETATM   28  C   UNL     1     -50.068  58.394 -62.909  1.00  0.00     0.352 A 
HETATM   29  C   UNL     1     -46.393  58.157 -60.359  1.00  0.00     0.012 A 
ENDBRANCH  20  21
ENDBRANCH  17  20
ENDBRANCH  15  16
ENDBRANCH  12  15
BRANCH   6  30
HETATM   30  S   UNL     1     -41.692  57.208 -52.297  1.00  0.00    -0.082 SA
BRANCH  30  31
HETATM   31  C   UNL     1     -42.968  56.145 -51.562  1.00  0.00     0.185 C 
BRANCH  31  32
HETATM   32  C   UNL     1     -42.593  54.680 -51.716  1.00  0.00     0.232 C 
HETATM   33  N   UNL     1     -41.328  54.499 -52.256  1.00  0.00    -0.324 N 
HETATM   34  H   UNL     1     -40.703  55.296 -52.173  1.00  0.00     0.169 HD
HETATM   35  O   UNL     1     -43.376  53.797 -51.381  1.00  0.00    -0.272 OA
BRANCH  33  36
HETATM   36  C   UNL     1     -40.734  53.267 -52.607  1.00  0.00     0.073 A 
HETATM   37  C   UNL     1     -39.976  52.466 -51.743  1.00  0.00     0.143 A 
HETATM   38  F   UNL     1     -39.834  52.765 -50.445  1.00  0.00    -0.204 F 
HETATM   39  C   UNL     1     -39.409  51.269 -52.183  1.00  0.00     0.044 A 
HETATM   40  C   UNL     1     -39.609  50.841 -53.492  1.00  0.00     0.003 A 
HETATM   41  C   UNL     1     -40.393  51.604 -54.354  1.00  0.00     0.002 A 
HETATM   42  C   UNL     1     -40.959  52.806 -53.912  1.00  0.00     0.033 A 
ENDBRANCH  33  36
ENDBRANCH  31  32
ENDBRANCH  30  31
ENDBRANCH   6  30
TORSDOF 8
ENDMDL
