MODEL 1
REMARK VINA RESULT:      -7.3      0.000      0.000
REMARK  5 active torsions:
REMARK  status: ('A' for Active; 'I' for Inactive)
REMARK    1  A    between atoms: C_2  and  C_3 
REMARK    2  A    between atoms: C_3  and  O_4 
REMARK    3  A    between atoms: C_3  and  C_5 
REMARK    4  A    between atoms: N_8  and  C_10 
REMARK    5  A    between atoms: C_10  and  C_11 
ROOT
HETATM    1  C   UNL     1     -42.911  55.158 -53.729  1.00  0.00     0.022 C 
HETATM    2  C   UNL     1     -43.415  54.209 -54.825  1.00  0.00     0.035 C 
HETATM    3  C   UNL     1     -42.982  54.658 -56.213  1.00  0.00     0.235 C 
HETATM    4  N   UNL     1     -43.444  56.070 -56.469  1.00  0.00    -0.066 N 
HETATM    5  H   UNL     1     -44.474  56.023 -56.552  1.00  0.00     0.280 HD
HETATM    6  C   UNL     1     -43.074  57.068 -55.407  1.00  0.00     0.235 C 
HETATM    7  C   UNL     1     -43.470  56.561 -54.028  1.00  0.00     0.035 C 
ENDROOT
BRANCH   1   8
HETATM    8  C   UNL     1     -41.365  55.161 -53.584  1.00  0.00     0.155 C 
BRANCH   8   9
HETATM    9  C   UNL     1     -40.798  53.889 -52.990  1.00  0.00    -0.029 A 
HETATM   10  C   UNL     1     -40.728  53.704 -51.600  1.00  0.00     0.011 A 
HETATM   11  C   UNL     1     -40.236  52.511 -51.066  1.00  0.00     0.024 A 
HETATM   12  C   UNL     1     -39.808  51.493 -51.915  1.00  0.00     0.034 A 
HETATM   13  C   UNL     1     -39.858  51.664 -53.296  1.00  0.00     0.024 A 
HETATM   14 CL   UNL     1     -39.218  50.019 -51.259  1.00  0.00    -0.084 Cl
HETATM   15  C   UNL     1     -40.346  52.858 -53.832  1.00  0.00     0.011 A 
ENDBRANCH   8   9
BRANCH   8  16
HETATM   16  O   UNL     1     -40.984  56.287 -52.803  1.00  0.00    -0.391 OA
HETATM   17  H   UNL     1     -41.305  57.095 -53.247  1.00  0.00     0.210 HD
ENDBRANCH   8  16
ENDBRANCH   1   8
BRANCH   4  18
HETATM   18  C   UNL     1     -43.027  56.557 -57.854  1.00  0.00     0.295 C 
BRANCH  18  19
HETATM   19  C   UNL     1     -44.007  56.164 -58.910  1.00  0.00     0.081 A 
HETATM   20  N   UNL     1     -45.109  56.908 -59.098  1.00  0.00    -0.178 NA
HETATM   21  N   UNL     1     -45.760  56.272 -60.097  1.00  0.00    -0.289 N 
HETATM   22  H   UNL     1     -46.631  56.664 -60.448  1.00  0.00     0.188 HD
HETATM   23  C   UNL     1     -45.133  55.129 -60.498  1.00  0.00     0.111 A 
HETATM   24  C   UNL     1     -43.984  55.032 -59.753  1.00  0.00     0.049 A 
ENDBRANCH  18  19
ENDBRANCH   4  18
TORSDOF 5
ENDMDL
MODEL 2
REMARK VINA RESULT:      -6.8      1.779      2.380
REMARK  5 active torsions:
REMARK  status: ('A' for Active; 'I' for Inactive)
REMARK    1  A    between atoms: C_2  and  C_3 
REMARK    2  A    between atoms: C_3  and  O_4 
REMARK    3  A    between atoms: C_3  and  C_5 
REMARK    4  A    between atoms: N_8  and  C_10 
REMARK    5  A    between atoms: C_10  and  C_11 
ROOT
HETATM    1  C   UNL     1     -43.539  55.961 -53.810  1.00  0.00     0.022 C 
HETATM    2  C   UNL     1     -43.589  54.627 -54.568  1.00  0.00     0.035 C 
HETATM    3  C   UNL     1     -42.897  54.711 -55.920  1.00  0.00     0.235 C 
HETATM    4  N   UNL     1     -43.501  55.821 -56.743  1.00  0.00    -0.066 N 
HETATM    5  H   UNL     1     -44.454  55.506 -56.991  1.00  0.00     0.280 HD
HETATM    6  C   UNL     1     -43.579  57.157 -56.059  1.00  0.00     0.235 C 
HETATM    7  C   UNL     1     -44.224  57.025 -54.687  1.00  0.00     0.035 C 
ENDROOT
BRANCH   1   8
HETATM    8  C   UNL     1     -42.102  56.378 -53.396  1.00  0.00     0.155 C 
BRANCH   8   9
HETATM    9  C   UNL     1     -41.628  55.755 -52.099  1.00  0.00    -0.029 A 
HETATM   10  C   UNL     1     -40.924  54.541 -52.092  1.00  0.00     0.011 A 
HETATM   11  C   UNL     1     -40.462  53.995 -50.892  1.00  0.00     0.024 A 
HETATM   12  C   UNL     1     -40.700  54.657 -49.690  1.00  0.00     0.034 A 
HETATM   13  C   UNL     1     -41.408  55.856 -49.677  1.00  0.00     0.024 A 
HETATM   14 CL   UNL     1     -40.118  53.995 -48.215  1.00  0.00    -0.084 Cl
HETATM   15  C   UNL     1     -41.875  56.401 -50.876  1.00  0.00     0.011 A 
ENDBRANCH   8   9
BRANCH   8  16
HETATM   16  O   UNL     1     -42.046  57.797 -53.316  1.00  0.00    -0.391 OA
HETATM   17  H   UNL     1     -42.135  58.058 -52.380  1.00  0.00     0.210 HD
ENDBRANCH   8  16
ENDBRANCH   1   8
BRANCH   4  18
HETATM   18  C   UNL     1     -42.831  55.938 -58.109  1.00  0.00     0.295 C 
BRANCH  18  19
HETATM   19  C   UNL     1     -43.807  55.796 -59.232  1.00  0.00     0.081 A 
HETATM   20  N   UNL     1     -44.295  56.896 -59.827  1.00  0.00    -0.178 NA
HETATM   21  N   UNL     1     -45.136  56.408 -60.765  1.00  0.00    -0.289 N 
HETATM   22  H   UNL     1     -45.620  57.057 -61.381  1.00  0.00     0.188 HD
HETATM   23  C   UNL     1     -45.234  55.048 -60.737  1.00  0.00     0.111 A 
HETATM   24  C   UNL     1     -44.375  54.614 -59.757  1.00  0.00     0.049 A 
ENDBRANCH  18  19
ENDBRANCH   4  18
TORSDOF 5
ENDMDL
MODEL 3
REMARK VINA RESULT:      -6.7     14.436     15.805
REMARK  5 active torsions:
REMARK  status: ('A' for Active; 'I' for Inactive)
REMARK    1  A    between atoms: C_2  and  C_3 
REMARK    2  A    between atoms: C_3  and  O_4 
REMARK    3  A    between atoms: C_3  and  C_5 
REMARK    4  A    between atoms: N_8  and  C_10 
REMARK    5  A    between atoms: C_10  and  C_11 
ROOT
HETATM    1  C   UNL     1     -37.130  41.793 -57.241  1.00  0.00     0.022 C 
HETATM    2  C   UNL     1     -38.184  40.725 -56.918  1.00  0.00     0.035 C 
HETATM    3  C   UNL     1     -37.986  39.460 -57.739  1.00  0.00     0.235 C 
HETATM    4  N   UNL     1     -37.988  39.791 -59.211  1.00  0.00    -0.066 N 
HETATM    5  H   UNL     1     -38.958  40.066 -59.440  1.00  0.00     0.280 HD
HETATM    6  C   UNL     1     -37.047  40.889 -59.622  1.00  0.00     0.235 C 
HETATM    7  C   UNL     1     -37.234  42.118 -58.743  1.00  0.00     0.035 C 
ENDROOT
BRANCH   1   8
HETATM    8  C   UNL     1     -35.691  41.380 -56.829  1.00  0.00     0.155 C 
BRANCH   8   9
HETATM    9  C   UNL     1     -35.472  41.317 -55.332  1.00  0.00    -0.029 A 
HETATM   10  C   UNL     1     -34.732  40.276 -54.749  1.00  0.00     0.011 A 
HETATM   11  C   UNL     1     -34.508  40.249 -53.371  1.00  0.00     0.024 A 
HETATM   12  C   UNL     1     -35.022  41.261 -52.563  1.00  0.00     0.034 A 
HETATM   13  C   UNL     1     -35.769  42.294 -53.122  1.00  0.00     0.024 A 
HETATM   14 CL   UNL     1     -34.733  41.237 -50.869  1.00  0.00    -0.084 Cl
HETATM   15  C   UNL     1     -35.998  42.320 -54.500  1.00  0.00     0.011 A 
ENDBRANCH   8   9
BRANCH   8  16
HETATM   16  O   UNL     1     -34.769  42.282 -57.429  1.00  0.00    -0.391 OA
HETATM   17  H   UNL     1     -33.874  41.901 -57.362  1.00  0.00     0.210 HD
ENDBRANCH   8  16
ENDBRANCH   1   8
BRANCH   4  18
HETATM   18  C   UNL     1     -37.790  38.544 -60.069  1.00  0.00     0.295 C 
BRANCH  18  19
HETATM   19  C   UNL     1     -39.000  38.221 -60.883  1.00  0.00     0.081 A 
HETATM   20  N   UNL     1     -38.895  38.146 -62.220  1.00  0.00    -0.178 NA
HETATM   21  N   UNL     1     -40.151  37.856 -62.625  1.00  0.00    -0.289 N 
HETATM   22  H   UNL     1     -40.331  37.718 -63.617  1.00  0.00     0.188 HD
HETATM   23  C   UNL     1     -41.044  37.805 -61.595  1.00  0.00     0.111 A 
HETATM   24  C   UNL     1     -40.328  38.029 -60.445  1.00  0.00     0.049 A 
ENDBRANCH  18  19
ENDBRANCH   4  18
TORSDOF 5
ENDMDL
MODEL 4
REMARK VINA RESULT:      -6.7     14.925     17.428
REMARK  5 active torsions:
REMARK  status: ('A' for Active; 'I' for Inactive)
REMARK    1  A    between atoms: C_2  and  C_3 
REMARK    2  A    between atoms: C_3  and  O_4 
REMARK    3  A    between atoms: C_3  and  C_5 
REMARK    4  A    between atoms: N_8  and  C_10 
REMARK    5  A    between atoms: C_10  and  C_11 
ROOT
HETATM    1  C   UNL     1     -35.946  42.125 -55.346  1.00  0.00     0.022 C 
HETATM    2  C   UNL     1     -34.629  41.474 -55.789  1.00  0.00     0.035 C 
HETATM    3  C   UNL     1     -34.318  40.214 -54.996  1.00  0.00     0.235 C 
HETATM    4  N   UNL     1     -34.296  40.522 -53.520  1.00  0.00    -0.066 N 
HETATM    5  H   UNL     1     -33.457  41.107 -53.363  1.00  0.00     0.280 HD
HETATM    6  C   UNL     1     -35.508  41.240 -52.996  1.00  0.00     0.235 C 
HETATM    7  C   UNL     1     -35.823  42.462 -53.848  1.00  0.00     0.035 C 
ENDROOT
BRANCH   1   8
HETATM    8  C   UNL     1     -37.195  41.254 -55.650  1.00  0.00     0.155 C 
BRANCH   8   9
HETATM    9  C   UNL     1     -37.337  40.866 -57.107  1.00  0.00    -0.029 A 
HETATM   10  C   UNL     1     -37.193  41.818 -58.128  1.00  0.00     0.011 A 
HETATM   11  C   UNL     1     -37.291  41.440 -59.470  1.00  0.00     0.024 A 
HETATM   12  C   UNL     1     -37.536  40.109 -59.801  1.00  0.00     0.034 A 
HETATM   13  C   UNL     1     -37.694  39.154 -58.800  1.00  0.00     0.024 A 
HETATM   14 CL   UNL     1     -37.641  39.641 -61.451  1.00  0.00    -0.084 Cl
HETATM   15  C   UNL     1     -37.601  39.532 -57.458  1.00  0.00     0.011 A 
ENDBRANCH   8   9
BRANCH   8  16
HETATM   16  O   UNL     1     -38.353  41.948 -55.204  1.00  0.00    -0.391 OA
HETATM   17  H   UNL     1     -38.120  42.887 -55.072  1.00  0.00     0.210 HD
ENDBRANCH   8  16
ENDBRANCH   1   8
BRANCH   4  18
HETATM   18  C   UNL     1     -33.988  39.280 -52.689  1.00  0.00     0.295 C 
BRANCH  18  19
HETATM   19  C   UNL     1     -33.168  39.597 -51.481  1.00  0.00     0.081 A 
HETATM   20  N   UNL     1     -31.830  39.638 -51.582  1.00  0.00    -0.178 NA
HETATM   21  N   UNL     1     -31.421  39.932 -50.329  1.00  0.00    -0.289 N 
HETATM   22  H   UNL     1     -30.427  40.048 -50.147  1.00  0.00     0.188 HD
HETATM   23  C   UNL     1     -32.451  40.020 -49.439  1.00  0.00     0.111 A 
HETATM   24  C   UNL     1     -33.605  39.816 -50.155  1.00  0.00     0.049 A 
ENDBRANCH  18  19
ENDBRANCH   4  18
TORSDOF 5
ENDMDL
MODEL 5
REMARK VINA RESULT:      -6.6      4.273      5.714
REMARK  5 active torsions:
REMARK  status: ('A' for Active; 'I' for Inactive)
REMARK    1  A    between atoms: C_2  and  C_3 
REMARK    2  A    between atoms: C_3  and  O_4 
REMARK    3  A    between atoms: C_3  and  C_5 
REMARK    4  A    between atoms: N_8  and  C_10 
REMARK    5  A    between atoms: C_10  and  C_11 
ROOT
HETATM    1  C   UNL     1     -41.342  56.135 -51.490  1.00  0.00     0.022 C 
HETATM    2  C   UNL     1     -42.365  55.586 -50.486  1.00  0.00     0.035 C 
HETATM    3  C   UNL     1     -43.790  55.972 -50.854  1.00  0.00     0.235 C 
HETATM    4  N   UNL     1     -43.906  57.471 -50.976  1.00  0.00    -0.066 N 
HETATM    5  H   UNL     1     -43.805  57.844 -50.017  1.00  0.00     0.280 HD
HETATM    6  C   UNL     1     -42.891  58.122 -51.873  1.00  0.00     0.235 C 
HETATM    7  C   UNL     1     -41.483  57.668 -51.514  1.00  0.00     0.035 C 
ENDROOT
BRANCH   1   8
HETATM    8  C   UNL     1     -41.475  55.511 -52.906  1.00  0.00     0.155 C 
BRANCH   8   9
HETATM    9  C   UNL     1     -40.928  54.103 -53.014  1.00  0.00    -0.029 A 
HETATM   10  C   UNL     1     -40.216  53.518 -51.956  1.00  0.00     0.011 A 
HETATM   11  C   UNL     1     -39.748  52.205 -52.055  1.00  0.00     0.024 A 
HETATM   12  C   UNL     1     -39.987  51.468 -53.212  1.00  0.00     0.034 A 
HETATM   13  C   UNL     1     -40.680  52.038 -54.277  1.00  0.00     0.024 A 
HETATM   14 CL   UNL     1     -39.426  49.848 -53.329  1.00  0.00    -0.084 Cl
HETATM   15  C   UNL     1     -41.145  53.351 -54.181  1.00  0.00     0.011 A 
ENDBRANCH   8   9
BRANCH   8  16
HETATM   16  O   UNL     1     -40.833  56.368 -53.842  1.00  0.00    -0.391 OA
HETATM   17  H   UNL     1     -40.275  57.001 -53.351  1.00  0.00     0.210 HD
ENDBRANCH   8  16
ENDBRANCH   1   8
BRANCH   4  18
HETATM   18  C   UNL     1     -45.324  57.898 -51.345  1.00  0.00     0.295 C 
BRANCH  18  19
HETATM   19  C   UNL     1     -45.564  59.348 -51.080  1.00  0.00     0.081 A 
HETATM   20  N   UNL     1     -45.777  60.182 -52.111  1.00  0.00    -0.178 NA
HETATM   21  N   UNL     1     -45.941  61.387 -51.522  1.00  0.00    -0.289 N 
HETATM   22  H   UNL     1     -46.147  62.197 -52.102  1.00  0.00     0.188 HD
HETATM   23  C   UNL     1     -45.781  61.344 -50.168  1.00  0.00     0.111 A 
HETATM   24  C   UNL     1     -45.543  60.031 -49.844  1.00  0.00     0.049 A 
ENDBRANCH  18  19
ENDBRANCH   4  18
TORSDOF 5
ENDMDL
MODEL 6
REMARK VINA RESULT:      -6.6     15.167     17.656
REMARK  5 active torsions:
REMARK  status: ('A' for Active; 'I' for Inactive)
REMARK    1  A    between atoms: C_2  and  C_3 
REMARK    2  A    between atoms: C_3  and  O_4 
REMARK    3  A    between atoms: C_3  and  C_5 
REMARK    4  A    between atoms: N_8  and  C_10 
REMARK    5  A    between atoms: C_10  and  C_11 
ROOT
HETATM    1  C   UNL     1     -34.563  40.836 -53.082  1.00  0.00     0.022 C 
HETATM    2  C   UNL     1     -35.041  39.380 -53.169  1.00  0.00     0.035 C 
HETATM    3  C   UNL     1     -36.119  39.070 -52.142  1.00  0.00     0.235 C 
HETATM    4  N   UNL     1     -35.623  39.392 -50.755  1.00  0.00    -0.066 N 
HETATM    5  H   UNL     1     -34.893  38.690 -50.543  1.00  0.00     0.280 HD
HETATM    6  C   UNL     1     -35.053  40.772 -50.582  1.00  0.00     0.235 C 
HETATM    7  C   UNL     1     -34.020  41.069 -51.660  1.00  0.00     0.035 C 
ENDROOT
BRANCH   1   8
HETATM    8  C   UNL     1     -35.661  41.866 -53.466  1.00  0.00     0.155 C 
BRANCH   8   9
HETATM    9  C   UNL     1     -36.025  41.860 -54.936  1.00  0.00    -0.029 A 
HETATM   10  C   UNL     1     -37.338  41.595 -55.357  1.00  0.00     0.011 A 
HETATM   11  C   UNL     1     -37.669  41.628 -56.714  1.00  0.00     0.024 A 
HETATM   12  C   UNL     1     -36.690  41.923 -57.661  1.00  0.00     0.034 A 
HETATM   13  C   UNL     1     -35.380  42.175 -57.261  1.00  0.00     0.024 A 
HETATM   14 CL   UNL     1     -37.099  41.979 -59.329  1.00  0.00    -0.084 Cl
HETATM   15  C   UNL     1     -35.047  42.138 -55.905  1.00  0.00     0.011 A 
ENDBRANCH   8   9
BRANCH   8  16
HETATM   16  O   UNL     1     -35.229  43.161 -53.066  1.00  0.00    -0.391 OA
HETATM   17  H   UNL     1     -36.006  43.668 -52.766  1.00  0.00     0.210 HD
ENDBRANCH   8  16
ENDBRANCH   1   8
BRANCH   4  18
HETATM   18  C   UNL     1     -36.679  39.094 -49.695  1.00  0.00     0.295 C 
BRANCH  18  19
HETATM   19  C   UNL     1     -36.081  38.562 -48.434  1.00  0.00     0.081 A 
HETATM   20  N   UNL     1     -36.752  38.691 -47.278  1.00  0.00    -0.178 NA
HETATM   21  N   UNL     1     -35.932  38.125 -46.365  1.00  0.00    -0.289 N 
HETATM   22  H   UNL     1     -36.234  38.072 -45.395  1.00  0.00     0.188 HD
HETATM   23  C   UNL     1     -34.751  37.700 -46.900  1.00  0.00     0.111 A 
HETATM   24  C   UNL     1     -34.816  37.961 -48.246  1.00  0.00     0.049 A 
ENDBRANCH  18  19
ENDBRANCH   4  18
TORSDOF 5
ENDMDL
MODEL 7
REMARK VINA RESULT:      -6.5      2.890      3.729
REMARK  5 active torsions:
REMARK  status: ('A' for Active; 'I' for Inactive)
REMARK    1  A    between atoms: C_2  and  C_3 
REMARK    2  A    between atoms: C_3  and  O_4 
REMARK    3  A    between atoms: C_3  and  C_5 
REMARK    4  A    between atoms: N_8  and  C_10 
REMARK    5  A    between atoms: C_10  and  C_11 
ROOT
HETATM    1  C   UNL     1     -40.994  55.887 -53.125  1.00  0.00     0.022 C 
HETATM    2  C   UNL     1     -42.263  55.848 -52.263  1.00  0.00     0.035 C 
HETATM    3  C   UNL     1     -43.527  55.958 -53.101  1.00  0.00     0.235 C 
HETATM    4  N   UNL     1     -43.485  57.209 -53.942  1.00  0.00    -0.066 N 
HETATM    5  H   UNL     1     -43.577  58.000 -53.282  1.00  0.00     0.280 HD
HETATM    6  C   UNL     1     -42.240  57.387 -54.764  1.00  0.00     0.235 C 
HETATM    7  C   UNL     1     -40.995  57.214 -53.905  1.00  0.00     0.035 C 
ENDROOT
BRANCH   1   8
HETATM    8  C   UNL     1     -40.850  54.656 -54.062  1.00  0.00     0.155 C 
BRANCH   8   9
HETATM    9  C   UNL     1     -40.460  53.379 -53.348  1.00  0.00    -0.029 A 
HETATM   10  C   UNL     1     -40.181  52.204 -54.062  1.00  0.00     0.011 A 
HETATM   11  C   UNL     1     -39.787  51.042 -53.393  1.00  0.00     0.024 A 
HETATM   12  C   UNL     1     -39.670  51.046 -52.005  1.00  0.00     0.034 A 
HETATM   13  C   UNL     1     -39.956  52.199 -51.279  1.00  0.00     0.024 A 
HETATM   14 CL   UNL     1     -39.170  49.622 -51.183  1.00  0.00    -0.084 Cl
HETATM   15  C   UNL     1     -40.354  53.360 -51.947  1.00  0.00     0.011 A 
ENDBRANCH   8   9
BRANCH   8  16
HETATM   16  O   UNL     1     -39.906  54.967 -55.078  1.00  0.00    -0.391 OA
HETATM   17  H   UNL     1     -39.415  55.767 -54.811  1.00  0.00     0.210 HD
ENDBRANCH   8  16
ENDBRANCH   1   8
BRANCH   4  18
HETATM   18  C   UNL     1     -44.739  57.354 -54.800  1.00  0.00     0.295 C 
BRANCH  18  19
HETATM   19  C   UNL     1     -45.190  58.774 -54.907  1.00  0.00     0.081 A 
HETATM   20  N   UNL     1     -45.605  59.248 -56.093  1.00  0.00    -0.178 NA
HETATM   21  N   UNL     1     -45.918  60.536 -55.834  1.00  0.00    -0.289 N 
HETATM   22  H   UNL     1     -46.290  61.115 -56.582  1.00  0.00     0.188 HD
HETATM   23  C   UNL     1     -45.658  60.898 -54.544  1.00  0.00     0.111 A 
HETATM   24  C   UNL     1     -45.191  59.773 -53.909  1.00  0.00     0.049 A 
ENDBRANCH  18  19
ENDBRANCH   4  18
TORSDOF 5
ENDMDL
MODEL 8
REMARK VINA RESULT:      -6.5     14.928     17.315
REMARK  5 active torsions:
REMARK  status: ('A' for Active; 'I' for Inactive)
REMARK    1  A    between atoms: C_2  and  C_3 
REMARK    2  A    between atoms: C_3  and  O_4 
REMARK    3  A    between atoms: C_3  and  C_5 
REMARK    4  A    between atoms: N_8  and  C_10 
REMARK    5  A    between atoms: C_10  and  C_11 
ROOT
HETATM    1  C   UNL     1     -36.168  42.347 -55.764  1.00  0.00     0.022 C 
HETATM    2  C   UNL     1     -34.922  42.212 -56.650  1.00  0.00     0.035 C 
HETATM    3  C   UNL     1     -34.110  40.971 -56.310  1.00  0.00     0.235 C 
HETATM    4  N   UNL     1     -33.734  40.982 -54.849  1.00  0.00    -0.066 N 
HETATM    5  H   UNL     1     -33.046  41.746 -54.738  1.00  0.00     0.280 HD
HETATM    6  C   UNL     1     -34.875  41.195 -53.895  1.00  0.00     0.235 C 
HETATM    7  C   UNL     1     -35.699  42.410 -54.299  1.00  0.00     0.035 C 
ENDROOT
BRANCH   1   8
HETATM    8  C   UNL     1     -37.212  41.221 -55.997  1.00  0.00     0.155 C 
BRANCH   8   9
HETATM    9  C   UNL     1     -37.298  40.747 -57.433  1.00  0.00    -0.029 A 
HETATM   10  C   UNL     1     -37.381  39.380 -57.742  1.00  0.00     0.011 A 
HETATM   11  C   UNL     1     -37.496  38.957 -59.069  1.00  0.00     0.024 A 
HETATM   12  C   UNL     1     -37.525  39.897 -60.097  1.00  0.00     0.034 A 
HETATM   13  C   UNL     1     -37.430  41.256 -59.809  1.00  0.00     0.024 A 
HETATM   14 CL   UNL     1     -37.682  39.379 -61.728  1.00  0.00    -0.084 Cl
HETATM   15  C   UNL     1     -37.311  41.679 -58.484  1.00  0.00     0.011 A 
ENDBRANCH   8   9
BRANCH   8  16
HETATM   16  O   UNL     1     -38.482  41.679 -55.548  1.00  0.00    -0.391 OA
HETATM   17  H   UNL     1     -38.941  42.104 -56.297  1.00  0.00     0.210 HD
ENDBRANCH   8  16
ENDBRANCH   1   8
BRANCH   4  18
HETATM   18  C   UNL     1     -32.918  39.750 -54.469  1.00  0.00     0.295 C 
BRANCH  18  19
HETATM   19  C   UNL     1     -31.950  39.361 -55.538  1.00  0.00     0.081 A 
HETATM   20  N   UNL     1     -31.068  40.266 -55.992  1.00  0.00    -0.178 NA
HETATM   21  N   UNL     1     -30.375  39.594 -56.938  1.00  0.00    -0.289 N 
HETATM   22  H   UNL     1     -29.614  40.065 -57.421  1.00  0.00     0.188 HD
HETATM   23  C   UNL     1     -30.831  38.323 -57.129  1.00  0.00     0.111 A 
HETATM   24  C   UNL     1     -31.850  38.133 -56.229  1.00  0.00     0.049 A 
ENDBRANCH  18  19
ENDBRANCH   4  18
TORSDOF 5
ENDMDL
MODEL 9
REMARK VINA RESULT:      -6.4      4.294      6.562
REMARK  5 active torsions:
REMARK  status: ('A' for Active; 'I' for Inactive)
REMARK    1  A    between atoms: C_2  and  C_3 
REMARK    2  A    between atoms: C_3  and  O_4 
REMARK    3  A    between atoms: C_3  and  C_5 
REMARK    4  A    between atoms: N_8  and  C_10 
REMARK    5  A    between atoms: C_10  and  C_11 
ROOT
HETATM    1  C   UNL     1     -42.563  57.537 -54.127  1.00  0.00     0.022 C 
HETATM    2  C   UNL     1     -42.174  57.819 -52.670  1.00  0.00     0.035 C 
HETATM    3  C   UNL     1     -43.389  57.909 -51.760  1.00  0.00     0.235 C 
HETATM    4  N   UNL     1     -44.346  58.956 -52.273  1.00  0.00    -0.066 N 
HETATM    5  H   UNL     1     -43.879  59.866 -52.126  1.00  0.00     0.280 HD
HETATM    6  C   UNL     1     -44.727  58.820 -53.721  1.00  0.00     0.235 C 
HETATM    7  C   UNL     1     -43.489  58.675 -54.595  1.00  0.00     0.035 C 
ENDROOT
BRANCH   1   8
HETATM    8  C   UNL     1     -43.205  56.137 -54.331  1.00  0.00     0.155 C 
BRANCH   8   9
HETATM    9  C   UNL     1     -42.237  54.985 -54.166  1.00  0.00    -0.029 A 
HETATM   10  C   UNL     1     -41.284  54.691 -55.153  1.00  0.00     0.011 A 
HETATM   11  C   UNL     1     -40.372  53.647 -54.973  1.00  0.00     0.024 A 
HETATM   12  C   UNL     1     -40.408  52.888 -53.805  1.00  0.00     0.034 A 
HETATM   13  C   UNL     1     -41.355  53.158 -52.821  1.00  0.00     0.024 A 
HETATM   14 CL   UNL     1     -39.278  51.614 -53.575  1.00  0.00    -0.084 Cl
HETATM   15  C   UNL     1     -42.269  54.198 -53.002  1.00  0.00     0.011 A 
ENDBRANCH   8   9
BRANCH   8  16
HETATM   16  O   UNL     1     -43.811  56.098 -55.616  1.00  0.00    -0.391 OA
HETATM   17  H   UNL     1     -43.125  55.880 -56.276  1.00  0.00     0.210 HD
ENDBRANCH   8  16
ENDBRANCH   1   8
BRANCH   4  18
HETATM   18  C   UNL     1     -45.581  59.074 -51.386  1.00  0.00     0.295 C 
BRANCH  18  19
HETATM   19  C   UNL     1     -45.311  59.859 -50.143  1.00  0.00     0.081 A 
HETATM   20  N   UNL     1     -45.948  59.535 -49.006  1.00  0.00    -0.178 NA
HETATM   21  N   UNL     1     -45.486  60.436 -48.111  1.00  0.00    -0.289 N 
HETATM   22  H   UNL     1     -45.804  60.382 -47.146  1.00  0.00     0.188 HD
HETATM   23  C   UNL     1     -44.630  61.344 -48.663  1.00  0.00     0.111 A 
HETATM   24  C   UNL     1     -44.486  60.994 -49.983  1.00  0.00     0.049 A 
ENDBRANCH  18  19
ENDBRANCH   4  18
TORSDOF 5
ENDMDL
MODEL 10
REMARK VINA RESULT:      -6.3     14.989     17.023
REMARK  5 active torsions:
REMARK  status: ('A' for Active; 'I' for Inactive)
REMARK    1  A    between atoms: C_2  and  C_3 
REMARK    2  A    between atoms: C_3  and  O_4 
REMARK    3  A    between atoms: C_3  and  C_5 
REMARK    4  A    between atoms: N_8  and  C_10 
REMARK    5  A    between atoms: C_10  and  C_11 
ROOT
HETATM    1  C   UNL     1     -35.628  40.821 -57.740  1.00  0.00     0.022 C 
HETATM    2  C   UNL     1     -35.806  39.651 -56.761  1.00  0.00     0.035 C 
HETATM    3  C   UNL     1     -36.597  40.055 -55.526  1.00  0.00     0.235 C 
HETATM    4  N   UNL     1     -35.937  41.229 -54.848  1.00  0.00    -0.066 N 
HETATM    5  H   UNL     1     -35.054  40.868 -54.449  1.00  0.00     0.280 HD
HETATM    6  C   UNL     1     -35.639  42.401 -55.741  1.00  0.00     0.235 C 
HETATM    7  C   UNL     1     -34.898  41.952 -56.993  1.00  0.00     0.035 C 
ENDROOT
BRANCH   1   8
HETATM    8  C   UNL     1     -36.963  41.301 -58.372  1.00  0.00     0.155 C 
BRANCH   8   9
HETATM    9  C   UNL     1     -37.582  40.309 -59.334  1.00  0.00    -0.029 A 
HETATM   10  C   UNL     1     -37.101  40.172 -60.645  1.00  0.00     0.011 A 
HETATM   11  C   UNL     1     -37.657  39.227 -61.512  1.00  0.00     0.024 A 
HETATM   12  C   UNL     1     -38.701  38.414 -61.075  1.00  0.00     0.034 A 
HETATM   13  C   UNL     1     -39.199  38.545 -59.781  1.00  0.00     0.024 A 
HETATM   14 CL   UNL     1     -39.376  37.241 -62.134  1.00  0.00    -0.084 Cl
HETATM   15  C   UNL     1     -38.646  39.492 -58.916  1.00  0.00     0.011 A 
ENDBRANCH   8   9
BRANCH   8  16
HETATM   16  O   UNL     1     -36.737  42.547 -59.019  1.00  0.00    -0.391 OA
HETATM   17  H   UNL     1     -37.043  42.476 -59.943  1.00  0.00     0.210 HD
ENDBRANCH   8  16
ENDBRANCH   1   8
BRANCH   4  18
HETATM   18  C   UNL     1     -36.704  41.665 -53.603  1.00  0.00     0.295 C 
BRANCH  18  19
HETATM   19  C   UNL     1     -36.023  41.240 -52.342  1.00  0.00     0.081 A 
HETATM   20  N   UNL     1     -36.695  40.499 -51.446  1.00  0.00    -0.178 NA
HETATM   21  N   UNL     1     -35.803  40.313 -50.449  1.00  0.00    -0.289 N 
HETATM   22  H   UNL     1     -36.069  39.747 -49.647  1.00  0.00     0.188 HD
HETATM   23  C   UNL     1     -34.620  40.957 -50.665  1.00  0.00     0.111 A 
HETATM   24  C   UNL     1     -34.725  41.564 -51.893  1.00  0.00     0.049 A 
ENDBRANCH  18  19
ENDBRANCH   4  18
TORSDOF 5
ENDMDL
