MODEL 1
REMARK VINA RESULT:      -8.6      0.000      0.000
REMARK  4 active torsions:
REMARK  status: ('A' for Active; 'I' for Inactive)
REMARK    1  A    between atoms: C_10  and  C_11 
REMARK    2  A    between atoms: N_14  and  C_16 
REMARK    3  A    between atoms: C_16  and  C_17 
REMARK    4  A    between atoms: C_18  and  C_19 
ROOT
HETATM    1  C   UNL     1     -40.483  53.533 -54.104  1.00  0.00    -0.036 A 
HETATM    2  C   UNL     1     -40.469  53.740 -52.720  1.00  0.00     0.013 A 
HETATM    3  C   UNL     1     -40.113  52.703 -51.850  1.00  0.00     0.023 A 
HETATM    4  C   UNL     1     -39.781  51.442 -52.354  1.00  0.00     0.044 A 
HETATM    5  C   UNL     1     -39.415  50.380 -51.465  1.00  0.00     0.099 C 
HETATM    6  N   UNL     1     -39.120  49.517 -50.748  1.00  0.00    -0.191 NA
HETATM    7  C   UNL     1     -39.811  51.222 -53.735  1.00  0.00     0.023 A 
HETATM    8  C   UNL     1     -40.165  52.260 -54.603  1.00  0.00     0.013 A 
ENDROOT
BRANCH   1   9
HETATM    9  C   UNL     1     -40.877  54.633 -54.995  1.00  0.00     0.009 C 
HETATM   10  C   UNL     1     -42.113  54.716 -55.516  1.00  0.00     0.001 C 
BRANCH  10  11
HETATM   11  C   UNL     1     -42.657  55.792 -56.397  1.00  0.00     0.262 C 
BRANCH  11  12
HETATM   12  N   UNL     1     -43.301  56.973 -55.697  1.00  0.00    -0.068 N 
HETATM   13  C   UNL     1     -44.087  56.478 -54.498  1.00  0.00     0.236 C 
HETATM   14  C   UNL     1     -44.680  57.636 -53.700  1.00  0.00     0.037 C 
HETATM   15  C   UNL     1     -43.607  58.656 -53.272  1.00  0.00     0.024 C 
HETATM   16  C   UNL     1     -42.976  59.165 -54.572  1.00  0.00     0.037 C 
HETATM   17  C   UNL     1     -42.291  58.042 -55.335  1.00  0.00     0.236 C 
HETATM   18  H   UNL     1     -43.968  57.383 -56.360  1.00  0.00     0.280 HD
BRANCH  15  19
HETATM   19  C   UNL     1     -42.610  58.091 -52.267  1.00  0.00    -0.024 A 
HETATM   20  C   UNL     1     -42.673  56.859 -51.514  1.00  0.00     0.018 A 
HETATM   21  C   UNL     1     -41.575  56.844 -50.659  1.00  0.00     0.138 A 
HETATM   22  C   UNL     1     -43.532  55.744 -51.424  1.00  0.00     0.017 A 
HETATM   23  N   UNL     1     -41.263  55.933 -49.722  1.00  0.00    -0.242 NA
HETATM   24  N   UNL     1     -40.805  57.933 -50.934  1.00  0.00    -0.350 N 
HETATM   25  C   UNL     1     -42.133  54.905 -49.665  1.00  0.00     0.119 A 
HETATM   26  C   UNL     1     -43.248  54.759 -50.474  1.00  0.00     0.020 A 
HETATM   27  H   UNL     1     -39.920  58.116 -50.479  1.00  0.00     0.166 HD
HETATM   28  C   UNL     1     -41.404  58.686 -51.908  1.00  0.00     0.098 A 
ENDBRANCH  15  19
ENDBRANCH  11  12
ENDBRANCH  10  11
ENDBRANCH   1   9
TORSDOF 4
ENDMDL
MODEL 2
REMARK VINA RESULT:      -8.3      1.520      4.617
REMARK  4 active torsions:
REMARK  status: ('A' for Active; 'I' for Inactive)
REMARK    1  A    between atoms: C_10  and  C_11 
REMARK    2  A    between atoms: N_14  and  C_16 
REMARK    3  A    between atoms: C_16  and  C_17 
REMARK    4  A    between atoms: C_18  and  C_19 
ROOT
HETATM    1  C   UNL     1     -40.746  54.312 -52.729  1.00  0.00    -0.036 A 
HETATM    2  C   UNL     1     -40.878  54.008 -54.088  1.00  0.00     0.013 A 
HETATM    3  C   UNL     1     -40.568  52.729 -54.563  1.00  0.00     0.023 A 
HETATM    4  C   UNL     1     -40.109  51.743 -53.685  1.00  0.00     0.044 A 
HETATM    5  C   UNL     1     -39.793  50.432 -54.170  1.00  0.00     0.099 C 
HETATM    6  N   UNL     1     -39.535  49.370 -54.559  1.00  0.00    -0.191 NA
HETATM    7  C   UNL     1     -39.957  52.045 -52.329  1.00  0.00     0.023 A 
HETATM    8  C   UNL     1     -40.269  53.323 -51.856  1.00  0.00     0.013 A 
ENDROOT
BRANCH   1   9
HETATM    9  C   UNL     1     -41.061  55.669 -52.258  1.00  0.00     0.009 C 
HETATM   10  C   UNL     1     -41.151  55.964 -50.951  1.00  0.00     0.001 C 
BRANCH  10  11
HETATM   11  C   UNL     1     -41.423  57.298 -50.336  1.00  0.00     0.262 C 
BRANCH  11  12
HETATM   12  N   UNL     1     -42.642  58.038 -50.849  1.00  0.00    -0.068 N 
HETATM   13  C   UNL     1     -42.232  58.953 -51.988  1.00  0.00     0.236 C 
HETATM   14  C   UNL     1     -43.439  59.654 -52.605  1.00  0.00     0.037 C 
HETATM   15  C   UNL     1     -44.520  58.656 -53.063  1.00  0.00     0.024 C 
HETATM   16  C   UNL     1     -44.931  57.883 -51.805  1.00  0.00     0.037 C 
HETATM   17  C   UNL     1     -43.764  57.095 -51.230  1.00  0.00     0.236 C 
HETATM   18  H   UNL     1     -42.976  58.628 -50.079  1.00  0.00     0.280 HD
BRANCH  15  19
HETATM   19  C   UNL     1     -44.070  57.776 -54.223  1.00  0.00    -0.024 A 
HETATM   20  C   UNL     1     -43.355  58.146 -55.424  1.00  0.00     0.018 A 
HETATM   21  C   UNL     1     -43.271  57.006 -56.219  1.00  0.00     0.138 A 
HETATM   22  C   UNL     1     -42.773  59.311 -55.964  1.00  0.00     0.017 A 
HETATM   23  N   UNL     1     -42.758  56.891 -57.455  1.00  0.00    -0.242 NA
HETATM   24  N   UNL     1     -43.791  55.959 -55.520  1.00  0.00    -0.350 N 
HETATM   25  C   UNL     1     -42.240  58.041 -57.929  1.00  0.00     0.119 A 
HETATM   26  C   UNL     1     -42.214  59.245 -57.243  1.00  0.00     0.020 A 
HETATM   27  H   UNL     1     -43.795  55.009 -55.866  1.00  0.00     0.166 HD
HETATM   28  C   UNL     1     -44.263  56.401 -54.313  1.00  0.00     0.098 A 
ENDBRANCH  15  19
ENDBRANCH  11  12
ENDBRANCH  10  11
ENDBRANCH   1   9
TORSDOF 4
ENDMDL
MODEL 3
REMARK VINA RESULT:      -8.0      2.242      6.196
REMARK  4 active torsions:
REMARK  status: ('A' for Active; 'I' for Inactive)
REMARK    1  A    between atoms: C_10  and  C_11 
REMARK    2  A    between atoms: N_14  and  C_16 
REMARK    3  A    between atoms: C_16  and  C_17 
REMARK    4  A    between atoms: C_18  and  C_19 
ROOT
HETATM    1  C   UNL     1     -42.568  57.465 -56.414  1.00  0.00    -0.036 A 
HETATM    2  C   UNL     1     -42.754  56.087 -56.570  1.00  0.00     0.013 A 
HETATM    3  C   UNL     1     -43.221  55.567 -57.783  1.00  0.00     0.023 A 
HETATM    4  C   UNL     1     -43.519  56.421 -58.849  1.00  0.00     0.044 A 
HETATM    5  C   UNL     1     -43.995  55.890 -60.091  1.00  0.00     0.099 C 
HETATM    6  N   UNL     1     -44.382  55.464 -61.098  1.00  0.00    -0.191 NA
HETATM    7  C   UNL     1     -43.353  57.800 -58.693  1.00  0.00     0.023 A 
HETATM    8  C   UNL     1     -42.885  58.319 -57.481  1.00  0.00     0.013 A 
ENDROOT
BRANCH   1   9
HETATM    9  C   UNL     1     -42.094  57.988 -55.124  1.00  0.00     0.009 C 
HETATM   10  C   UNL     1     -42.945  58.380 -54.161  1.00  0.00     0.001 C 
BRANCH  10  11
HETATM   11  C   UNL     1     -42.604  58.889 -52.799  1.00  0.00     0.262 C 
BRANCH  11  12
HETATM   12  N   UNL     1     -42.612  57.868 -51.678  1.00  0.00    -0.068 N 
HETATM   13  C   UNL     1     -43.745  56.885 -51.902  1.00  0.00     0.236 C 
HETATM   14  C   UNL     1     -43.741  55.778 -50.852  1.00  0.00     0.037 C 
HETATM   15  C   UNL     1     -42.385  55.047 -50.782  1.00  0.00     0.024 C 
HETATM   16  C   UNL     1     -41.352  56.124 -50.434  1.00  0.00     0.037 C 
HETATM   17  C   UNL     1     -41.269  57.187 -51.518  1.00  0.00     0.236 C 
HETATM   18  H   UNL     1     -42.808  58.381 -50.811  1.00  0.00     0.280 HD
BRANCH  15  19
HETATM   19  C   UNL     1     -42.066  54.254 -52.043  1.00  0.00    -0.024 A 
HETATM   20  C   UNL     1     -41.070  53.226 -52.246  1.00  0.00     0.018 A 
HETATM   21  C   UNL     1     -41.103  52.884 -53.595  1.00  0.00     0.138 A 
HETATM   22  C   UNL     1     -40.118  52.539 -51.465  1.00  0.00     0.017 A 
HETATM   23  N   UNL     1     -40.306  52.026 -54.255  1.00  0.00    -0.242 NA
HETATM   24  N   UNL     1     -42.128  53.561 -54.183  1.00  0.00    -0.350 N 
HETATM   25  C   UNL     1     -39.400  51.420 -53.462  1.00  0.00     0.119 A 
HETATM   26  C   UNL     1     -39.270  51.626 -52.099  1.00  0.00     0.020 A 
HETATM   27  H   UNL     1     -42.389  53.440 -55.152  1.00  0.00     0.166 HD
HETATM   28  C   UNL     1     -42.726  54.379 -53.262  1.00  0.00     0.098 A 
ENDBRANCH  15  19
ENDBRANCH  11  12
ENDBRANCH  10  11
ENDBRANCH   1   9
TORSDOF 4
ENDMDL
MODEL 4
REMARK VINA RESULT:      -7.9      2.631      5.558
REMARK  4 active torsions:
REMARK  status: ('A' for Active; 'I' for Inactive)
REMARK    1  A    between atoms: C_10  and  C_11 
REMARK    2  A    between atoms: N_14  and  C_16 
REMARK    3  A    between atoms: C_16  and  C_17 
REMARK    4  A    between atoms: C_18  and  C_19 
ROOT
HETATM    1  C   UNL     1     -40.804  54.544 -53.004  1.00  0.00    -0.036 A 
HETATM    2  C   UNL     1     -40.713  54.194 -54.356  1.00  0.00     0.013 A 
HETATM    3  C   UNL     1     -40.385  52.886 -54.730  1.00  0.00     0.023 A 
HETATM    4  C   UNL     1     -40.132  51.916 -53.755  1.00  0.00     0.044 A 
HETATM    5  C   UNL     1     -39.798  50.576 -54.137  1.00  0.00     0.099 C 
HETATM    6  N   UNL     1     -39.527  49.490 -54.441  1.00  0.00    -0.191 NA
HETATM    7  C   UNL     1     -40.203  52.263 -52.403  1.00  0.00     0.023 A 
HETATM    8  C   UNL     1     -40.533  53.571 -52.031  1.00  0.00     0.013 A 
ENDROOT
BRANCH   1   9
HETATM    9  C   UNL     1     -41.132  55.929 -52.638  1.00  0.00     0.009 C 
HETATM   10  C   UNL     1     -41.693  56.782 -53.512  1.00  0.00     0.001 C 
BRANCH  10  11
HETATM   11  C   UNL     1     -42.111  58.194 -53.264  1.00  0.00     0.262 C 
BRANCH  11  12
HETATM   12  N   UNL     1     -43.337  58.673 -54.017  1.00  0.00    -0.068 N 
HETATM   13  C   UNL     1     -42.912  59.639 -55.107  1.00  0.00     0.236 C 
HETATM   14  C   UNL     1     -44.099  60.081 -55.957  1.00  0.00     0.037 C 
HETATM   15  C   UNL     1     -44.866  58.883 -56.552  1.00  0.00     0.024 C 
HETATM   16  C   UNL     1     -45.341  58.058 -55.352  1.00  0.00     0.037 C 
HETATM   17  C   UNL     1     -44.168  57.523 -54.545  1.00  0.00     0.236 C 
HETATM   18  H   UNL     1     -43.913  59.193 -53.345  1.00  0.00     0.280 HD
BRANCH  15  19
HETATM   19  C   UNL     1     -44.052  58.097 -57.573  1.00  0.00    -0.024 A 
HETATM   20  C   UNL     1     -44.514  57.242 -58.643  1.00  0.00     0.018 A 
HETATM   21  C   UNL     1     -43.386  56.674 -59.230  1.00  0.00     0.138 A 
HETATM   22  C   UNL     1     -45.751  56.851 -59.195  1.00  0.00     0.017 A 
HETATM   23  N   UNL     1     -43.331  55.760 -60.213  1.00  0.00    -0.242 NA
HETATM   24  N   UNL     1     -42.282  57.222 -58.650  1.00  0.00    -0.350 N 
HETATM   25  C   UNL     1     -44.544  55.405 -60.682  1.00  0.00     0.119 A 
HETATM   26  C   UNL     1     -45.752  55.910 -60.229  1.00  0.00     0.020 A 
HETATM   27  H   UNL     1     -41.338  57.008 -58.944  1.00  0.00     0.166 HD
HETATM   28  C   UNL     1     -42.664  58.089 -57.662  1.00  0.00     0.098 A 
ENDBRANCH  15  19
ENDBRANCH  11  12
ENDBRANCH  10  11
ENDBRANCH   1   9
TORSDOF 4
ENDMDL
MODEL 5
REMARK VINA RESULT:      -7.9      3.802      6.799
REMARK  4 active torsions:
REMARK  status: ('A' for Active; 'I' for Inactive)
REMARK    1  A    between atoms: C_10  and  C_11 
REMARK    2  A    between atoms: N_14  and  C_16 
REMARK    3  A    between atoms: C_16  and  C_17 
REMARK    4  A    between atoms: C_18  and  C_19 
ROOT
HETATM    1  C   UNL     1     -40.549  53.951 -54.120  1.00  0.00    -0.036 A 
HETATM    2  C   UNL     1     -40.579  54.132 -52.733  1.00  0.00     0.013 A 
HETATM    3  C   UNL     1     -40.261  53.076 -51.871  1.00  0.00     0.023 A 
HETATM    4  C   UNL     1     -39.922  51.822 -52.388  1.00  0.00     0.044 A 
HETATM    5  C   UNL     1     -39.595  50.740 -51.507  1.00  0.00     0.099 C 
HETATM    6  N   UNL     1     -39.330  49.861 -50.798  1.00  0.00    -0.191 NA
HETATM    7  C   UNL     1     -39.908  51.628 -53.772  1.00  0.00     0.023 A 
HETATM    8  C   UNL     1     -40.224  52.685 -54.632  1.00  0.00     0.013 A 
ENDROOT
BRANCH   1   9
HETATM    9  C   UNL     1     -40.905  55.071 -55.002  1.00  0.00     0.009 C 
HETATM   10  C   UNL     1     -42.147  55.581 -55.036  1.00  0.00     0.001 C 
BRANCH  10  11
HETATM   11  C   UNL     1     -42.634  56.735 -55.849  1.00  0.00     0.262 C 
BRANCH  11  12
HETATM   12  N   UNL     1     -42.255  56.730 -57.318  1.00  0.00    -0.068 N 
HETATM   13  C   UNL     1     -43.098  55.704 -58.050  1.00  0.00     0.236 C 
HETATM   14  C   UNL     1     -42.824  55.723 -59.551  1.00  0.00     0.037 C 
HETATM   15  C   UNL     1     -43.014  57.127 -60.160  1.00  0.00     0.024 C 
HETATM   16  C   UNL     1     -42.027  58.036 -59.420  1.00  0.00     0.037 C 
HETATM   17  C   UNL     1     -42.344  58.110 -57.934  1.00  0.00     0.236 C 
HETATM   18  H   UNL     1     -41.276  56.426 -57.370  1.00  0.00     0.280 HD
BRANCH  15  19
HETATM   19  C   UNL     1     -44.460  57.606 -60.122  1.00  0.00    -0.024 A 
HETATM   20  C   UNL     1     -44.983  58.940 -60.312  1.00  0.00     0.018 A 
HETATM   21  C   UNL     1     -46.355  58.880 -60.080  1.00  0.00     0.138 A 
HETATM   22  C   UNL     1     -44.475  60.215 -60.638  1.00  0.00     0.017 A 
HETATM   23  N   UNL     1     -47.241  59.889 -60.070  1.00  0.00    -0.242 NA
HETATM   24  N   UNL     1     -46.695  57.577 -59.873  1.00  0.00    -0.350 N 
HETATM   25  C   UNL     1     -46.694  61.085 -60.363  1.00  0.00     0.119 A 
HETATM   26  C   UNL     1     -45.357  61.299 -60.655  1.00  0.00     0.020 A 
HETATM   27  H   UNL     1     -47.648  57.269 -59.734  1.00  0.00     0.166 HD
HETATM   28  C   UNL     1     -45.571  56.797 -59.908  1.00  0.00     0.098 A 
ENDBRANCH  15  19
ENDBRANCH  11  12
ENDBRANCH  10  11
ENDBRANCH   1   9
TORSDOF 4
ENDMDL
MODEL 6
REMARK VINA RESULT:      -7.9      3.776      7.473
REMARK  4 active torsions:
REMARK  status: ('A' for Active; 'I' for Inactive)
REMARK    1  A    between atoms: C_10  and  C_11 
REMARK    2  A    between atoms: N_14  and  C_16 
REMARK    3  A    between atoms: C_16  and  C_17 
REMARK    4  A    between atoms: C_18  and  C_19 
ROOT
HETATM    1  C   UNL     1     -45.252  57.156 -58.930  1.00  0.00    -0.036 A 
HETATM    2  C   UNL     1     -46.187  58.161 -59.201  1.00  0.00     0.013 A 
HETATM    3  C   UNL     1     -47.126  58.000 -60.227  1.00  0.00     0.023 A 
HETATM    4  C   UNL     1     -47.131  56.838 -61.003  1.00  0.00     0.044 A 
HETATM    5  C   UNL     1     -48.092  56.671 -62.052  1.00  0.00     0.099 C 
HETATM    6  N   UNL     1     -48.868  56.533 -62.903  1.00  0.00    -0.191 NA
HETATM    7  C   UNL     1     -46.187  55.838 -60.751  1.00  0.00     0.023 A 
HETATM    8  C   UNL     1     -45.251  55.999 -59.724  1.00  0.00     0.013 A 
ENDROOT
BRANCH   1   9
HETATM    9  C   UNL     1     -44.266  57.357 -57.860  1.00  0.00     0.009 C 
HETATM   10  C   UNL     1     -43.473  56.362 -57.428  1.00  0.00     0.001 C 
BRANCH  10  11
HETATM   11  C   UNL     1     -42.408  56.435 -56.384  1.00  0.00     0.262 C 
BRANCH  11  12
HETATM   12  N   UNL     1     -41.787  55.117 -55.964  1.00  0.00    -0.068 N 
HETATM   13  C   UNL     1     -40.651  55.383 -54.994  1.00  0.00     0.236 C 
HETATM   14  C   UNL     1     -40.050  54.084 -54.466  1.00  0.00     0.037 C 
HETATM   15  C   UNL     1     -41.114  53.168 -53.829  1.00  0.00     0.024 C 
HETATM   16  C   UNL     1     -42.129  52.879 -54.939  1.00  0.00     0.037 C 
HETATM   17  C   UNL     1     -42.815  54.152 -55.412  1.00  0.00     0.236 C 
HETATM   18  H   UNL     1     -41.384  54.696 -56.809  1.00  0.00     0.280 HD
BRANCH  15  19
HETATM   19  C   UNL     1     -41.719  53.747 -52.557  1.00  0.00    -0.024 A 
HETATM   20  C   UNL     1     -41.097  53.974 -51.272  1.00  0.00     0.018 A 
HETATM   21  C   UNL     1     -42.091  54.423 -50.408  1.00  0.00     0.138 A 
HETATM   22  C   UNL     1     -39.811  53.842 -50.707  1.00  0.00     0.017 A 
HETATM   23  N   UNL     1     -41.993  54.691 -49.095  1.00  0.00    -0.242 NA
HETATM   24  N   UNL     1     -43.239  54.584 -51.124  1.00  0.00    -0.350 N 
HETATM   25  C   UNL     1     -40.748  54.522 -48.606  1.00  0.00     0.119 A 
HETATM   26  C   UNL     1     -39.649  54.119 -49.347  1.00  0.00     0.020 A 
HETATM   27  H   UNL     1     -44.093  54.953 -50.727  1.00  0.00     0.166 HD
HETATM   28  C   UNL     1     -43.029  54.195 -52.420  1.00  0.00     0.098 A 
ENDBRANCH  15  19
ENDBRANCH  11  12
ENDBRANCH  10  11
ENDBRANCH   1   9
TORSDOF 4
ENDMDL
MODEL 7
REMARK VINA RESULT:      -7.8      2.185      6.562
REMARK  4 active torsions:
REMARK  status: ('A' for Active; 'I' for Inactive)
REMARK    1  A    between atoms: C_10  and  C_11 
REMARK    2  A    between atoms: N_14  and  C_16 
REMARK    3  A    between atoms: C_16  and  C_17 
REMARK    4  A    between atoms: C_18  and  C_19 
ROOT
HETATM    1  C   UNL     1     -42.236  59.073 -55.455  1.00  0.00    -0.036 A 
HETATM    2  C   UNL     1     -42.446  57.747 -55.847  1.00  0.00     0.013 A 
HETATM    3  C   UNL     1     -42.394  57.389 -57.199  1.00  0.00     0.023 A 
HETATM    4  C   UNL     1     -42.145  58.358 -58.176  1.00  0.00     0.044 A 
HETATM    5  C   UNL     1     -42.090  57.993 -59.560  1.00  0.00     0.099 C 
HETATM    6  N   UNL     1     -42.046  57.702 -60.682  1.00  0.00    -0.191 NA
HETATM    7  C   UNL     1     -41.953  59.688 -57.793  1.00  0.00     0.023 A 
HETATM    8  C   UNL     1     -42.003  60.044 -56.441  1.00  0.00     0.013 A 
ENDROOT
BRANCH   1   9
HETATM    9  C   UNL     1     -42.314  59.426 -54.030  1.00  0.00     0.009 C 
HETATM   10  C   UNL     1     -41.943  58.568 -53.065  1.00  0.00     0.001 C 
BRANCH  10  11
HETATM   11  C   UNL     1     -41.932  58.807 -51.591  1.00  0.00     0.262 C 
BRANCH  11  12
HETATM   12  N   UNL     1     -42.271  57.617 -50.714  1.00  0.00    -0.068 N 
HETATM   13  C   UNL     1     -43.485  56.906 -51.280  1.00  0.00     0.236 C 
HETATM   14  C   UNL     1     -43.814  55.644 -50.488  1.00  0.00     0.037 C 
HETATM   15  C   UNL     1     -42.609  54.686 -50.395  1.00  0.00     0.024 C 
HETATM   16  C   UNL     1     -41.499  55.483 -49.702  1.00  0.00     0.037 C 
HETATM   17  C   UNL     1     -41.086  56.694 -50.525  1.00  0.00     0.236 C 
HETATM   18  H   UNL     1     -42.527  57.991 -49.793  1.00  0.00     0.280 HD
BRANCH  15  19
HETATM   19  C   UNL     1     -42.211  54.091 -51.740  1.00  0.00    -0.024 A 
HETATM   20  C   UNL     1     -41.164  53.141 -52.042  1.00  0.00     0.018 A 
HETATM   21  C   UNL     1     -41.134  52.991 -53.426  1.00  0.00     0.138 A 
HETATM   22  C   UNL     1     -40.211  52.387 -51.326  1.00  0.00     0.017 A 
HETATM   23  N   UNL     1     -40.277  52.266 -54.165  1.00  0.00    -0.242 NA
HETATM   24  N   UNL     1     -42.166  53.704 -53.956  1.00  0.00    -0.350 N 
HETATM   25  C   UNL     1     -39.374  51.589 -53.428  1.00  0.00     0.119 A 
HETATM   26  C   UNL     1     -39.302  51.606 -52.045  1.00  0.00     0.020 A 
HETATM   27  H   UNL     1     -42.386  53.711 -54.943  1.00  0.00     0.166 HD
HETATM   28  C   UNL     1     -42.832  54.361 -52.955  1.00  0.00     0.098 A 
ENDBRANCH  15  19
ENDBRANCH  11  12
ENDBRANCH  10  11
ENDBRANCH   1   9
TORSDOF 4
ENDMDL
MODEL 8
REMARK VINA RESULT:      -7.5     14.758     17.613
REMARK  4 active torsions:
REMARK  status: ('A' for Active; 'I' for Inactive)
REMARK    1  A    between atoms: C_10  and  C_11 
REMARK    2  A    between atoms: N_14  and  C_16 
REMARK    3  A    between atoms: C_16  and  C_17 
REMARK    4  A    between atoms: C_18  and  C_19 
ROOT
HETATM    1  C   UNL     1     -34.765  39.792 -50.627  1.00  0.00    -0.036 A 
HETATM    2  C   UNL     1     -33.672  40.634 -50.860  1.00  0.00     0.013 A 
HETATM    3  C   UNL     1     -32.521  40.541 -50.068  1.00  0.00     0.023 A 
HETATM    4  C   UNL     1     -32.456  39.613 -49.025  1.00  0.00     0.044 A 
HETATM    5  C   UNL     1     -31.278  39.516 -48.215  1.00  0.00     0.099 C 
HETATM    6  N   UNL     1     -30.328  39.434 -47.556  1.00  0.00    -0.191 NA
HETATM    7  C   UNL     1     -33.551  38.781 -48.774  1.00  0.00     0.023 A 
HETATM    8  C   UNL     1     -34.700  38.874 -49.567  1.00  0.00     0.013 A 
ENDROOT
BRANCH   1   9
HETATM    9  C   UNL     1     -35.968  39.922 -51.460  1.00  0.00     0.009 C 
HETATM   10  C   UNL     1     -36.242  41.047 -52.140  1.00  0.00     0.001 C 
BRANCH  10  11
HETATM   11  C   UNL     1     -37.400  41.301 -53.050  1.00  0.00     0.262 C 
BRANCH  11  12
HETATM   12  N   UNL     1     -37.082  41.979 -54.369  1.00  0.00    -0.068 N 
HETATM   13  C   UNL     1     -35.577  42.087 -54.528  1.00  0.00     0.236 C 
HETATM   14  C   UNL     1     -35.199  42.677 -55.883  1.00  0.00     0.037 C 
HETATM   15  C   UNL     1     -35.821  41.891 -57.054  1.00  0.00     0.024 C 
HETATM   16  C   UNL     1     -37.336  41.960 -56.840  1.00  0.00     0.037 C 
HETATM   17  C   UNL     1     -37.747  41.286 -55.540  1.00  0.00     0.236 C 
HETATM   18  H   UNL     1     -37.460  42.931 -54.311  1.00  0.00     0.280 HD
BRANCH  15  19
HETATM   19  C   UNL     1     -35.267  40.477 -57.187  1.00  0.00    -0.024 A 
HETATM   20  C   UNL     1     -33.932  39.993 -56.922  1.00  0.00     0.018 A 
HETATM   21  C   UNL     1     -33.901  38.651 -57.293  1.00  0.00     0.138 A 
HETATM   22  C   UNL     1     -32.719  40.517 -56.427  1.00  0.00     0.017 A 
HETATM   23  N   UNL     1     -32.851  37.812 -57.292  1.00  0.00    -0.242 NA
HETATM   24  N   UNL     1     -35.160  38.280 -57.656  1.00  0.00    -0.350 N 
HETATM   25  C   UNL     1     -31.716  38.376 -56.834  1.00  0.00     0.119 A 
HETATM   26  C   UNL     1     -31.598  39.684 -56.393  1.00  0.00     0.020 A 
HETATM   27  H   UNL     1     -35.406  37.334 -57.916  1.00  0.00     0.166 HD
HETATM   28  C   UNL     1     -35.997  39.361 -57.585  1.00  0.00     0.098 A 
ENDBRANCH  15  19
ENDBRANCH  11  12
ENDBRANCH  10  11
ENDBRANCH   1   9
TORSDOF 4
ENDMDL
MODEL 9
REMARK VINA RESULT:      -7.3      3.038      6.516
REMARK  4 active torsions:
REMARK  status: ('A' for Active; 'I' for Inactive)
REMARK    1  A    between atoms: C_10  and  C_11 
REMARK    2  A    between atoms: N_14  and  C_16 
REMARK    3  A    between atoms: C_16  and  C_17 
REMARK    4  A    between atoms: C_18  and  C_19 
ROOT
HETATM    1  C   UNL     1     -45.213  57.955 -57.638  1.00  0.00    -0.036 A 
HETATM    2  C   UNL     1     -44.041  57.258 -57.953  1.00  0.00     0.013 A 
HETATM    3  C   UNL     1     -43.990  56.424 -59.076  1.00  0.00     0.023 A 
HETATM    4  C   UNL     1     -45.117  56.267 -59.889  1.00  0.00     0.044 A 
HETATM    5  C   UNL     1     -45.066  55.415 -61.040  1.00  0.00     0.099 C 
HETATM    6  N   UNL     1     -45.030  54.725 -61.971  1.00  0.00    -0.191 NA
HETATM    7  C   UNL     1     -46.297  56.945 -59.570  1.00  0.00     0.023 A 
HETATM    8  C   UNL     1     -46.345  57.780 -58.449  1.00  0.00     0.013 A 
ENDROOT
BRANCH   1   9
HETATM    9  C   UNL     1     -45.245  58.810 -56.444  1.00  0.00     0.009 C 
HETATM   10  C   UNL     1     -45.004  58.323 -55.215  1.00  0.00     0.001 C 
BRANCH  10  11
HETATM   11  C   UNL     1     -44.965  59.080 -53.928  1.00  0.00     0.262 C 
BRANCH  11  12
HETATM   12  N   UNL     1     -43.607  59.212 -53.266  1.00  0.00    -0.068 N 
HETATM   13  C   UNL     1     -43.687  58.685 -51.847  1.00  0.00     0.236 C 
HETATM   14  C   UNL     1     -42.323  58.707 -51.164  1.00  0.00     0.037 C 
HETATM   15  C   UNL     1     -41.254  57.947 -51.975  1.00  0.00     0.024 C 
HETATM   16  C   UNL     1     -41.188  58.650 -53.334  1.00  0.00     0.037 C 
HETATM   17  C   UNL     1     -42.512  58.552 -54.077  1.00  0.00     0.236 C 
HETATM   18  H   UNL     1     -43.399  60.216 -53.216  1.00  0.00     0.280 HD
BRANCH  15  19
HETATM   19  C   UNL     1     -41.516  56.448 -52.053  1.00  0.00    -0.024 A 
HETATM   20  C   UNL     1     -41.133  55.508 -53.083  1.00  0.00     0.018 A 
HETATM   21  C   UNL     1     -41.693  54.279 -52.746  1.00  0.00     0.138 A 
HETATM   22  C   UNL     1     -40.392  55.533 -54.283  1.00  0.00     0.017 A 
HETATM   23  N   UNL     1     -41.665  53.133 -53.446  1.00  0.00    -0.242 NA
HETATM   24  N   UNL     1     -42.289  54.401 -51.528  1.00  0.00    -0.350 N 
HETATM   25  C   UNL     1     -40.965  53.224 -54.595  1.00  0.00     0.119 A 
HETATM   26  C   UNL     1     -40.320  54.364 -55.046  1.00  0.00     0.020 A 
HETATM   27  H   UNL     1     -42.722  53.627 -51.042  1.00  0.00     0.166 HD
HETATM   28  C   UNL     1     -42.180  55.694 -51.090  1.00  0.00     0.098 A 
ENDBRANCH  15  19
ENDBRANCH  11  12
ENDBRANCH  10  11
ENDBRANCH   1   9
TORSDOF 4
ENDMDL
MODEL 10
REMARK VINA RESULT:      -7.1     14.842     17.986
REMARK  4 active torsions:
REMARK  status: ('A' for Active; 'I' for Inactive)
REMARK    1  A    between atoms: C_10  and  C_11 
REMARK    2  A    between atoms: N_14  and  C_16 
REMARK    3  A    between atoms: C_16  and  C_17 
REMARK    4  A    between atoms: C_18  and  C_19 
ROOT
HETATM    1  C   UNL     1     -31.152  38.189 -54.561  1.00  0.00    -0.036 A 
HETATM    2  C   UNL     1     -30.248  37.148 -54.800  1.00  0.00     0.013 A 
HETATM    3  C   UNL     1     -29.362  37.210 -55.881  1.00  0.00     0.023 A 
HETATM    4  C   UNL     1     -29.379  38.309 -56.745  1.00  0.00     0.044 A 
HETATM    5  C   UNL     1     -28.471  38.375 -57.851  1.00  0.00     0.099 C 
HETATM    6  N   UNL     1     -27.739  38.431 -58.749  1.00  0.00    -0.191 NA
HETATM    7  C   UNL     1     -30.292  39.344 -56.524  1.00  0.00     0.023 A 
HETATM    8  C   UNL     1     -31.175  39.282 -55.441  1.00  0.00     0.013 A 
ENDROOT
BRANCH   1   9
HETATM    9  C   UNL     1     -32.084  38.091 -53.429  1.00  0.00     0.009 C 
HETATM   10  C   UNL     1     -33.307  38.646 -53.467  1.00  0.00     0.001 C 
BRANCH  10  11
HETATM   11  C   UNL     1     -34.364  38.590 -52.413  1.00  0.00     0.262 C 
BRANCH  11  12
HETATM   12  N   UNL     1     -35.315  39.769 -52.351  1.00  0.00    -0.068 N 
HETATM   13  C   UNL     1     -34.555  41.044 -52.668  1.00  0.00     0.236 C 
HETATM   14  C   UNL     1     -35.485  42.253 -52.712  1.00  0.00     0.037 C 
HETATM   15  C   UNL     1     -36.655  42.051 -53.695  1.00  0.00     0.024 C 
HETATM   16  C   UNL     1     -37.406  40.812 -53.197  1.00  0.00     0.037 C 
HETATM   17  C   UNL     1     -36.525  39.572 -53.239  1.00  0.00     0.236 C 
HETATM   18  H   UNL     1     -35.645  39.834 -51.382  1.00  0.00     0.280 HD
BRANCH  15  19
HETATM   19  C   UNL     1     -36.209  41.973 -55.150  1.00  0.00    -0.024 A 
HETATM   20  C   UNL     1     -36.917  41.444 -56.294  1.00  0.00     0.018 A 
HETATM   21  C   UNL     1     -36.048  41.507 -57.380  1.00  0.00     0.138 A 
HETATM   22  C   UNL     1     -38.188  40.895 -56.561  1.00  0.00     0.017 A 
HETATM   23  N   UNL     1     -36.247  41.060 -58.631  1.00  0.00    -0.242 NA
HETATM   24  N   UNL     1     -34.910  42.141 -56.980  1.00  0.00    -0.350 N 
HETATM   25  C   UNL     1     -37.468  40.523 -58.820  1.00  0.00     0.119 A 
HETATM   26  C   UNL     1     -38.453  40.425 -57.850  1.00  0.00     0.020 A 
HETATM   27  H   UNL     1     -34.146  42.356 -57.606  1.00  0.00     0.166 HD
HETATM   28  C   UNL     1     -34.996  42.440 -55.646  1.00  0.00     0.098 A 
ENDBRANCH  15  19
ENDBRANCH  11  12
ENDBRANCH  10  11
ENDBRANCH   1   9
TORSDOF 4
ENDMDL
