MODEL 1
REMARK VINA RESULT:      -8.3      0.000      0.000
REMARK  3 active torsions:
REMARK  status: ('A' for Active; 'I' for Inactive)
REMARK    1  A    between atoms: C_5  and  N_6 
REMARK       I    between atoms: N_6  and  C_7 
REMARK    2  A    between atoms: C_7  and  C_8 
REMARK    3  A    between atoms: C_8  and  C_9 
ROOT
HETATM    1  C   UNL     1     -42.837  56.223 -51.773  1.00  0.00     0.286 C 
HETATM    2  N   UNL     1     -41.449  56.842 -51.861  1.00  0.00    -0.056 N 
HETATM    3  H   UNL     1     -41.079  56.845 -50.886  1.00  0.00     0.278 HD
HETATM    4  H   UNL     1     -40.817  56.241 -52.402  1.00  0.00     0.278 HD
HETATM    5  C   UNL     1     -41.488  58.243 -52.418  1.00  0.00     0.209 C 
HETATM    6  C   UNL     1     -42.386  59.126 -51.512  1.00  0.00     0.115 C 
HETATM    7  N   UNL     1     -43.680  58.498 -51.233  1.00  0.00    -0.353 N 
HETATM    8  C   UNL     1     -43.865  57.144 -51.082  1.00  0.00     0.249 C 
HETATM    9  O   UNL     1     -44.865  56.719 -50.515  1.00  0.00    -0.271 OA
HETATM   10  C   UNL     1     -40.062  58.776 -52.552  1.00  0.00     0.035 C 
HETATM   11  C   UNL     1     -39.424  59.134 -51.213  1.00  0.00     0.002 C 
HETATM   12  C   UNL     1     -40.308  60.083 -50.413  1.00  0.00     0.002 C 
HETATM   13  C   UNL     1     -41.698  59.499 -50.191  1.00  0.00     0.027 C 
HETATM   14  H   UNL     1     -44.393  59.058 -50.770  1.00  0.00     0.163 HD
ENDROOT
BRANCH   1  15
HETATM   15  C   UNL     1     -42.794  54.832 -51.128  1.00  0.00     0.146 C 
BRANCH  15  16
HETATM   16  C   UNL     1     -41.578  54.680 -50.251  1.00  0.00     0.224 C 
HETATM   17  N   UNL     1     -40.600  53.776 -50.513  1.00  0.00    -0.327 N 
HETATM   18  H   UNL     1     -39.922  53.725 -49.756  1.00  0.00     0.169 HD
HETATM   19  O   UNL     1     -41.460  55.435 -49.275  1.00  0.00    -0.273 OA
BRANCH  17  20
HETATM   20  C   UNL     1     -40.355  52.892 -51.583  1.00  0.00     0.034 A 
HETATM   21  C   UNL     1     -40.497  53.197 -52.936  1.00  0.00     0.030 A 
HETATM   22  C   UNL     1     -40.221  52.236 -53.918  1.00  0.00     0.009 A 
HETATM   23  C   UNL     1     -39.796  50.952 -53.567  1.00  0.00    -0.062 A 
HETATM   24  C   UNL     1     -39.480  49.941 -54.628  1.00  0.00     0.048 C 
HETATM   25  C   UNL     1     -39.613  50.654 -52.215  1.00  0.00     0.009 A 
HETATM   26  C   UNL     1     -39.889  51.615 -51.237  1.00  0.00     0.030 A 
ENDBRANCH  17  20
ENDBRANCH  15  16
ENDBRANCH   1  15
TORSDOF 3
ENDMDL
MODEL 2
REMARK VINA RESULT:      -8.2      2.241      2.864
REMARK  3 active torsions:
REMARK  status: ('A' for Active; 'I' for Inactive)
REMARK    1  A    between atoms: C_5  and  N_6 
REMARK       I    between atoms: N_6  and  C_7 
REMARK    2  A    between atoms: C_7  and  C_8 
REMARK    3  A    between atoms: C_8  and  C_9 
ROOT
HETATM    1  C   UNL     1     -43.433  55.591 -53.260  1.00  0.00     0.286 C 
HETATM    2  N   UNL     1     -42.555  56.816 -53.482  1.00  0.00    -0.056 N 
HETATM    3  H   UNL     1     -41.572  56.472 -53.426  1.00  0.00     0.278 HD
HETATM    4  H   UNL     1     -42.675  57.180 -54.434  1.00  0.00     0.278 HD
HETATM    5  C   UNL     1     -42.803  57.885 -52.447  1.00  0.00     0.209 C 
HETATM    6  C   UNL     1     -42.523  57.302 -51.037  1.00  0.00     0.115 C 
HETATM    7  N   UNL     1     -43.195  56.019 -50.823  1.00  0.00    -0.353 N 
HETATM    8  C   UNL     1     -43.392  55.077 -51.804  1.00  0.00     0.249 C 
HETATM    9  O   UNL     1     -43.631  53.913 -51.503  1.00  0.00    -0.271 OA
HETATM   10  C   UNL     1     -41.952  59.111 -52.770  1.00  0.00     0.035 C 
HETATM   11  C   UNL     1     -40.468  58.913 -52.470  1.00  0.00     0.002 C 
HETATM   12  C   UNL     1     -40.252  58.437 -51.039  1.00  0.00     0.002 C 
HETATM   13  C   UNL     1     -41.021  57.152 -50.753  1.00  0.00     0.027 C 
HETATM   14  H   UNL     1     -43.191  55.629 -49.882  1.00  0.00     0.163 HD
ENDROOT
BRANCH   1  15
HETATM   15  C   UNL     1     -43.112  54.479 -54.266  1.00  0.00     0.146 C 
BRANCH  15  16
HETATM   16  C   UNL     1     -41.802  54.741 -54.964  1.00  0.00     0.224 C 
HETATM   17  N   UNL     1     -40.643  54.147 -54.583  1.00  0.00    -0.327 N 
HETATM   18  H   UNL     1     -39.843  54.530 -55.079  1.00  0.00     0.169 HD
HETATM   19  O   UNL     1     -41.800  55.505 -55.939  1.00  0.00    -0.273 OA
BRANCH  17  20
HETATM   20  C   UNL     1     -40.327  53.149 -53.639  1.00  0.00     0.034 A 
HETATM   21  C   UNL     1     -40.269  53.328 -52.258  1.00  0.00     0.030 A 
HETATM   22  C   UNL     1     -39.945  52.259 -51.410  1.00  0.00     0.009 A 
HETATM   23  C   UNL     1     -39.676  50.989 -51.928  1.00  0.00    -0.062 A 
HETATM   24  C   UNL     1     -39.355  49.848 -51.010  1.00  0.00     0.048 C 
HETATM   25  C   UNL     1     -39.772  50.795 -53.307  1.00  0.00     0.009 A 
HETATM   26  C   UNL     1     -40.095  51.864 -54.150  1.00  0.00     0.030 A 
ENDBRANCH  17  20
ENDBRANCH  15  16
ENDBRANCH   1  15
TORSDOF 3
ENDMDL
MODEL 3
REMARK VINA RESULT:      -8.1      4.216      5.082
REMARK  3 active torsions:
REMARK  status: ('A' for Active; 'I' for Inactive)
REMARK    1  A    between atoms: C_5  and  N_6 
REMARK       I    between atoms: N_6  and  C_7 
REMARK    2  A    between atoms: C_7  and  C_8 
REMARK    3  A    between atoms: C_8  and  C_9 
ROOT
HETATM    1  C   UNL     1     -42.142  57.075 -55.164  1.00  0.00     0.286 C 
HETATM    2  N   UNL     1     -42.305  56.253 -56.436  1.00  0.00    -0.056 N 
HETATM    3  H   UNL     1     -41.375  56.278 -56.908  1.00  0.00     0.278 HD
HETATM    4  H   UNL     1     -42.483  55.268 -56.212  1.00  0.00     0.278 HD
HETATM    5  C   UNL     1     -43.374  56.814 -57.340  1.00  0.00     0.209 C 
HETATM    6  C   UNL     1     -43.007  58.274 -57.716  1.00  0.00     0.115 C 
HETATM    7  N   UNL     1     -42.656  59.078 -56.543  1.00  0.00    -0.353 N 
HETATM    8  C   UNL     1     -42.001  58.588 -55.439  1.00  0.00     0.249 C 
HETATM    9  O   UNL     1     -41.435  59.354 -54.668  1.00  0.00    -0.271 OA
HETATM   10  C   UNL     1     -43.539  55.904 -58.556  1.00  0.00     0.035 C 
HETATM   11  C   UNL     1     -42.388  56.013 -59.552  1.00  0.00     0.002 C 
HETATM   12  C   UNL     1     -42.143  57.460 -59.960  1.00  0.00     0.002 C 
HETATM   13  C   UNL     1     -41.873  58.345 -58.749  1.00  0.00     0.027 C 
HETATM   14  H   UNL     1     -42.542  60.082 -56.669  1.00  0.00     0.163 HD
ENDROOT
BRANCH   1  15
HETATM   15  C   UNL     1     -40.997  56.544 -54.294  1.00  0.00     0.146 C 
BRANCH  15  16
HETATM   16  C   UNL     1     -41.478  56.224 -52.902  1.00  0.00     0.224 C 
HETATM   17  N   UNL     1     -41.500  54.959 -52.413  1.00  0.00    -0.327 N 
HETATM   18  H   UNL     1     -41.967  54.912 -51.511  1.00  0.00     0.169 HD
HETATM   19  O   UNL     1     -41.833  57.162 -52.174  1.00  0.00    -0.273 OA
BRANCH  17  20
HETATM   20  C   UNL     1     -41.045  53.718 -52.905  1.00  0.00     0.034 A 
HETATM   21  C   UNL     1     -41.375  53.165 -54.141  1.00  0.00     0.030 A 
HETATM   22  C   UNL     1     -40.859  51.920 -54.528  1.00  0.00     0.009 A 
HETATM   23  C   UNL     1     -40.001  51.206 -53.688  1.00  0.00    -0.062 A 
HETATM   24  C   UNL     1     -39.436  49.888 -54.124  1.00  0.00     0.048 C 
HETATM   25  C   UNL     1     -39.636  51.774 -52.466  1.00  0.00     0.009 A 
HETATM   26  C   UNL     1     -40.153  53.016 -52.082  1.00  0.00     0.030 A 
ENDBRANCH  17  20
ENDBRANCH  15  16
ENDBRANCH   1  15
TORSDOF 3
ENDMDL
MODEL 4
REMARK VINA RESULT:      -7.9     14.975     17.387
REMARK  3 active torsions:
REMARK  status: ('A' for Active; 'I' for Inactive)
REMARK    1  A    between atoms: C_5  and  N_6 
REMARK       I    between atoms: N_6  and  C_7 
REMARK    2  A    between atoms: C_7  and  C_8 
REMARK    3  A    between atoms: C_8  and  C_9 
ROOT
HETATM    1  C   UNL     1     -34.209  40.548 -54.671  1.00  0.00     0.286 C 
HETATM    2  N   UNL     1     -34.591  40.503 -53.198  1.00  0.00    -0.056 N 
HETATM    3  H   UNL     1     -34.146  41.341 -52.765  1.00  0.00     0.278 HD
HETATM    4  H   UNL     1     -35.603  40.627 -53.082  1.00  0.00     0.278 HD
HETATM    5  C   UNL     1     -34.110  39.241 -52.526  1.00  0.00     0.209 C 
HETATM    6  C   UNL     1     -32.567  39.152 -52.659  1.00  0.00     0.115 C 
HETATM    7  N   UNL     1     -32.114  39.373 -54.034  1.00  0.00    -0.353 N 
HETATM    8  C   UNL     1     -32.716  40.237 -54.916  1.00  0.00     0.249 C 
HETATM    9  O   UNL     1     -32.106  40.638 -55.900  1.00  0.00    -0.271 OA
HETATM   10  C   UNL     1     -34.591  39.223 -51.076  1.00  0.00     0.035 C 
HETATM   11  C   UNL     1     -33.838  40.201 -50.178  1.00  0.00     0.002 C 
HETATM   12  C   UNL     1     -32.332  39.995 -50.276  1.00  0.00     0.002 C 
HETATM   13  C   UNL     1     -31.841  40.120 -51.714  1.00  0.00     0.027 C 
HETATM   14  H   UNL     1     -31.135  39.191 -54.249  1.00  0.00     0.163 HD
ENDROOT
BRANCH   1  15
HETATM   15  C   UNL     1     -34.629  41.872 -55.322  1.00  0.00     0.146 C 
BRANCH  15  16
HETATM   16  C   UNL     1     -36.019  42.267 -54.894  1.00  0.00     0.224 C 
HETATM   17  N   UNL     1     -37.100  42.115 -55.702  1.00  0.00    -0.327 N 
HETATM   18  H   UNL     1     -37.930  42.545 -55.304  1.00  0.00     0.169 HD
HETATM   19  O   UNL     1     -36.175  42.717 -53.751  1.00  0.00    -0.273 OA
BRANCH  17  20
HETATM   20  C   UNL     1     -37.293  41.521 -56.966  1.00  0.00     0.034 A 
HETATM   21  C   UNL     1     -37.005  42.116 -58.193  1.00  0.00     0.030 A 
HETATM   22  C   UNL     1     -37.236  41.427 -59.393  1.00  0.00     0.009 A 
HETATM   23  C   UNL     1     -37.757  40.131 -59.387  1.00  0.00    -0.062 A 
HETATM   24  C   UNL     1     -37.976  39.396 -60.676  1.00  0.00     0.048 C 
HETATM   25  C   UNL     1     -38.009  39.517 -58.159  1.00  0.00     0.009 A 
HETATM   26  C   UNL     1     -37.778  40.206 -56.964  1.00  0.00     0.030 A 
ENDBRANCH  17  20
ENDBRANCH  15  16
ENDBRANCH   1  15
TORSDOF 3
ENDMDL
MODEL 5
REMARK VINA RESULT:      -7.6      1.983      2.618
REMARK  3 active torsions:
REMARK  status: ('A' for Active; 'I' for Inactive)
REMARK    1  A    between atoms: C_5  and  N_6 
REMARK       I    between atoms: N_6  and  C_7 
REMARK    2  A    between atoms: C_7  and  C_8 
REMARK    3  A    between atoms: C_8  and  C_9 
ROOT
HETATM    1  C   UNL     1     -42.341  57.315 -53.435  1.00  0.00     0.286 C 
HETATM    2  N   UNL     1     -42.433  58.575 -52.584  1.00  0.00    -0.056 N 
HETATM    3  H   UNL     1     -42.456  58.245 -51.594  1.00  0.00     0.278 HD
HETATM    4  H   UNL     1     -41.580  59.138 -52.675  1.00  0.00     0.278 HD
HETATM    5  C   UNL     1     -43.665  59.384 -52.902  1.00  0.00     0.209 C 
HETATM    6  C   UNL     1     -44.924  58.509 -52.662  1.00  0.00     0.115 C 
HETATM    7  N   UNL     1     -44.820  57.198 -53.306  1.00  0.00    -0.353 N 
HETATM    8  C   UNL     1     -43.648  56.493 -53.437  1.00  0.00     0.249 C 
HETATM    9  O   UNL     1     -43.675  55.287 -53.656  1.00  0.00    -0.271 OA
HETATM   10  C   UNL     1     -43.658  60.667 -52.072  1.00  0.00     0.035 C 
HETATM   11  C   UNL     1     -43.973  60.434 -50.597  1.00  0.00     0.002 C 
HETATM   12  C   UNL     1     -45.273  59.659 -50.425  1.00  0.00     0.002 C 
HETATM   13  C   UNL     1     -45.234  58.328 -51.169  1.00  0.00     0.027 C 
HETATM   14  H   UNL     1     -45.651  56.610 -53.329  1.00  0.00     0.163 HD
ENDROOT
BRANCH   1  15
HETATM   15  C   UNL     1     -41.130  56.459 -53.044  1.00  0.00     0.146 C 
BRANCH  15  16
HETATM   16  C   UNL     1     -41.311  55.859 -51.673  1.00  0.00     0.224 C 
HETATM   17  N   UNL     1     -41.198  54.526 -51.441  1.00  0.00    -0.327 N 
HETATM   18  H   UNL     1     -41.472  54.285 -50.492  1.00  0.00     0.169 HD
HETATM   19  O   UNL     1     -41.539  56.622 -50.724  1.00  0.00    -0.273 OA
BRANCH  17  20
HETATM   20  C   UNL     1     -40.816  53.429 -52.240  1.00  0.00     0.034 A 
HETATM   21  C   UNL     1     -41.236  53.194 -53.548  1.00  0.00     0.030 A 
HETATM   22  C   UNL     1     -40.787  52.066 -54.251  1.00  0.00     0.009 A 
HETATM   23  C   UNL     1     -39.908  51.155 -53.660  1.00  0.00    -0.062 A 
HETATM   24  C   UNL     1     -39.416  49.967 -54.431  1.00  0.00     0.048 C 
HETATM   25  C   UNL     1     -39.453  51.408 -52.365  1.00  0.00     0.009 A 
HETATM   26  C   UNL     1     -39.903  52.533 -51.666  1.00  0.00     0.030 A 
ENDBRANCH  17  20
ENDBRANCH  15  16
ENDBRANCH   1  15
TORSDOF 3
ENDMDL
MODEL 6
REMARK VINA RESULT:      -7.4      5.231      6.268
REMARK  3 active torsions:
REMARK  status: ('A' for Active; 'I' for Inactive)
REMARK    1  A    between atoms: C_5  and  N_6 
REMARK       I    between atoms: N_6  and  C_7 
REMARK    2  A    between atoms: C_7  and  C_8 
REMARK    3  A    between atoms: C_8  and  C_9 
ROOT
HETATM    1  C   UNL     1     -42.265  57.260 -56.675  1.00  0.00     0.286 C 
HETATM    2  N   UNL     1     -42.462  58.570 -57.426  1.00  0.00    -0.056 N 
HETATM    3  H   UNL     1     -43.488  58.758 -57.400  1.00  0.00     0.278 HD
HETATM    4  H   UNL     1     -42.019  59.347 -56.924  1.00  0.00     0.278 HD
HETATM    5  C   UNL     1     -41.975  58.485 -58.851  1.00  0.00     0.209 C 
HETATM    6  C   UNL     1     -42.742  57.352 -59.584  1.00  0.00     0.115 C 
HETATM    7  N   UNL     1     -42.749  56.103 -58.820  1.00  0.00    -0.353 N 
HETATM    8  C   UNL     1     -42.800  56.036 -57.448  1.00  0.00     0.249 C 
HETATM    9  O   UNL     1     -43.153  55.001 -56.894  1.00  0.00    -0.271 OA
HETATM   10  C   UNL     1     -42.130  59.848 -59.523  1.00  0.00     0.035 C 
HETATM   11  C   UNL     1     -43.579  60.198 -59.851  1.00  0.00     0.002 C 
HETATM   12  C   UNL     1     -44.246  59.092 -60.658  1.00  0.00     0.002 C 
HETATM   13  C   UNL     1     -44.183  57.753 -59.933  1.00  0.00     0.027 C 
HETATM   14  H   UNL     1     -43.100  55.264 -59.280  1.00  0.00     0.163 HD
ENDROOT
BRANCH   1  15
HETATM   15  C   UNL     1     -42.841  57.333 -55.255  1.00  0.00     0.146 C 
BRANCH  15  16
HETATM   16  C   UNL     1     -41.788  57.763 -54.266  1.00  0.00     0.224 C 
HETATM   17  N   UNL     1     -41.015  56.873 -53.593  1.00  0.00    -0.327 N 
HETATM   18  H   UNL     1     -40.450  57.328 -52.881  1.00  0.00     0.169 HD
HETATM   19  O   UNL     1     -41.608  58.976 -54.091  1.00  0.00    -0.273 OA
BRANCH  17  20
HETATM   20  C   UNL     1     -40.863  55.473 -53.659  1.00  0.00     0.034 A 
HETATM   21  C   UNL     1     -41.284  54.565 -52.689  1.00  0.00     0.030 A 
HETATM   22  C   UNL     1     -41.082  53.188 -52.862  1.00  0.00     0.009 A 
HETATM   23  C   UNL     1     -40.457  52.694 -54.010  1.00  0.00    -0.062 A 
HETATM   24  C   UNL     1     -40.269  51.218 -54.194  1.00  0.00     0.048 C 
HETATM   25  C   UNL     1     -40.070  53.596 -55.002  1.00  0.00     0.009 A 
HETATM   26  C   UNL     1     -40.273  54.969 -54.827  1.00  0.00     0.030 A 
ENDBRANCH  17  20
ENDBRANCH  15  16
ENDBRANCH   1  15
TORSDOF 3
ENDMDL
MODEL 7
REMARK VINA RESULT:      -7.2     15.559     17.296
REMARK  3 active torsions:
REMARK  status: ('A' for Active; 'I' for Inactive)
REMARK    1  A    between atoms: C_5  and  N_6 
REMARK       I    between atoms: N_6  and  C_7 
REMARK    2  A    between atoms: C_7  and  C_8 
REMARK    3  A    between atoms: C_8  and  C_9 
ROOT
HETATM    1  C   UNL     1     -36.538  39.653 -55.319  1.00  0.00     0.286 C 
HETATM    2  N   UNL     1     -36.650  39.372 -56.812  1.00  0.00    -0.056 N 
HETATM    3  H   UNL     1     -35.839  39.858 -57.252  1.00  0.00     0.278 HD
HETATM    4  H   UNL     1     -36.519  38.372 -57.003  1.00  0.00     0.278 HD
HETATM    5  C   UNL     1     -37.949  39.878 -57.388  1.00  0.00     0.209 C 
HETATM    6  C   UNL     1     -38.050  41.407 -57.145  1.00  0.00     0.115 C 
HETATM    7  N   UNL     1     -37.768  41.769 -55.754  1.00  0.00    -0.353 N 
HETATM    8  C   UNL     1     -36.854  41.121 -54.958  1.00  0.00     0.249 C 
HETATM    9  O   UNL     1     -36.413  41.669 -53.954  1.00  0.00    -0.271 OA
HETATM   10  C   UNL     1     -38.031  39.497 -58.865  1.00  0.00     0.035 C 
HETATM   11  C   UNL     1     -37.107  40.324 -59.754  1.00  0.00     0.002 C 
HETATM   12  C   UNL     1     -37.326  41.817 -59.544  1.00  0.00     0.002 C 
HETATM   13  C   UNL     1     -37.137  42.210 -58.083  1.00  0.00     0.027 C 
HETATM   14  H   UNL     1     -37.950  42.727 -55.464  1.00  0.00     0.163 HD
ENDROOT
BRANCH   1  15
HETATM   15  C   UNL     1     -35.179  39.210 -54.763  1.00  0.00     0.146 C 
BRANCH  15  16
HETATM   16  C   UNL     1     -34.097  40.191 -55.132  1.00  0.00     0.224 C 
HETATM   17  N   UNL     1     -33.261  40.733 -54.211  1.00  0.00    -0.327 N 
HETATM   18  H   UNL     1     -32.678  41.462 -54.613  1.00  0.00     0.169 HD
HETATM   19  O   UNL     1     -33.952  40.482 -56.328  1.00  0.00    -0.273 OA
BRANCH  17  20
HETATM   20  C   UNL     1     -33.061  40.516 -52.832  1.00  0.00     0.034 A 
HETATM   21  C   UNL     1     -33.818  41.077 -51.805  1.00  0.00     0.030 A 
HETATM   22  C   UNL     1     -33.531  40.786 -50.463  1.00  0.00     0.009 A 
HETATM   23  C   UNL     1     -32.482  39.928 -50.124  1.00  0.00    -0.062 A 
HETATM   24  C   UNL     1     -32.200  39.606 -48.687  1.00  0.00     0.048 C 
HETATM   25  C   UNL     1     -31.747  39.332 -51.150  1.00  0.00     0.009 A 
HETATM   26  C   UNL     1     -32.036  39.624 -52.487  1.00  0.00     0.030 A 
ENDBRANCH  17  20
ENDBRANCH  15  16
ENDBRANCH   1  15
TORSDOF 3
ENDMDL
MODEL 8
REMARK VINA RESULT:      -7.0      2.793      4.144
REMARK  3 active torsions:
REMARK  status: ('A' for Active; 'I' for Inactive)
REMARK    1  A    between atoms: C_5  and  N_6 
REMARK       I    between atoms: N_6  and  C_7 
REMARK    2  A    between atoms: C_7  and  C_8 
REMARK    3  A    between atoms: C_8  and  C_9 
ROOT
HETATM    1  C   UNL     1     -42.624  58.631 -52.264  1.00  0.00     0.286 C 
HETATM    2  N   UNL     1     -43.804  58.415 -53.204  1.00  0.00    -0.056 N 
HETATM    3  H   UNL     1     -43.660  57.471 -53.624  1.00  0.00     0.278 HD
HETATM    4  H   UNL     1     -44.682  58.361 -52.677  1.00  0.00     0.278 HD
HETATM    5  C   UNL     1     -43.871  59.469 -54.280  1.00  0.00     0.209 C 
HETATM    6  C   UNL     1     -42.552  59.445 -55.098  1.00  0.00     0.115 C 
HETATM    7  N   UNL     1     -41.366  59.464 -54.239  1.00  0.00    -0.353 N 
HETATM    8  C   UNL     1     -41.291  58.850 -53.012  1.00  0.00     0.249 C 
HETATM    9  O   UNL     1     -40.200  58.601 -52.513  1.00  0.00    -0.271 OA
HETATM   10  C   UNL     1     -45.114  59.240 -55.138  1.00  0.00     0.035 C 
HETATM   11  C   UNL     1     -44.990  58.039 -56.072  1.00  0.00     0.002 C 
HETATM   12  C   UNL     1     -43.728  58.125 -56.920  1.00  0.00     0.002 C 
HETATM   13  C   UNL     1     -42.479  58.246 -56.055  1.00  0.00     0.027 C 
HETATM   14  H   UNL     1     -40.458  59.597 -54.682  1.00  0.00     0.163 HD
ENDROOT
BRANCH   1  15
HETATM   15  C   UNL     1     -42.518  57.507 -51.227  1.00  0.00     0.146 C 
BRANCH  15  16
HETATM   16  C   UNL     1     -43.774  56.675 -51.199  1.00  0.00     0.224 C 
HETATM   17  N   UNL     1     -43.852  55.454 -51.786  1.00  0.00    -0.327 N 
HETATM   18  H   UNL     1     -44.802  55.092 -51.778  1.00  0.00     0.169 HD
HETATM   19  O   UNL     1     -44.757  57.117 -50.587  1.00  0.00    -0.273 OA
BRANCH  17  20
HETATM   20  C   UNL     1     -42.909  54.618 -52.419  1.00  0.00     0.034 A 
HETATM   21  C   UNL     1     -42.820  54.391 -53.791  1.00  0.00     0.030 A 
HETATM   22  C   UNL     1     -41.836  53.538 -54.312  1.00  0.00     0.009 A 
HETATM   23  C   UNL     1     -40.922  52.898 -53.470  1.00  0.00    -0.062 A 
HETATM   24  C   UNL     1     -39.860  52.008 -54.042  1.00  0.00     0.048 C 
HETATM   25  C   UNL     1     -40.983  53.154 -52.100  1.00  0.00     0.009 A 
HETATM   26  C   UNL     1     -41.965  54.005 -51.583  1.00  0.00     0.030 A 
ENDBRANCH  17  20
ENDBRANCH  15  16
ENDBRANCH   1  15
TORSDOF 3
ENDMDL
MODEL 9
REMARK VINA RESULT:      -7.0      5.005      6.947
REMARK  3 active torsions:
REMARK  status: ('A' for Active; 'I' for Inactive)
REMARK    1  A    between atoms: C_5  and  N_6 
REMARK       I    between atoms: N_6  and  C_7 
REMARK    2  A    between atoms: C_7  and  C_8 
REMARK    3  A    between atoms: C_8  and  C_9 
ROOT
HETATM    1  C   UNL     1     -43.304  57.030 -54.010  1.00  0.00     0.286 C 
HETATM    2  N   UNL     1     -42.397  56.038 -54.728  1.00  0.00    -0.056 N 
HETATM    3  H   UNL     1     -42.934  55.145 -54.770  1.00  0.00     0.278 HD
HETATM    4  H   UNL     1     -42.245  56.324 -55.702  1.00  0.00     0.278 HD
HETATM    5  C   UNL     1     -41.090  55.837 -54.002  1.00  0.00     0.209 C 
HETATM    6  C   UNL     1     -41.380  55.322 -52.567  1.00  0.00     0.115 C 
HETATM    7  N   UNL     1     -42.390  56.130 -51.881  1.00  0.00    -0.353 N 
HETATM    8  C   UNL     1     -43.462  56.721 -52.506  1.00  0.00     0.249 C 
HETATM    9  O   UNL     1     -44.438  57.073 -51.854  1.00  0.00    -0.271 OA
HETATM   10  C   UNL     1     -40.200  54.895 -54.811  1.00  0.00     0.035 C 
HETATM   11  C   UNL     1     -40.659  53.440 -54.760  1.00  0.00     0.002 C 
HETATM   12  C   UNL     1     -40.827  52.962 -53.323  1.00  0.00     0.002 C 
HETATM   13  C   UNL     1     -41.800  53.845 -52.549  1.00  0.00     0.027 C 
HETATM   14  H   UNL     1     -42.542  55.962 -50.888  1.00  0.00     0.163 HD
ENDROOT
BRANCH   1  15
HETATM   15  C   UNL     1     -44.661  57.161 -54.711  1.00  0.00     0.146 C 
BRANCH  15  16
HETATM   16  C   UNL     1     -44.786  58.494 -55.403  1.00  0.00     0.224 C 
HETATM   17  N   UNL     1     -44.756  58.618 -56.755  1.00  0.00    -0.327 N 
HETATM   18  H   UNL     1     -44.729  59.593 -57.043  1.00  0.00     0.169 HD
HETATM   19  O   UNL     1     -44.953  59.504 -54.705  1.00  0.00    -0.273 OA
BRANCH  17  20
HETATM   20  C   UNL     1     -44.725  57.690 -57.816  1.00  0.00     0.034 A 
HETATM   21  C   UNL     1     -43.680  56.812 -58.095  1.00  0.00     0.030 A 
HETATM   22  C   UNL     1     -43.760  55.927 -59.179  1.00  0.00     0.009 A 
HETATM   23  C   UNL     1     -44.888  55.902 -60.004  1.00  0.00    -0.062 A 
HETATM   24  C   UNL     1     -44.972  54.934 -61.146  1.00  0.00     0.048 C 
HETATM   25  C   UNL     1     -45.954  56.752 -59.705  1.00  0.00     0.009 A 
HETATM   26  C   UNL     1     -45.871  57.634 -58.622  1.00  0.00     0.030 A 
ENDBRANCH  17  20
ENDBRANCH  15  16
ENDBRANCH   1  15
TORSDOF 3
ENDMDL
MODEL 10
REMARK VINA RESULT:      -7.0      5.588      6.655
REMARK  3 active torsions:
REMARK  status: ('A' for Active; 'I' for Inactive)
REMARK    1  A    between atoms: C_5  and  N_6 
REMARK       I    between atoms: N_6  and  C_7 
REMARK    2  A    between atoms: C_7  and  C_8 
REMARK    3  A    between atoms: C_8  and  C_9 
ROOT
HETATM    1  C   UNL     1     -42.682  59.011 -57.008  1.00  0.00     0.286 C 
HETATM    2  N   UNL     1     -42.583  59.370 -58.485  1.00  0.00    -0.056 N 
HETATM    3  H   UNL     1     -41.579  59.245 -58.738  1.00  0.00     0.278 HD
HETATM    4  H   UNL     1     -43.106  58.698 -59.057  1.00  0.00     0.278 HD
HETATM    5  C   UNL     1     -43.026  60.787 -58.754  1.00  0.00     0.209 C 
HETATM    6  C   UNL     1     -42.143  61.760 -57.929  1.00  0.00     0.115 C 
HETATM    7  N   UNL     1     -42.044  61.363 -56.523  1.00  0.00    -0.353 N 
HETATM    8  C   UNL     1     -42.021  60.060 -56.087  1.00  0.00     0.249 C 
HETATM    9  O   UNL     1     -41.592  59.790 -54.972  1.00  0.00    -0.271 OA
HETATM   10  C   UNL     1     -42.975  61.057 -60.256  1.00  0.00     0.035 C 
HETATM   11  C   UNL     1     -41.555  61.208 -60.796  1.00  0.00     0.002 C 
HETATM   12  C   UNL     1     -40.772  62.251 -60.009  1.00  0.00     0.002 C 
HETATM   13  C   UNL     1     -40.735  61.919 -58.521  1.00  0.00     0.027 C 
HETATM   14  H   UNL     1     -41.608  62.015 -55.872  1.00  0.00     0.163 HD
ENDROOT
BRANCH   1  15
HETATM   15  C   UNL     1     -42.150  57.598 -56.735  1.00  0.00     0.146 C 
BRANCH  15  16
HETATM   16  C   UNL     1     -43.197  56.558 -57.041  1.00  0.00     0.224 C 
HETATM   17  N   UNL     1     -43.218  55.346 -56.431  1.00  0.00    -0.327 N 
HETATM   18  H   UNL     1     -43.912  54.729 -56.844  1.00  0.00     0.169 HD
HETATM   19  O   UNL     1     -44.085  56.842 -57.857  1.00  0.00    -0.273 OA
BRANCH  17  20
HETATM   20  C   UNL     1     -42.470  54.772 -55.383  1.00  0.00     0.034 A 
HETATM   21  C   UNL     1     -41.131  54.390 -55.458  1.00  0.00     0.030 A 
HETATM   22  C   UNL     1     -40.484  53.829 -54.347  1.00  0.00     0.009 A 
HETATM   23  C   UNL     1     -41.164  53.642 -53.140  1.00  0.00    -0.062 A 
HETATM   24  C   UNL     1     -40.454  53.064 -51.953  1.00  0.00     0.048 C 
HETATM   25  C   UNL     1     -42.492  54.059 -53.049  1.00  0.00     0.009 A 
HETATM   26  C   UNL     1     -43.135  54.618 -54.158  1.00  0.00     0.030 A 
ENDBRANCH  17  20
ENDBRANCH  15  16
ENDBRANCH   1  15
TORSDOF 3
ENDMDL
