MODEL 1
REMARK VINA RESULT:      -7.9      0.000      0.000
REMARK  6 active torsions:
REMARK  status: ('A' for Active; 'I' for Inactive)
REMARK    1  A    between atoms: C_4  and  C_5 
REMARK    2  A    between atoms: C_9  and  N_10 
REMARK       I    between atoms: N_10  and  C_11 
REMARK    3  A    between atoms: C_11  and  C_12 
REMARK    4  A    between atoms: C_12  and  C_13 
REMARK    5  A    between atoms: C_13  and  C_14 
REMARK    6  A    between atoms: C_13  and  C_20 
ROOT
HETATM    1  N   UNL     1     -42.146  56.682 -52.382  1.00  0.00    -0.312 N 
HETATM    2  C   UNL     1     -41.526  55.559 -51.878  1.00  0.00     0.224 C 
HETATM    3  O   UNL     1     -40.905  55.553 -50.810  1.00  0.00    -0.273 OA
HETATM    4  H   UNL     1     -42.595  56.670 -53.286  1.00  0.00     0.170 HD
ENDROOT
BRANCH   1   5
HETATM    5  C   UNL     1     -42.098  57.904 -51.736  1.00  0.00     0.132 A 
HETATM    6  N   UNL     1     -40.944  58.494 -51.294  1.00  0.00    -0.261 N 
HETATM    7  N   UNL     1     -41.135  59.681 -50.697  1.00  0.00    -0.170 NA
HETATM    8  H   UNL     1     -40.002  58.120 -51.388  1.00  0.00     0.191 HD
HETATM    9  C   UNL     1     -42.462  59.860 -50.763  1.00  0.00     0.120 A 
HETATM   10  C   UNL     1     -43.121  58.772 -51.410  1.00  0.00     0.017 A 
HETATM   11  C   UNL     1     -44.575  58.627 -51.668  1.00  0.00     0.055 C 
BRANCH   9  12
HETATM   12  C   UNL     1     -43.126  61.080 -50.206  1.00  0.00     0.106 A 
HETATM   13  O   UNL     1     -43.986  61.086 -49.141  1.00  0.00    -0.313 OA
HETATM   14  C   UNL     1     -44.378  62.374 -48.937  1.00  0.00     0.050 A 
HETATM   15  C   UNL     1     -45.310  62.610 -47.818  1.00  0.00     0.076 C 
HETATM   16  C   UNL     1     -43.778  63.204 -49.859  1.00  0.00     0.035 A 
HETATM   17  C   UNL     1     -42.974  62.372 -50.674  1.00  0.00     0.042 A 
ENDBRANCH   9  12
ENDBRANCH   1   5
BRANCH   2  18
HETATM   18  C   UNL     1     -41.644  54.262 -52.674  1.00  0.00     0.116 C 
BRANCH  18  19
HETATM   19  C   UNL     1     -40.413  53.731 -53.436  1.00  0.00     0.049 C 
BRANCH  19  20
HETATM   20  C   UNL     1     -40.117  52.249 -53.221  1.00  0.00    -0.050 A 
HETATM   21  C   UNL     1     -40.182  51.306 -54.259  1.00  0.00     0.008 A 
HETATM   22  C   UNL     1     -39.935  49.954 -54.008  1.00  0.00     0.001 A 
HETATM   23  C   UNL     1     -39.610  49.527 -52.723  1.00  0.00     0.000 A 
HETATM   24  C   UNL     1     -39.519  50.452 -51.687  1.00  0.00     0.001 A 
HETATM   25  C   UNL     1     -39.765  51.803 -51.933  1.00  0.00     0.008 A 
ENDBRANCH  19  20
BRANCH  19  26
HETATM   26  C   UNL     1     -40.517  54.131 -54.900  1.00  0.00    -0.027 C 
HETATM   27  C   UNL     1     -41.553  54.698 -55.532  1.00  0.00     0.007 C 
ENDBRANCH  19  26
ENDBRANCH  18  19
ENDBRANCH   2  18
TORSDOF 6
ENDMDL
MODEL 2
REMARK VINA RESULT:      -7.9      4.226      7.105
REMARK  6 active torsions:
REMARK  status: ('A' for Active; 'I' for Inactive)
REMARK    1  A    between atoms: C_4  and  C_5 
REMARK    2  A    between atoms: C_9  and  N_10 
REMARK       I    between atoms: N_10  and  C_11 
REMARK    3  A    between atoms: C_11  and  C_12 
REMARK    4  A    between atoms: C_12  and  C_13 
REMARK    5  A    between atoms: C_13  and  C_14 
REMARK    6  A    between atoms: C_13  and  C_20 
ROOT
HETATM    1  N   UNL     1     -41.551  56.270 -54.579  1.00  0.00    -0.312 N 
HETATM    2  C   UNL     1     -42.245  56.109 -53.399  1.00  0.00     0.224 C 
HETATM    3  O   UNL     1     -43.474  56.200 -53.322  1.00  0.00    -0.273 OA
HETATM    4  H   UNL     1     -40.542  56.249 -54.600  1.00  0.00     0.170 HD
ENDROOT
BRANCH   1   5
HETATM    5  C   UNL     1     -42.183  56.574 -55.772  1.00  0.00     0.132 A 
HETATM    6  N   UNL     1     -42.168  57.814 -56.355  1.00  0.00    -0.261 N 
HETATM    7  N   UNL     1     -42.846  57.878 -57.511  1.00  0.00    -0.170 NA
HETATM    8  H   UNL     1     -41.699  58.642 -55.995  1.00  0.00     0.191 HD
HETATM    9  C   UNL     1     -43.310  56.631 -57.678  1.00  0.00     0.120 A 
HETATM   10  C   UNL     1     -42.921  55.764 -56.612  1.00  0.00     0.017 A 
HETATM   11  C   UNL     1     -43.241  54.324 -56.463  1.00  0.00     0.055 C 
BRANCH   9  12
HETATM   12  C   UNL     1     -44.136  56.245 -58.864  1.00  0.00     0.106 A 
HETATM   13  O   UNL     1     -45.422  56.658 -59.091  1.00  0.00    -0.313 OA
HETATM   14  C   UNL     1     -45.832  56.100 -60.263  1.00  0.00     0.050 A 
HETATM   15  C   UNL     1     -47.201  56.426 -60.705  1.00  0.00     0.076 C 
HETATM   16  C   UNL     1     -44.824  55.329 -60.799  1.00  0.00     0.035 A 
HETATM   17  C   UNL     1     -43.735  55.422 -59.900  1.00  0.00     0.042 A 
ENDBRANCH   9  12
ENDBRANCH   1   5
BRANCH   2  18
HETATM   18  C   UNL     1     -41.445  55.776 -52.143  1.00  0.00     0.116 C 
BRANCH  18  19
HETATM   19  C   UNL     1     -41.573  54.371 -51.520  1.00  0.00     0.049 C 
BRANCH  19  20
HETATM   20  C   UNL     1     -40.862  53.262 -52.291  1.00  0.00    -0.050 A 
HETATM   21  C   UNL     1     -41.128  52.989 -53.642  1.00  0.00     0.008 A 
HETATM   22  C   UNL     1     -40.477  51.941 -54.298  1.00  0.00     0.001 A 
HETATM   23  C   UNL     1     -39.545  51.160 -53.619  1.00  0.00     0.000 A 
HETATM   24  C   UNL     1     -39.252  51.431 -52.286  1.00  0.00     0.001 A 
HETATM   25  C   UNL     1     -39.901  52.477 -51.627  1.00  0.00     0.008 A 
ENDBRANCH  19  20
BRANCH  19  26
HETATM   26  C   UNL     1     -41.193  54.438 -50.048  1.00  0.00    -0.027 C 
HETATM   27  C   UNL     1     -41.277  55.486 -49.218  1.00  0.00     0.007 C 
ENDBRANCH  19  26
ENDBRANCH  18  19
ENDBRANCH   2  18
TORSDOF 6
ENDMDL
MODEL 3
REMARK VINA RESULT:      -7.9     16.766     18.699
REMARK  6 active torsions:
REMARK  status: ('A' for Active; 'I' for Inactive)
REMARK    1  A    between atoms: C_4  and  C_5 
REMARK    2  A    between atoms: C_9  and  N_10 
REMARK       I    between atoms: N_10  and  C_11 
REMARK    3  A    between atoms: C_11  and  C_12 
REMARK    4  A    between atoms: C_12  and  C_13 
REMARK    5  A    between atoms: C_13  and  C_14 
REMARK    6  A    between atoms: C_13  and  C_20 
ROOT
HETATM    1  N   UNL     1     -35.257  42.219 -53.520  1.00  0.00    -0.312 N 
HETATM    2  C   UNL     1     -35.328  41.441 -52.385  1.00  0.00     0.224 C 
HETATM    3  O   UNL     1     -36.097  40.480 -52.274  1.00  0.00    -0.273 OA
HETATM    4  H   UNL     1     -34.661  43.034 -53.559  1.00  0.00     0.170 HD
ENDROOT
BRANCH   1   5
HETATM    5  C   UNL     1     -36.065  41.997 -54.621  1.00  0.00     0.132 A 
HETATM    6  N   UNL     1     -37.432  41.935 -54.569  1.00  0.00    -0.261 N 
HETATM    7  N   UNL     1     -38.011  41.712 -55.760  1.00  0.00    -0.170 NA
HETATM    8  H   UNL     1     -38.009  42.046 -53.738  1.00  0.00     0.191 HD
HETATM    9  C   UNL     1     -36.975  41.632 -56.607  1.00  0.00     0.120 A 
HETATM   10  C   UNL     1     -35.723  41.807 -55.945  1.00  0.00     0.017 A 
HETATM   11  C   UNL     1     -34.372  41.790 -56.558  1.00  0.00     0.055 C 
BRANCH   9  12
HETATM   12  C   UNL     1     -37.166  41.388 -58.070  1.00  0.00     0.106 A 
HETATM   13  O   UNL     1     -37.392  40.162 -58.636  1.00  0.00    -0.313 OA
HETATM   14  C   UNL     1     -37.511  40.345 -59.980  1.00  0.00     0.050 A 
HETATM   15  C   UNL     1     -37.770  39.139 -60.790  1.00  0.00     0.076 C 
HETATM   16  C   UNL     1     -37.366  41.679 -60.291  1.00  0.00     0.035 A 
HETATM   17  C   UNL     1     -37.144  42.348 -59.064  1.00  0.00     0.042 A 
ENDBRANCH   9  12
ENDBRANCH   1   5
BRANCH   2  18
HETATM   18  C   UNL     1     -34.389  41.776 -51.231  1.00  0.00     0.116 C 
BRANCH  18  19
HETATM   19  C   UNL     1     -33.071  40.989 -51.079  1.00  0.00     0.049 C 
BRANCH  19  20
HETATM   20  C   UNL     1     -33.031  40.031 -49.891  1.00  0.00    -0.050 A 
HETATM   21  C   UNL     1     -31.925  39.936 -49.033  1.00  0.00     0.008 A 
HETATM   22  C   UNL     1     -31.920  39.021 -47.977  1.00  0.00     0.001 A 
HETATM   23  C   UNL     1     -33.021  38.198 -47.757  1.00  0.00     0.000 A 
HETATM   24  C   UNL     1     -34.135  38.295 -48.585  1.00  0.00     0.001 A 
HETATM   25  C   UNL     1     -34.144  39.207 -49.641  1.00  0.00     0.008 A 
ENDBRANCH  19  20
BRANCH  19  26
HETATM   26  C   UNL     1     -32.720  40.336 -52.408  1.00  0.00    -0.027 C 
HETATM   27  C   UNL     1     -31.986  39.236 -52.621  1.00  0.00     0.007 C 
ENDBRANCH  19  26
ENDBRANCH  18  19
ENDBRANCH   2  18
TORSDOF 6
ENDMDL
MODEL 4
REMARK VINA RESULT:      -7.8      5.476      7.785
REMARK  6 active torsions:
REMARK  status: ('A' for Active; 'I' for Inactive)
REMARK    1  A    between atoms: C_4  and  C_5 
REMARK    2  A    between atoms: C_9  and  N_10 
REMARK       I    between atoms: N_10  and  C_11 
REMARK    3  A    between atoms: C_11  and  C_12 
REMARK    4  A    between atoms: C_12  and  C_13 
REMARK    5  A    between atoms: C_13  and  C_14 
REMARK    6  A    between atoms: C_13  and  C_20 
ROOT
HETATM    1  N   UNL     1     -42.094  56.503 -56.941  1.00  0.00    -0.312 N 
HETATM    2  C   UNL     1     -42.104  55.510 -55.985  1.00  0.00     0.224 C 
HETATM    3  O   UNL     1     -42.831  54.514 -56.055  1.00  0.00    -0.273 OA
HETATM    4  H   UNL     1     -41.533  57.334 -56.827  1.00  0.00     0.170 HD
ENDROOT
BRANCH   1   5
HETATM    5  C   UNL     1     -42.923  56.471 -58.048  1.00  0.00     0.132 A 
HETATM    6  N   UNL     1     -42.625  55.811 -59.211  1.00  0.00    -0.261 N 
HETATM    7  N   UNL     1     -43.577  55.914 -60.152  1.00  0.00    -0.170 NA
HETATM    8  H   UNL     1     -41.782  55.274 -59.399  1.00  0.00     0.191 HD
HETATM    9  C   UNL     1     -44.522  56.664 -59.569  1.00  0.00     0.120 A 
HETATM   10  C   UNL     1     -44.165  57.043 -58.239  1.00  0.00     0.017 A 
HETATM   11  C   UNL     1     -44.962  57.860 -57.293  1.00  0.00     0.055 C 
BRANCH   9  12
HETATM   12  C   UNL     1     -45.788  57.034 -60.274  1.00  0.00     0.106 A 
HETATM   13  O   UNL     1     -46.204  58.315 -60.519  1.00  0.00    -0.313 OA
HETATM   14  C   UNL     1     -47.394  58.243 -61.176  1.00  0.00     0.050 A 
HETATM   15  C   UNL     1     -48.021  59.526 -61.548  1.00  0.00     0.076 C 
HETATM   16  C   UNL     1     -47.754  56.926 -61.362  1.00  0.00     0.035 A 
HETATM   17  C   UNL     1     -46.722  56.150 -60.782  1.00  0.00     0.042 A 
ENDBRANCH   9  12
ENDBRANCH   1   5
BRANCH   2  18
HETATM   18  C   UNL     1     -41.146  55.649 -54.805  1.00  0.00     0.116 C 
BRANCH  18  19
HETATM   19  C   UNL     1     -41.514  54.999 -53.456  1.00  0.00     0.049 C 
BRANCH  19  20
HETATM   20  C   UNL     1     -40.772  53.701 -53.148  1.00  0.00    -0.050 A 
HETATM   21  C   UNL     1     -40.430  52.770 -54.141  1.00  0.00     0.008 A 
HETATM   22  C   UNL     1     -39.780  51.579 -53.808  1.00  0.00     0.001 A 
HETATM   23  C   UNL     1     -39.453  51.307 -52.482  1.00  0.00     0.000 A 
HETATM   24  C   UNL     1     -39.764  52.228 -51.488  1.00  0.00     0.001 A 
HETATM   25  C   UNL     1     -40.414  53.419 -51.817  1.00  0.00     0.008 A 
ENDBRANCH  19  20
BRANCH  19  26
HETATM   26  C   UNL     1     -41.415  56.041 -52.352  1.00  0.00    -0.027 C 
HETATM   27  C   UNL     1     -41.125  57.344 -52.466  1.00  0.00     0.007 C 
ENDBRANCH  19  26
ENDBRANCH  18  19
ENDBRANCH   2  18
TORSDOF 6
ENDMDL
MODEL 5
REMARK VINA RESULT:      -7.8      1.642      1.935
REMARK  6 active torsions:
REMARK  status: ('A' for Active; 'I' for Inactive)
REMARK    1  A    between atoms: C_4  and  C_5 
REMARK    2  A    between atoms: C_9  and  N_10 
REMARK       I    between atoms: N_10  and  C_11 
REMARK    3  A    between atoms: C_11  and  C_12 
REMARK    4  A    between atoms: C_12  and  C_13 
REMARK    5  A    between atoms: C_13  and  C_14 
REMARK    6  A    between atoms: C_13  and  C_20 
ROOT
HETATM    1  N   UNL     1     -43.583  55.984 -52.765  1.00  0.00    -0.312 N 
HETATM    2  C   UNL     1     -42.725  55.074 -52.187  1.00  0.00     0.224 C 
HETATM    3  O   UNL     1     -42.327  55.169 -51.021  1.00  0.00    -0.273 OA
HETATM    4  H   UNL     1     -43.844  55.911 -53.738  1.00  0.00     0.170 HD
ENDROOT
BRANCH   1   5
HETATM    5  C   UNL     1     -44.048  57.096 -52.087  1.00  0.00     0.132 A 
HETATM    6  N   UNL     1     -45.120  57.083 -51.235  1.00  0.00    -0.261 N 
HETATM    7  N   UNL     1     -45.392  58.278 -50.686  1.00  0.00    -0.170 NA
HETATM    8  H   UNL     1     -45.690  56.275 -50.997  1.00  0.00     0.191 HD
HETATM    9  C   UNL     1     -44.455  59.086 -51.204  1.00  0.00     0.120 A 
HETATM   10  C   UNL     1     -43.578  58.394 -52.093  1.00  0.00     0.017 A 
HETATM   11  C   UNL     1     -42.427  58.958 -52.838  1.00  0.00     0.055 C 
BRANCH   9  12
HETATM   12  C   UNL     1     -44.382  60.539 -50.855  1.00  0.00     0.106 A 
HETATM   13  O   UNL     1     -45.156  61.519 -51.416  1.00  0.00    -0.313 OA
HETATM   14  C   UNL     1     -44.799  62.702 -50.846  1.00  0.00     0.050 A 
HETATM   15  C   UNL     1     -45.525  63.902 -51.305  1.00  0.00     0.076 C 
HETATM   16  C   UNL     1     -43.801  62.499 -49.918  1.00  0.00     0.035 A 
HETATM   17  C   UNL     1     -43.533  61.109 -49.925  1.00  0.00     0.042 A 
ENDBRANCH   9  12
ENDBRANCH   1   5
BRANCH   2  18
HETATM   18  C   UNL     1     -42.276  53.883 -53.028  1.00  0.00     0.116 C 
BRANCH  18  19
HETATM   19  C   UNL     1     -40.771  53.667 -53.286  1.00  0.00     0.049 C 
BRANCH  19  20
HETATM   20  C   UNL     1     -40.307  52.216 -53.190  1.00  0.00    -0.050 A 
HETATM   21  C   UNL     1     -40.322  51.342 -54.289  1.00  0.00     0.008 A 
HETATM   22  C   UNL     1     -39.919  50.012 -54.147  1.00  0.00     0.001 A 
HETATM   23  C   UNL     1     -39.485  49.539 -52.910  1.00  0.00     0.000 A 
HETATM   24  C   UNL     1     -39.442  50.398 -51.816  1.00  0.00     0.001 A 
HETATM   25  C   UNL     1     -39.845  51.727 -51.954  1.00  0.00     0.008 A 
ENDBRANCH  19  20
BRANCH  19  26
HETATM   26  C   UNL     1     -40.380  54.353 -54.587  1.00  0.00    -0.027 C 
HETATM   27  C   UNL     1     -41.175  54.722 -55.600  1.00  0.00     0.007 C 
ENDBRANCH  19  26
ENDBRANCH  18  19
ENDBRANCH   2  18
TORSDOF 6
ENDMDL
MODEL 6
REMARK VINA RESULT:      -7.8      2.014      2.908
REMARK  6 active torsions:
REMARK  status: ('A' for Active; 'I' for Inactive)
REMARK    1  A    between atoms: C_4  and  C_5 
REMARK    2  A    between atoms: C_9  and  N_10 
REMARK       I    between atoms: N_10  and  C_11 
REMARK    3  A    between atoms: C_11  and  C_12 
REMARK    4  A    between atoms: C_12  and  C_13 
REMARK    5  A    between atoms: C_13  and  C_14 
REMARK    6  A    between atoms: C_13  and  C_20 
ROOT
HETATM    1  N   UNL     1     -42.219  56.261 -51.476  1.00  0.00    -0.312 N 
HETATM    2  C   UNL     1     -42.056  55.427 -52.561  1.00  0.00     0.224 C 
HETATM    3  O   UNL     1     -42.890  55.329 -53.467  1.00  0.00    -0.273 OA
HETATM    4  H   UNL     1     -41.547  56.276 -50.722  1.00  0.00     0.170 HD
ENDROOT
BRANCH   1   5
HETATM    5  C   UNL     1     -43.349  57.040 -51.305  1.00  0.00     0.132 A 
HETATM    6  N   UNL     1     -44.574  56.545 -50.941  1.00  0.00    -0.261 N 
HETATM    7  N   UNL     1     -45.528  57.484 -50.833  1.00  0.00    -0.170 NA
HETATM    8  H   UNL     1     -44.797  55.571 -50.750  1.00  0.00     0.191 HD
HETATM    9  C   UNL     1     -44.889  58.623 -51.136  1.00  0.00     0.120 A 
HETATM   10  C   UNL     1     -43.512  58.404 -51.441  1.00  0.00     0.017 A 
HETATM   11  C   UNL     1     -42.500  59.424 -51.810  1.00  0.00     0.055 C 
BRANCH   9  12
HETATM   12  C   UNL     1     -45.588  59.946 -51.139  1.00  0.00     0.106 A 
HETATM   13  O   UNL     1     -45.831  60.706 -50.027  1.00  0.00    -0.313 OA
HETATM   14  C   UNL     1     -46.483  61.830 -50.432  1.00  0.00     0.050 A 
HETATM   15  C   UNL     1     -46.837  62.803 -49.380  1.00  0.00     0.076 C 
HETATM   16  C   UNL     1     -46.663  61.808 -51.798  1.00  0.00     0.035 A 
HETATM   17  C   UNL     1     -46.088  60.597 -52.251  1.00  0.00     0.042 A 
ENDBRANCH   9  12
ENDBRANCH   1   5
BRANCH   2  18
HETATM   18  C   UNL     1     -40.768  54.614 -52.647  1.00  0.00     0.116 C 
BRANCH  18  19
HETATM   19  C   UNL     1     -40.562  53.425 -51.687  1.00  0.00     0.049 C 
BRANCH  19  20
HETATM   20  C   UNL     1     -40.231  52.100 -52.369  1.00  0.00    -0.050 A 
HETATM   21  C   UNL     1     -39.752  50.985 -51.665  1.00  0.00     0.008 A 
HETATM   22  C   UNL     1     -39.431  49.803 -52.337  1.00  0.00     0.001 A 
HETATM   23  C   UNL     1     -39.593  49.714 -53.717  1.00  0.00     0.000 A 
HETATM   24  C   UNL     1     -40.089  50.803 -54.428  1.00  0.00     0.001 A 
HETATM   25  C   UNL     1     -40.410  51.986 -53.760  1.00  0.00     0.008 A 
ENDBRANCH  19  20
BRANCH  19  26
HETATM   26  C   UNL     1     -39.573  53.821 -50.600  1.00  0.00    -0.027 C 
HETATM   27  C   UNL     1     -39.835  54.261 -49.362  1.00  0.00     0.007 C 
ENDBRANCH  19  26
ENDBRANCH  18  19
ENDBRANCH   2  18
TORSDOF 6
ENDMDL
MODEL 7
REMARK VINA RESULT:      -7.6      4.711      6.965
REMARK  6 active torsions:
REMARK  status: ('A' for Active; 'I' for Inactive)
REMARK    1  A    between atoms: C_4  and  C_5 
REMARK    2  A    between atoms: C_9  and  N_10 
REMARK       I    between atoms: N_10  and  C_11 
REMARK    3  A    between atoms: C_11  and  C_12 
REMARK    4  A    between atoms: C_12  and  C_13 
REMARK    5  A    between atoms: C_13  and  C_14 
REMARK    6  A    between atoms: C_13  and  C_20 
ROOT
HETATM    1  N   UNL     1     -41.770  55.925 -56.171  1.00  0.00    -0.312 N 
HETATM    2  C   UNL     1     -41.936  55.338 -54.935  1.00  0.00     0.224 C 
HETATM    3  O   UNL     1     -42.974  55.443 -54.273  1.00  0.00    -0.273 OA
HETATM    4  H   UNL     1     -40.889  55.871 -56.662  1.00  0.00     0.170 HD
ENDROOT
BRANCH   1   5
HETATM    5  C   UNL     1     -42.752  56.704 -56.757  1.00  0.00     0.132 A 
HETATM    6  N   UNL     1     -43.140  57.931 -56.287  1.00  0.00    -0.261 N 
HETATM    7  N   UNL     1     -44.109  58.509 -57.015  1.00  0.00    -0.170 NA
HETATM    8  H   UNL     1     -42.762  58.411 -55.474  1.00  0.00     0.191 HD
HETATM    9  C   UNL     1     -44.347  57.620 -57.990  1.00  0.00     0.120 A 
HETATM   10  C   UNL     1     -43.519  56.463 -57.879  1.00  0.00     0.017 A 
HETATM   11  C   UNL     1     -43.498  55.283 -58.778  1.00  0.00     0.055 C 
BRANCH   9  12
HETATM   12  C   UNL     1     -45.375  57.863 -59.049  1.00  0.00     0.106 A 
HETATM   13  O   UNL     1     -46.054  56.882 -59.722  1.00  0.00    -0.313 OA
HETATM   14  C   UNL     1     -46.896  57.493 -60.600  1.00  0.00     0.050 A 
HETATM   15  C   UNL     1     -47.738  56.610 -61.430  1.00  0.00     0.076 C 
HETATM   16  C   UNL     1     -46.771  58.862 -60.503  1.00  0.00     0.035 A 
HETATM   17  C   UNL     1     -45.794  59.098 -59.507  1.00  0.00     0.042 A 
ENDBRANCH   9  12
ENDBRANCH   1   5
BRANCH   2  18
HETATM   18  C   UNL     1     -40.787  54.499 -54.385  1.00  0.00     0.116 C 
BRANCH  18  19
HETATM   19  C   UNL     1     -41.010  53.658 -53.112  1.00  0.00     0.049 C 
BRANCH  19  20
HETATM   20  C   UNL     1     -40.449  52.240 -53.175  1.00  0.00    -0.050 A 
HETATM   21  C   UNL     1     -40.469  51.470 -54.348  1.00  0.00     0.008 A 
HETATM   22  C   UNL     1     -39.973  50.163 -54.350  1.00  0.00     0.001 A 
HETATM   23  C   UNL     1     -39.442  49.613 -53.186  1.00  0.00     0.000 A 
HETATM   24  C   UNL     1     -39.394  50.371 -52.020  1.00  0.00     0.001 A 
HETATM   25  C   UNL     1     -39.888  51.676 -52.014  1.00  0.00     0.008 A 
ENDBRANCH  19  20
BRANCH  19  26
HETATM   26  C   UNL     1     -40.546  54.450 -51.898  1.00  0.00    -0.027 C 
HETATM   27  C   UNL     1     -41.295  55.106 -51.002  1.00  0.00     0.007 C 
ENDBRANCH  19  26
ENDBRANCH  18  19
ENDBRANCH   2  18
TORSDOF 6
ENDMDL
MODEL 8
REMARK VINA RESULT:      -7.5     17.016     18.891
REMARK  6 active torsions:
REMARK  status: ('A' for Active; 'I' for Inactive)
REMARK    1  A    between atoms: C_4  and  C_5 
REMARK    2  A    between atoms: C_9  and  N_10 
REMARK       I    between atoms: N_10  and  C_11 
REMARK    3  A    between atoms: C_11  and  C_12 
REMARK    4  A    between atoms: C_12  and  C_13 
REMARK    5  A    between atoms: C_13  and  C_14 
REMARK    6  A    between atoms: C_13  and  C_20 
ROOT
HETATM    1  N   UNL     1     -34.746  40.824 -53.434  1.00  0.00    -0.312 N 
HETATM    2  C   UNL     1     -35.143  41.775 -52.519  1.00  0.00     0.224 C 
HETATM    3  O   UNL     1     -35.643  42.857 -52.845  1.00  0.00    -0.273 OA
HETATM    4  H   UNL     1     -34.286  39.975 -53.139  1.00  0.00     0.170 HD
ENDROOT
BRANCH   1   5
HETATM    5  C   UNL     1     -34.855  41.020 -54.799  1.00  0.00     0.132 A 
HETATM    6  N   UNL     1     -33.823  41.433 -55.600  1.00  0.00    -0.261 N 
HETATM    7  N   UNL     1     -34.157  41.555 -56.894  1.00  0.00    -0.170 NA
HETATM    8  H   UNL     1     -32.873  41.636 -55.300  1.00  0.00     0.191 HD
HETATM    9  C   UNL     1     -35.450  41.203 -56.924  1.00  0.00     0.120 A 
HETATM   10  C   UNL     1     -35.944  40.854 -55.631  1.00  0.00     0.017 A 
HETATM   11  C   UNL     1     -37.316  40.411 -55.283  1.00  0.00     0.055 C 
BRANCH   9  12
HETATM   12  C   UNL     1     -36.240  41.195 -58.195  1.00  0.00     0.106 A 
HETATM   13  O   UNL     1     -36.369  40.118 -59.030  1.00  0.00    -0.313 OA
HETATM   14  C   UNL     1     -37.157  40.499 -60.073  1.00  0.00     0.050 A 
HETATM   15  C   UNL     1     -37.435  39.474 -61.098  1.00  0.00     0.076 C 
HETATM   16  C   UNL     1     -37.541  41.813 -59.923  1.00  0.00     0.035 A 
HETATM   17  C   UNL     1     -36.951  42.260 -58.716  1.00  0.00     0.042 A 
ENDBRANCH   9  12
ENDBRANCH   1   5
BRANCH   2  18
HETATM   18  C   UNL     1     -34.976  41.452 -51.037  1.00  0.00     0.116 C 
BRANCH  18  19
HETATM   19  C   UNL     1     -35.088  39.986 -50.569  1.00  0.00     0.049 C 
BRANCH  19  20
HETATM   20  C   UNL     1     -33.989  39.535 -49.611  1.00  0.00    -0.050 A 
HETATM   21  C   UNL     1     -32.696  40.081 -49.631  1.00  0.00     0.008 A 
HETATM   22  C   UNL     1     -31.712  39.613 -48.756  1.00  0.00     0.001 A 
HETATM   23  C   UNL     1     -32.008  38.603 -47.843  1.00  0.00     0.000 A 
HETATM   24  C   UNL     1     -33.291  38.067 -47.794  1.00  0.00     0.001 A 
HETATM   25  C   UNL     1     -34.276  38.532 -48.667  1.00  0.00     0.008 A 
ENDBRANCH  19  20
BRANCH  19  26
HETATM   26  C   UNL     1     -36.497  39.729 -50.054  1.00  0.00    -0.027 C 
HETATM   27  C   UNL     1     -37.497  39.081 -50.667  1.00  0.00     0.007 C 
ENDBRANCH  19  26
ENDBRANCH  18  19
ENDBRANCH   2  18
TORSDOF 6
ENDMDL
MODEL 9
REMARK VINA RESULT:      -7.5      2.537      2.890
REMARK  6 active torsions:
REMARK  status: ('A' for Active; 'I' for Inactive)
REMARK    1  A    between atoms: C_4  and  C_5 
REMARK    2  A    between atoms: C_9  and  N_10 
REMARK       I    between atoms: N_10  and  C_11 
REMARK    3  A    between atoms: C_11  and  C_12 
REMARK    4  A    between atoms: C_12  and  C_13 
REMARK    5  A    between atoms: C_13  and  C_14 
REMARK    6  A    between atoms: C_13  and  C_20 
ROOT
HETATM    1  N   UNL     1     -43.619  55.722 -52.098  1.00  0.00    -0.312 N 
HETATM    2  C   UNL     1     -42.313  55.375 -51.824  1.00  0.00     0.224 C 
HETATM    3  O   UNL     1     -41.475  56.181 -51.405  1.00  0.00    -0.273 OA
HETATM    4  H   UNL     1     -44.265  55.056 -52.495  1.00  0.00     0.170 HD
ENDROOT
BRANCH   1   5
HETATM    5  C   UNL     1     -44.087  57.015 -51.948  1.00  0.00     0.132 A 
HETATM    6  N   UNL     1     -44.057  57.710 -50.768  1.00  0.00    -0.261 N 
HETATM    7  N   UNL     1     -44.564  58.951 -50.855  1.00  0.00    -0.170 NA
HETATM    8  H   UNL     1     -43.692  57.374 -49.880  1.00  0.00     0.191 HD
HETATM    9  C   UNL     1     -44.929  59.055 -52.141  1.00  0.00     0.120 A 
HETATM   10  C   UNL     1     -44.650  57.865 -52.879  1.00  0.00     0.017 A 
HETATM   11  C   UNL     1     -44.908  57.619 -54.318  1.00  0.00     0.055 C 
BRANCH   9  12
HETATM   12  C   UNL     1     -45.552  60.299 -52.689  1.00  0.00     0.106 A 
HETATM   13  O   UNL     1     -46.840  60.701 -52.451  1.00  0.00    -0.313 OA
HETATM   14  C   UNL     1     -47.035  61.872 -53.117  1.00  0.00     0.050 A 
HETATM   15  C   UNL     1     -48.368  62.490 -52.987  1.00  0.00     0.076 C 
HETATM   16  C   UNL     1     -45.886  62.235 -53.784  1.00  0.00     0.035 A 
HETATM   17  C   UNL     1     -44.934  61.225 -53.509  1.00  0.00     0.042 A 
ENDBRANCH   9  12
ENDBRANCH   1   5
BRANCH   2  18
HETATM   18  C   UNL     1     -41.906  53.919 -52.025  1.00  0.00     0.116 C 
BRANCH  18  19
HETATM   19  C   UNL     1     -40.699  53.592 -52.927  1.00  0.00     0.049 C 
BRANCH  19  20
HETATM   20  C   UNL     1     -40.280  52.124 -52.929  1.00  0.00    -0.050 A 
HETATM   21  C   UNL     1     -39.829  51.464 -51.775  1.00  0.00     0.008 A 
HETATM   22  C   UNL     1     -39.425  50.128 -51.832  1.00  0.00     0.001 A 
HETATM   23  C   UNL     1     -39.476  49.430 -53.036  1.00  0.00     0.000 A 
HETATM   24  C   UNL     1     -39.941  50.062 -54.184  1.00  0.00     0.001 A 
HETATM   25  C   UNL     1     -40.346  51.397 -54.132  1.00  0.00     0.008 A 
ENDBRANCH  19  20
BRANCH  19  26
HETATM   26  C   UNL     1     -40.939  54.165 -54.316  1.00  0.00    -0.027 C 
HETATM   27  C   UNL     1     -40.041  54.687 -55.163  1.00  0.00     0.007 C 
ENDBRANCH  19  26
ENDBRANCH  18  19
ENDBRANCH   2  18
TORSDOF 6
ENDMDL
MODEL 10
REMARK VINA RESULT:      -7.4      4.925      7.660
REMARK  6 active torsions:
REMARK  status: ('A' for Active; 'I' for Inactive)
REMARK    1  A    between atoms: C_4  and  C_5 
REMARK    2  A    between atoms: C_9  and  N_10 
REMARK       I    between atoms: N_10  and  C_11 
REMARK    3  A    between atoms: C_11  and  C_12 
REMARK    4  A    between atoms: C_12  and  C_13 
REMARK    5  A    between atoms: C_13  and  C_14 
REMARK    6  A    between atoms: C_13  and  C_20 
ROOT
HETATM    1  N   UNL     1     -41.972  56.111 -56.317  1.00  0.00    -0.312 N 
HETATM    2  C   UNL     1     -41.940  54.856 -55.747  1.00  0.00     0.224 C 
HETATM    3  O   UNL     1     -42.932  54.124 -55.674  1.00  0.00    -0.273 OA
HETATM    4  H   UNL     1     -41.158  56.710 -56.309  1.00  0.00     0.170 HD
ENDROOT
BRANCH   1   5
HETATM    5  C   UNL     1     -43.132  56.660 -56.830  1.00  0.00     0.132 A 
HETATM    6  N   UNL     1     -44.081  57.296 -56.073  1.00  0.00    -0.261 N 
HETATM    7  N   UNL     1     -45.125  57.753 -56.782  1.00  0.00    -0.170 NA
HETATM    8  H   UNL     1     -44.048  57.444 -55.067  1.00  0.00     0.191 HD
HETATM    9  C   UNL     1     -44.833  57.399 -58.042  1.00  0.00     0.120 A 
HETATM   10  C   UNL     1     -43.586  56.709 -58.133  1.00  0.00     0.017 A 
HETATM   11  C   UNL     1     -42.941  56.178 -59.357  1.00  0.00     0.055 C 
BRANCH   9  12
HETATM   12  C   UNL     1     -45.743  57.717 -59.185  1.00  0.00     0.106 A 
HETATM   13  O   UNL     1     -46.469  56.794 -59.889  1.00  0.00    -0.313 OA
HETATM   14  C   UNL     1     -47.170  57.463 -60.845  1.00  0.00     0.050 A 
HETATM   15  C   UNL     1     -48.035  56.649 -61.720  1.00  0.00     0.076 C 
HETATM   16  C   UNL     1     -46.906  58.813 -60.768  1.00  0.00     0.035 A 
HETATM   17  C   UNL     1     -45.989  58.976 -59.702  1.00  0.00     0.042 A 
ENDBRANCH   9  12
ENDBRANCH   1   5
BRANCH   2  18
HETATM   18  C   UNL     1     -40.603  54.350 -55.213  1.00  0.00     0.116 C 
BRANCH  18  19
HETATM   19  C   UNL     1     -40.541  53.737 -53.799  1.00  0.00     0.049 C 
BRANCH  19  20
HETATM   20  C   UNL     1     -41.437  54.416 -52.767  1.00  0.00    -0.050 A 
HETATM   21  C   UNL     1     -42.522  53.764 -52.161  1.00  0.00     0.008 A 
HETATM   22  C   UNL     1     -43.336  54.436 -51.245  1.00  0.00     0.001 A 
HETATM   23  C   UNL     1     -43.072  55.763 -50.914  1.00  0.00     0.000 A 
HETATM   24  C   UNL     1     -41.986  56.417 -51.488  1.00  0.00     0.001 A 
HETATM   25  C   UNL     1     -41.172  55.750 -52.404  1.00  0.00     0.008 A 
ENDBRANCH  19  20
BRANCH  19  26
HETATM   26  C   UNL     1     -40.743  52.232 -53.894  1.00  0.00    -0.027 C 
HETATM   27  C   UNL     1     -39.809  51.272 -53.932  1.00  0.00     0.007 C 
ENDBRANCH  19  26
ENDBRANCH  18  19
ENDBRANCH   2  18
TORSDOF 6
ENDMDL
