MODEL 1
REMARK VINA RESULT:      -7.7      0.000      0.000
REMARK  7 active torsions:
REMARK  status: ('A' for Active; 'I' for Inactive)
REMARK    1  A    between atoms: C_4  and  C_5 
REMARK    2  A    between atoms: C_5  and  N_6 
REMARK       I    between atoms: N_6  and  C_7 
REMARK    3  A    between atoms: N_6  and  C_22 
REMARK    4  A    between atoms: C_7  and  C_8 
REMARK    5  A    between atoms: C_13  and  C_14 
REMARK    6  A    between atoms: C_15  and  O_16 
REMARK    7  A    between atoms: C_22  and  C_23 
ROOT
HETATM    1  N   UNL     1     -43.965  56.171 -52.340  1.00  0.00    -0.343 N 
HETATM    2  C   UNL     1     -44.498  57.304 -51.721  1.00  0.00     0.235 C 
HETATM    3  O   UNL     1     -44.773  57.291 -50.518  1.00  0.00    -0.272 OA
ENDROOT
BRANCH   2   4
HETATM    4  C   UNL     1     -44.712  58.557 -52.543  1.00  0.00     0.195 C 
HETATM    5  C   UNL     1     -45.495  59.653 -51.891  1.00  0.00     0.247 C 
HETATM    6  O   UNL     1     -46.440  59.552 -51.128  1.00  0.00    -0.271 OA
HETATM    7  N   UNL     1     -45.033  60.842 -52.430  1.00  0.00    -0.290 N 
HETATM    8  N   UNL     1     -43.929  60.684 -53.276  1.00  0.00    -0.228 NA
HETATM    9  H   UNL     1     -45.434  61.737 -52.167  1.00  0.00     0.183 HD
HETATM   10  C   UNL     1     -43.441  59.299 -53.007  1.00  0.00     0.134 C 
HETATM   11  H   UNL     1     -43.198  61.353 -53.010  1.00  0.00     0.147 HD
BRANCH  10  12
HETATM   12  C   UNL     1     -42.192  59.375 -52.136  1.00  0.00    -0.004 A 
HETATM   13  C   UNL     1     -42.244  59.769 -50.785  1.00  0.00     0.073 A 
HETATM   14  C   UNL     1     -41.100  59.772 -49.982  1.00  0.00     0.037 A 
HETATM   15  C   UNL     1     -39.876  59.359 -50.496  1.00  0.00     0.003 A 
HETATM   16  C   UNL     1     -39.800  58.936 -51.816  1.00  0.00     0.001 A 
HETATM   17  C   UNL     1     -40.944  58.933 -52.621  1.00  0.00     0.012 A 
BRANCH  13  18
HETATM   18  O   UNL     1     -43.385  60.147 -50.134  1.00  0.00    -0.360 OA
HETATM   19  H   UNL     1     -43.924  60.740 -50.679  1.00  0.00     0.217 HD
ENDBRANCH  13  18
ENDBRANCH  10  12
ENDBRANCH   2   4
BRANCH   1  20
HETATM   20  C   UNL     1     -43.778  54.969 -51.522  1.00  0.00     0.164 C 
BRANCH  20  21
HETATM   21  C   UNL     1     -42.361  54.821 -51.012  1.00  0.00    -0.040 A 
HETATM   22  C   UNL     1     -41.670  53.608 -51.166  1.00  0.00     0.009 A 
HETATM   23  C   UNL     1     -40.368  53.466 -50.681  1.00  0.00     0.001 A 
HETATM   24  C   UNL     1     -39.741  54.534 -50.042  1.00  0.00     0.000 A 
HETATM   25  C   UNL     1     -40.412  55.746 -49.890  1.00  0.00     0.001 A 
HETATM   26  C   UNL     1     -41.714  55.889 -50.376  1.00  0.00     0.009 A 
ENDBRANCH  20  21
ENDBRANCH   1  20
BRANCH   1  27
HETATM   27  C   UNL     1     -43.847  55.990 -53.790  1.00  0.00     0.164 C 
BRANCH  27  28
HETATM   28  C   UNL     1     -42.580  55.294 -54.226  1.00  0.00    -0.040 A 
HETATM   29  C   UNL     1     -41.340  55.949 -54.206  1.00  0.00     0.009 A 
HETATM   30  C   UNL     1     -40.174  55.274 -54.572  1.00  0.00     0.001 A 
HETATM   31  C   UNL     1     -40.231  53.935 -54.953  1.00  0.00     0.000 A 
HETATM   32  C   UNL     1     -41.454  53.268 -54.964  1.00  0.00     0.001 A 
HETATM   33  C   UNL     1     -42.620  53.941 -54.597  1.00  0.00     0.009 A 
ENDBRANCH  27  28
ENDBRANCH   1  27
TORSDOF 7
ENDMDL
MODEL 2
REMARK VINA RESULT:      -7.6      2.573      4.101
REMARK  7 active torsions:
REMARK  status: ('A' for Active; 'I' for Inactive)
REMARK    1  A    between atoms: C_4  and  C_5 
REMARK    2  A    between atoms: C_5  and  N_6 
REMARK       I    between atoms: N_6  and  C_7 
REMARK    3  A    between atoms: N_6  and  C_22 
REMARK    4  A    between atoms: C_7  and  C_8 
REMARK    5  A    between atoms: C_13  and  C_14 
REMARK    6  A    between atoms: C_15  and  O_16 
REMARK    7  A    between atoms: C_22  and  C_23 
ROOT
HETATM    1  N   UNL     1     -41.547  54.169 -53.968  1.00  0.00    -0.343 N 
HETATM    2  C   UNL     1     -41.841  54.590 -52.669  1.00  0.00     0.235 C 
HETATM    3  O   UNL     1     -40.983  54.538 -51.783  1.00  0.00    -0.272 OA
ENDROOT
BRANCH   2   4
HETATM    4  C   UNL     1     -43.221  55.135 -52.369  1.00  0.00     0.195 C 
HETATM    5  C   UNL     1     -43.757  54.867 -50.998  1.00  0.00     0.247 C 
HETATM    6  O   UNL     1     -43.599  53.874 -50.308  1.00  0.00    -0.271 OA
HETATM    7  N   UNL     1     -44.605  55.918 -50.693  1.00  0.00    -0.290 N 
HETATM    8  N   UNL     1     -44.599  56.940 -51.651  1.00  0.00    -0.228 NA
HETATM    9  H   UNL     1     -45.120  55.951 -49.820  1.00  0.00     0.183 HD
HETATM   10  C   UNL     1     -43.398  56.663 -52.493  1.00  0.00     0.134 C 
HETATM   11  H   UNL     1     -44.476  57.844 -51.182  1.00  0.00     0.147 HD
BRANCH  10  12
HETATM   12  C   UNL     1     -42.288  57.634 -52.108  1.00  0.00    -0.004 A 
HETATM   13  C   UNL     1     -41.657  57.589 -50.851  1.00  0.00     0.073 A 
HETATM   14  C   UNL     1     -40.597  58.444 -50.535  1.00  0.00     0.037 A 
HETATM   15  C   UNL     1     -40.121  59.352 -51.474  1.00  0.00     0.003 A 
HETATM   16  C   UNL     1     -40.704  59.399 -52.733  1.00  0.00     0.001 A 
HETATM   17  C   UNL     1     -41.765  58.544 -53.049  1.00  0.00     0.012 A 
BRANCH  13  18
HETATM   18  O   UNL     1     -41.984  56.713 -49.853  1.00  0.00    -0.360 OA
HETATM   19  H   UNL     1     -41.493  56.902 -49.039  1.00  0.00     0.217 HD
ENDBRANCH  13  18
ENDBRANCH  10  12
ENDBRANCH   2   4
BRANCH   1  20
HETATM   20  C   UNL     1     -40.205  53.636 -54.227  1.00  0.00     0.164 C 
BRANCH  20  21
HETATM   21  C   UNL     1     -40.039  52.208 -53.751  1.00  0.00    -0.040 A 
HETATM   22  C   UNL     1     -39.599  51.938 -52.445  1.00  0.00     0.009 A 
HETATM   23  C   UNL     1     -39.431  50.622 -52.011  1.00  0.00     0.001 A 
HETATM   24  C   UNL     1     -39.703  49.562 -52.875  1.00  0.00     0.000 A 
HETATM   25  C   UNL     1     -40.149  49.816 -54.170  1.00  0.00     0.001 A 
HETATM   26  C   UNL     1     -40.319  51.132 -54.605  1.00  0.00     0.009 A 
ENDBRANCH  20  21
ENDBRANCH   1  20
BRANCH   1  27
HETATM   27  C   UNL     1     -42.543  53.944 -55.018  1.00  0.00     0.164 C 
BRANCH  27  28
HETATM   28  C   UNL     1     -42.612  55.042 -56.052  1.00  0.00    -0.040 A 
HETATM   29  C   UNL     1     -43.208  54.834 -57.305  1.00  0.00     0.009 A 
HETATM   30  C   UNL     1     -43.300  55.875 -58.229  1.00  0.00     0.001 A 
HETATM   31  C   UNL     1     -42.807  57.139 -57.911  1.00  0.00     0.000 A 
HETATM   32  C   UNL     1     -42.226  57.365 -56.666  1.00  0.00     0.001 A 
HETATM   33  C   UNL     1     -42.135  56.325 -55.739  1.00  0.00     0.009 A 
ENDBRANCH  27  28
ENDBRANCH   1  27
TORSDOF 7
ENDMDL
MODEL 3
REMARK VINA RESULT:      -7.4      2.523      5.961
REMARK  7 active torsions:
REMARK  status: ('A' for Active; 'I' for Inactive)
REMARK    1  A    between atoms: C_4  and  C_5 
REMARK    2  A    between atoms: C_5  and  N_6 
REMARK       I    between atoms: N_6  and  C_7 
REMARK    3  A    between atoms: N_6  and  C_22 
REMARK    4  A    between atoms: C_7  and  C_8 
REMARK    5  A    between atoms: C_13  and  C_14 
REMARK    6  A    between atoms: C_15  and  O_16 
REMARK    7  A    between atoms: C_22  and  C_23 
ROOT
HETATM    1  N   UNL     1     -42.608  58.293 -54.477  1.00  0.00    -0.343 N 
HETATM    2  C   UNL     1     -42.186  57.047 -54.948  1.00  0.00     0.235 C 
HETATM    3  O   UNL     1     -40.985  56.770 -55.000  1.00  0.00    -0.272 OA
ENDROOT
BRANCH   2   4
HETATM    4  C   UNL     1     -43.226  56.032 -55.370  1.00  0.00     0.195 C 
HETATM    5  C   UNL     1     -43.043  55.416 -56.721  1.00  0.00     0.247 C 
HETATM    6  O   UNL     1     -42.612  55.939 -57.735  1.00  0.00    -0.271 OA
HETATM    7  N   UNL     1     -43.596  54.148 -56.655  1.00  0.00    -0.290 N 
HETATM    8  N   UNL     1     -44.013  53.783 -55.369  1.00  0.00    -0.228 NA
HETATM    9  H   UNL     1     -43.623  53.536 -57.465  1.00  0.00     0.183 HD
HETATM   10  C   UNL     1     -43.381  54.790 -54.466  1.00  0.00     0.134 C 
HETATM   11  H   UNL     1     -43.643  52.854 -55.143  1.00  0.00     0.147 HD
BRANCH  10  12
HETATM   12  C   UNL     1     -42.185  54.150 -53.771  1.00  0.00    -0.004 A 
HETATM   13  C   UNL     1     -41.852  54.442 -52.434  1.00  0.00     0.073 A 
HETATM   14  C   UNL     1     -40.791  53.799 -51.789  1.00  0.00     0.037 A 
HETATM   15  C   UNL     1     -40.048  52.829 -52.452  1.00  0.00     0.003 A 
HETATM   16  C   UNL     1     -40.371  52.498 -53.761  1.00  0.00     0.001 A 
HETATM   17  C   UNL     1     -41.433  53.142 -54.407  1.00  0.00     0.012 A 
BRANCH  13  18
HETATM   18  O   UNL     1     -42.529  55.331 -51.646  1.00  0.00    -0.360 OA
HETATM   19  H   UNL     1     -42.193  55.326 -50.737  1.00  0.00     0.217 HD
ENDBRANCH  13  18
ENDBRANCH  10  12
ENDBRANCH   2   4
BRANCH   1  20
HETATM   20  C   UNL     1     -41.578  59.260 -54.085  1.00  0.00     0.164 C 
BRANCH  20  21
HETATM   21  C   UNL     1     -41.376  59.327 -52.586  1.00  0.00    -0.040 A 
HETATM   22  C   UNL     1     -40.638  58.336 -51.921  1.00  0.00     0.009 A 
HETATM   23  C   UNL     1     -40.465  58.388 -50.536  1.00  0.00     0.001 A 
HETATM   24  C   UNL     1     -41.023  59.434 -49.802  1.00  0.00     0.000 A 
HETATM   25  C   UNL     1     -41.750  60.429 -50.451  1.00  0.00     0.001 A 
HETATM   26  C   UNL     1     -41.923  60.378 -51.837  1.00  0.00     0.009 A 
ENDBRANCH  20  21
ENDBRANCH   1  20
BRANCH   1  27
HETATM   27  C   UNL     1     -43.969  58.819 -54.612  1.00  0.00     0.164 C 
BRANCH  27  28
HETATM   28  C   UNL     1     -44.715  58.950 -53.307  1.00  0.00    -0.040 A 
HETATM   29  C   UNL     1     -44.640  57.959 -52.317  1.00  0.00     0.009 A 
HETATM   30  C   UNL     1     -45.304  58.120 -51.100  1.00  0.00     0.001 A 
HETATM   31  C   UNL     1     -46.042  59.275 -50.852  1.00  0.00     0.000 A 
HETATM   32  C   UNL     1     -46.114  60.274 -51.820  1.00  0.00     0.001 A 
HETATM   33  C   UNL     1     -45.449  60.116 -53.038  1.00  0.00     0.009 A 
ENDBRANCH  27  28
ENDBRANCH   1  27
TORSDOF 7
ENDMDL
MODEL 4
REMARK VINA RESULT:      -7.1      2.566      4.937
REMARK  7 active torsions:
REMARK  status: ('A' for Active; 'I' for Inactive)
REMARK    1  A    between atoms: C_4  and  C_5 
REMARK    2  A    between atoms: C_5  and  N_6 
REMARK       I    between atoms: N_6  and  C_7 
REMARK    3  A    between atoms: N_6  and  C_22 
REMARK    4  A    between atoms: C_7  and  C_8 
REMARK    5  A    between atoms: C_13  and  C_14 
REMARK    6  A    between atoms: C_15  and  O_16 
REMARK    7  A    between atoms: C_22  and  C_23 
ROOT
HETATM    1  N   UNL     1     -42.124  56.125 -53.590  1.00  0.00    -0.343 N 
HETATM    2  C   UNL     1     -41.386  57.301 -53.434  1.00  0.00     0.235 C 
HETATM    3  O   UNL     1     -41.103  57.997 -54.413  1.00  0.00    -0.272 OA
ENDROOT
BRANCH   2   4
HETATM    4  C   UNL     1     -40.960  57.720 -52.044  1.00  0.00     0.195 C 
HETATM    5  C   UNL     1     -40.040  58.898 -51.959  1.00  0.00     0.247 C 
HETATM    6  O   UNL     1     -39.144  59.210 -52.725  1.00  0.00    -0.271 OA
HETATM    7  N   UNL     1     -40.299  59.514 -50.747  1.00  0.00    -0.290 N 
HETATM    8  N   UNL     1     -41.388  58.965 -50.059  1.00  0.00    -0.228 NA
HETATM    9  H   UNL     1     -39.775  60.328 -50.441  1.00  0.00     0.183 HD
HETATM   10  C   UNL     1     -42.089  58.121 -51.071  1.00  0.00     0.134 C 
HETATM   11  H   UNL     1     -42.017  59.719 -49.761  1.00  0.00     0.147 HD
BRANCH  10  12
HETATM   12  C   UNL     1     -43.338  58.854 -51.548  1.00  0.00    -0.004 A 
HETATM   13  C   UNL     1     -44.634  58.435 -51.192  1.00  0.00     0.073 A 
HETATM   14  C   UNL     1     -45.767  59.154 -51.583  1.00  0.00     0.037 A 
HETATM   15  C   UNL     1     -45.638  60.325 -52.322  1.00  0.00     0.003 A 
HETATM   16  C   UNL     1     -44.371  60.779 -52.663  1.00  0.00     0.001 A 
HETATM   17  C   UNL     1     -43.237  60.060 -52.272  1.00  0.00     0.012 A 
BRANCH  13  18
HETATM   18  O   UNL     1     -44.907  57.337 -50.424  1.00  0.00    -0.360 OA
HETATM   19  H   UNL     1     -45.276  57.588 -49.564  1.00  0.00     0.217 HD
ENDBRANCH  13  18
ENDBRANCH  10  12
ENDBRANCH   2   4
BRANCH   1  20
HETATM   20  C   UNL     1     -42.515  55.737 -54.949  1.00  0.00     0.164 C 
BRANCH  20  21
HETATM   21  C   UNL     1     -43.549  56.666 -55.550  1.00  0.00    -0.040 A 
HETATM   22  C   UNL     1     -44.578  57.198 -54.755  1.00  0.00     0.009 A 
HETATM   23  C   UNL     1     -45.540  58.042 -55.311  1.00  0.00     0.001 A 
HETATM   24  C   UNL     1     -45.485  58.367 -56.666  1.00  0.00     0.000 A 
HETATM   25  C   UNL     1     -44.465  57.854 -57.463  1.00  0.00     0.001 A 
HETATM   26  C   UNL     1     -43.500  57.011 -56.908  1.00  0.00     0.009 A 
ENDBRANCH  20  21
ENDBRANCH   1  20
BRANCH   1  27
HETATM   27  C   UNL     1     -42.293  55.102 -52.554  1.00  0.00     0.164 C 
BRANCH  27  28
HETATM   28  C   UNL     1     -41.339  53.937 -52.672  1.00  0.00    -0.040 A 
HETATM   29  C   UNL     1     -40.546  53.527 -51.591  1.00  0.00     0.009 A 
HETATM   30  C   UNL     1     -39.704  52.420 -51.708  1.00  0.00     0.001 A 
HETATM   31  C   UNL     1     -39.650  51.705 -52.903  1.00  0.00     0.000 A 
HETATM   32  C   UNL     1     -40.442  52.093 -53.980  1.00  0.00     0.001 A 
HETATM   33  C   UNL     1     -41.287  53.198 -53.865  1.00  0.00     0.009 A 
ENDBRANCH  27  28
ENDBRANCH   1  27
TORSDOF 7
ENDMDL
MODEL 5
REMARK VINA RESULT:      -7.1      2.965      3.725
REMARK  7 active torsions:
REMARK  status: ('A' for Active; 'I' for Inactive)
REMARK    1  A    between atoms: C_4  and  C_5 
REMARK    2  A    between atoms: C_5  and  N_6 
REMARK       I    between atoms: N_6  and  C_7 
REMARK    3  A    between atoms: N_6  and  C_22 
REMARK    4  A    between atoms: C_7  and  C_8 
REMARK    5  A    between atoms: C_13  and  C_14 
REMARK    6  A    between atoms: C_15  and  O_16 
REMARK    7  A    between atoms: C_22  and  C_23 
ROOT
HETATM    1  N   UNL     1     -43.227  56.673 -55.299  1.00  0.00    -0.343 N 
HETATM    2  C   UNL     1     -43.767  57.736 -54.570  1.00  0.00     0.235 C 
HETATM    3  O   UNL     1     -44.506  57.523 -53.605  1.00  0.00    -0.272 OA
ENDROOT
BRANCH   2   4
HETATM    4  C   UNL     1     -43.412  59.152 -54.968  1.00  0.00     0.195 C 
HETATM    5  C   UNL     1     -44.449  60.197 -54.696  1.00  0.00     0.247 C 
HETATM    6  O   UNL     1     -45.661  60.091 -54.768  1.00  0.00    -0.271 OA
HETATM    7  N   UNL     1     -43.767  61.382 -54.478  1.00  0.00    -0.290 N 
HETATM    8  N   UNL     1     -42.376  61.230 -54.437  1.00  0.00    -0.228 NA
HETATM    9  H   UNL     1     -44.257  62.253 -54.301  1.00  0.00     0.183 HD
HETATM   10  C   UNL     1     -42.159  59.760 -54.302  1.00  0.00     0.134 C 
HETATM   11  H   UNL     1     -42.008  61.699 -53.602  1.00  0.00     0.147 HD
BRANCH  10  12
HETATM   12  C   UNL     1     -41.784  59.444 -52.859  1.00  0.00    -0.004 A 
HETATM   13  C   UNL     1     -40.961  58.353 -52.520  1.00  0.00     0.073 A 
HETATM   14  C   UNL     1     -40.573  58.114 -51.199  1.00  0.00     0.037 A 
HETATM   15  C   UNL     1     -40.976  58.970 -50.180  1.00  0.00     0.003 A 
HETATM   16  C   UNL     1     -41.763  60.071 -50.487  1.00  0.00     0.001 A 
HETATM   17  C   UNL     1     -42.152  60.311 -51.810  1.00  0.00     0.012 A 
BRANCH  13  18
HETATM   18  O   UNL     1     -40.447  57.463 -53.424  1.00  0.00    -0.360 OA
HETATM   19  H   UNL     1     -40.862  57.563 -54.294  1.00  0.00     0.217 HD
ENDBRANCH  13  18
ENDBRANCH  10  12
ENDBRANCH   2   4
BRANCH   1  20
HETATM   20  C   UNL     1     -43.596  55.311 -54.898  1.00  0.00     0.164 C 
BRANCH  20  21
HETATM   21  C   UNL     1     -42.513  54.623 -54.094  1.00  0.00    -0.040 A 
HETATM   22  C   UNL     1     -42.504  54.703 -52.693  1.00  0.00     0.009 A 
HETATM   23  C   UNL     1     -41.497  54.082 -51.952  1.00  0.00     0.001 A 
HETATM   24  C   UNL     1     -40.490  53.370 -52.603  1.00  0.00     0.000 A 
HETATM   25  C   UNL     1     -40.492  53.275 -53.992  1.00  0.00     0.001 A 
HETATM   26  C   UNL     1     -41.500  53.895 -54.734  1.00  0.00     0.009 A 
ENDBRANCH  20  21
ENDBRANCH   1  20
BRANCH   1  27
HETATM   27  C   UNL     1     -42.561  56.804 -56.597  1.00  0.00     0.164 C 
BRANCH  27  28
HETATM   28  C   UNL     1     -43.458  56.542 -57.784  1.00  0.00    -0.040 A 
HETATM   29  C   UNL     1     -44.459  57.449 -58.160  1.00  0.00     0.009 A 
HETATM   30  C   UNL     1     -45.248  57.208 -59.286  1.00  0.00     0.001 A 
HETATM   31  C   UNL     1     -45.040  56.064 -60.055  1.00  0.00     0.000 A 
HETATM   32  C   UNL     1     -44.040  55.162 -59.701  1.00  0.00     0.001 A 
HETATM   33  C   UNL     1     -43.248  55.402 -58.576  1.00  0.00     0.009 A 
ENDBRANCH  27  28
ENDBRANCH   1  27
TORSDOF 7
ENDMDL
MODEL 6
REMARK VINA RESULT:      -7.1     17.569     19.234
REMARK  7 active torsions:
REMARK  status: ('A' for Active; 'I' for Inactive)
REMARK    1  A    between atoms: C_4  and  C_5 
REMARK    2  A    between atoms: C_5  and  N_6 
REMARK       I    between atoms: N_6  and  C_7 
REMARK    3  A    between atoms: N_6  and  C_22 
REMARK    4  A    between atoms: C_7  and  C_8 
REMARK    5  A    between atoms: C_13  and  C_14 
REMARK    6  A    between atoms: C_15  and  O_16 
REMARK    7  A    between atoms: C_22  and  C_23 
ROOT
HETATM    1  N   UNL     1     -36.005  39.580 -54.318  1.00  0.00    -0.343 N 
HETATM    2  C   UNL     1     -36.305  38.864 -53.157  1.00  0.00     0.235 C 
HETATM    3  O   UNL     1     -36.009  37.670 -53.063  1.00  0.00    -0.272 OA
ENDROOT
BRANCH   2   4
HETATM    4  C   UNL     1     -36.977  39.581 -52.006  1.00  0.00     0.195 C 
HETATM    5  C   UNL     1     -37.639  38.715 -50.980  1.00  0.00     0.247 C 
HETATM    6  O   UNL     1     -38.233  37.664 -51.152  1.00  0.00    -0.271 OA
HETATM    7  N   UNL     1     -37.579  39.406 -49.782  1.00  0.00    -0.290 N 
HETATM    8  N   UNL     1     -36.829  40.587 -49.852  1.00  0.00    -0.228 NA
HETATM    9  H   UNL     1     -37.992  39.036 -48.932  1.00  0.00     0.183 HD
HETATM   10  C   UNL     1     -36.075  40.481 -51.136  1.00  0.00     0.134 C 
HETATM   11  H   UNL     1     -36.160  40.611 -49.074  1.00  0.00     0.147 HD
BRANCH  10  12
HETATM   12  C   UNL     1     -34.628  40.113 -50.832  1.00  0.00    -0.004 A 
HETATM   13  C   UNL     1     -33.550  40.633 -51.574  1.00  0.00     0.073 A 
HETATM   14  C   UNL     1     -32.225  40.337 -51.243  1.00  0.00     0.037 A 
HETATM   15  C   UNL     1     -31.936  39.532 -50.148  1.00  0.00     0.003 A 
HETATM   16  C   UNL     1     -32.976  39.028 -49.379  1.00  0.00     0.001 A 
HETATM   17  C   UNL     1     -34.302  39.324 -49.710  1.00  0.00     0.012 A 
BRANCH  13  18
HETATM   18  O   UNL     1     -33.685  41.480 -52.640  1.00  0.00    -0.360 OA
HETATM   19  H   UNL     1     -33.553  42.403 -52.378  1.00  0.00     0.217 HD
ENDBRANCH  13  18
ENDBRANCH  10  12
ENDBRANCH   2   4
BRANCH   1  20
HETATM   20  C   UNL     1     -35.363  38.858 -55.421  1.00  0.00     0.164 C 
BRANCH  20  21
HETATM   21  C   UNL     1     -33.873  39.113 -55.500  1.00  0.00    -0.040 A 
HETATM   22  C   UNL     1     -33.339  39.905 -56.530  1.00  0.00     0.009 A 
HETATM   23  C   UNL     1     -31.963  40.128 -56.613  1.00  0.00     0.001 A 
HETATM   24  C   UNL     1     -31.106  39.567 -55.666  1.00  0.00     0.000 A 
HETATM   25  C   UNL     1     -31.624  38.788 -54.634  1.00  0.00     0.001 A 
HETATM   26  C   UNL     1     -33.000  38.565 -54.550  1.00  0.00     0.009 A 
ENDBRANCH  20  21
ENDBRANCH   1  20
BRANCH   1  27
HETATM   27  C   UNL     1     -36.533  40.909 -54.639  1.00  0.00     0.164 C 
BRANCH  27  28
HETATM   28  C   UNL     1     -36.931  41.086 -56.084  1.00  0.00    -0.040 A 
HETATM   29  C   UNL     1     -36.233  41.954 -56.936  1.00  0.00     0.009 A 
HETATM   30  C   UNL     1     -36.590  42.069 -58.281  1.00  0.00     0.001 A 
HETATM   31  C   UNL     1     -37.642  41.312 -58.792  1.00  0.00     0.000 A 
HETATM   32  C   UNL     1     -38.335  40.436 -57.962  1.00  0.00     0.001 A 
HETATM   33  C   UNL     1     -37.978  40.317 -56.618  1.00  0.00     0.009 A 
ENDBRANCH  27  28
ENDBRANCH   1  27
TORSDOF 7
ENDMDL
MODEL 7
REMARK VINA RESULT:      -7.0      3.303      5.386
REMARK  7 active torsions:
REMARK  status: ('A' for Active; 'I' for Inactive)
REMARK    1  A    between atoms: C_4  and  C_5 
REMARK    2  A    between atoms: C_5  and  N_6 
REMARK       I    between atoms: N_6  and  C_7 
REMARK    3  A    between atoms: N_6  and  C_22 
REMARK    4  A    between atoms: C_7  and  C_8 
REMARK    5  A    between atoms: C_13  and  C_14 
REMARK    6  A    between atoms: C_15  and  O_16 
REMARK    7  A    between atoms: C_22  and  C_23 
ROOT
HETATM    1  N   UNL     1     -42.383  56.071 -53.266  1.00  0.00    -0.343 N 
HETATM    2  C   UNL     1     -43.142  56.113 -54.438  1.00  0.00     0.235 C 
HETATM    3  O   UNL     1     -44.374  56.143 -54.386  1.00  0.00    -0.272 OA
ENDROOT
BRANCH   2   4
HETATM    4  C   UNL     1     -42.429  56.145 -55.772  1.00  0.00     0.195 C 
HETATM    5  C   UNL     1     -42.979  55.252 -56.840  1.00  0.00     0.247 C 
HETATM    6  O   UNL     1     -43.469  54.143 -56.716  1.00  0.00    -0.271 OA
HETATM    7  N   UNL     1     -42.698  55.865 -58.050  1.00  0.00    -0.290 N 
HETATM    8  N   UNL     1     -42.139  57.142 -57.916  1.00  0.00    -0.228 NA
HETATM    9  H   UNL     1     -42.946  55.435 -58.935  1.00  0.00     0.183 HD
HETATM   10  C   UNL     1     -42.374  57.511 -56.489  1.00  0.00     0.134 C 
HETATM   11  H   UNL     1     -42.647  57.800 -58.518  1.00  0.00     0.147 HD
BRANCH  10  12
HETATM   12  C   UNL     1     -43.529  58.502 -56.417  1.00  0.00    -0.004 A 
HETATM   13  C   UNL     1     -44.722  58.317 -57.142  1.00  0.00     0.073 A 
HETATM   14  C   UNL     1     -45.798  59.200 -57.017  1.00  0.00     0.037 A 
HETATM   15  C   UNL     1     -45.723  60.282 -56.146  1.00  0.00     0.003 A 
HETATM   16  C   UNL     1     -44.571  60.474 -55.396  1.00  0.00     0.001 A 
HETATM   17  C   UNL     1     -43.494  59.590 -55.521  1.00  0.00     0.012 A 
BRANCH  13  18
HETATM   18  O   UNL     1     -44.954  57.270 -57.991  1.00  0.00    -0.360 OA
HETATM   19  H   UNL     1     -44.608  56.439 -57.633  1.00  0.00     0.217 HD
ENDBRANCH  13  18
ENDBRANCH  10  12
ENDBRANCH   2   4
BRANCH   1  20
HETATM   20  C   UNL     1     -43.100  56.030 -51.987  1.00  0.00     0.164 C 
BRANCH  20  21
HETATM   21  C   UNL     1     -43.605  57.390 -51.554  1.00  0.00    -0.040 A 
HETATM   22  C   UNL     1     -42.740  58.495 -51.520  1.00  0.00     0.009 A 
HETATM   23  C   UNL     1     -43.201  59.745 -51.106  1.00  0.00     0.001 A 
HETATM   24  C   UNL     1     -44.533  59.908 -50.726  1.00  0.00     0.000 A 
HETATM   25  C   UNL     1     -45.404  58.822 -50.764  1.00  0.00     0.001 A 
HETATM   26  C   UNL     1     -44.944  57.570 -51.180  1.00  0.00     0.009 A 
ENDBRANCH  20  21
ENDBRANCH   1  20
BRANCH   1  27
HETATM   27  C   UNL     1     -40.949  55.774 -53.210  1.00  0.00     0.164 C 
BRANCH  27  28
HETATM   28  C   UNL     1     -40.621  54.301 -53.165  1.00  0.00    -0.040 A 
HETATM   29  C   UNL     1     -40.499  53.541 -54.337  1.00  0.00     0.009 A 
HETATM   30  C   UNL     1     -40.153  52.190 -54.274  1.00  0.00     0.001 A 
HETATM   31  C   UNL     1     -39.915  51.585 -53.042  1.00  0.00     0.000 A 
HETATM   32  C   UNL     1     -40.019  52.331 -51.871  1.00  0.00     0.001 A 
HETATM   33  C   UNL     1     -40.363  53.682 -51.931  1.00  0.00     0.009 A 
ENDBRANCH  27  28
ENDBRANCH   1  27
TORSDOF 7
ENDMDL
MODEL 8
REMARK VINA RESULT:      -7.0      2.894      5.344
REMARK  7 active torsions:
REMARK  status: ('A' for Active; 'I' for Inactive)
REMARK    1  A    between atoms: C_4  and  C_5 
REMARK    2  A    between atoms: C_5  and  N_6 
REMARK       I    between atoms: N_6  and  C_7 
REMARK    3  A    between atoms: N_6  and  C_22 
REMARK    4  A    between atoms: C_7  and  C_8 
REMARK    5  A    between atoms: C_13  and  C_14 
REMARK    6  A    between atoms: C_15  and  O_16 
REMARK    7  A    between atoms: C_22  and  C_23 
ROOT
HETATM    1  N   UNL     1     -42.194  55.971 -54.358  1.00  0.00    -0.343 N 
HETATM    2  C   UNL     1     -42.038  57.174 -53.666  1.00  0.00     0.235 C 
HETATM    3  O   UNL     1     -41.348  58.083 -54.137  1.00  0.00    -0.272 OA
ENDROOT
BRANCH   2   4
HETATM    4  C   UNL     1     -42.747  57.356 -52.342  1.00  0.00     0.195 C 
HETATM    5  C   UNL     1     -42.114  58.307 -51.375  1.00  0.00     0.247 C 
HETATM    6  O   UNL     1     -40.927  58.507 -51.183  1.00  0.00    -0.271 OA
HETATM    7  N   UNL     1     -43.141  58.837 -50.614  1.00  0.00    -0.290 N 
HETATM    8  N   UNL     1     -44.417  58.454 -51.046  1.00  0.00    -0.228 NA
HETATM    9  H   UNL     1     -42.962  59.493 -49.860  1.00  0.00     0.183 HD
HETATM   10  C   UNL     1     -44.198  57.876 -52.405  1.00  0.00     0.134 C 
HETATM   11  H   UNL     1     -45.012  59.286 -51.129  1.00  0.00     0.147 HD
BRANCH  10  12
HETATM   12  C   UNL     1     -44.642  58.892 -53.452  1.00  0.00    -0.004 A 
HETATM   13  C   UNL     1     -45.142  58.501 -54.709  1.00  0.00     0.073 A 
HETATM   14  C   UNL     1     -45.605  59.441 -55.634  1.00  0.00     0.037 A 
HETATM   15  C   UNL     1     -45.605  60.796 -55.322  1.00  0.00     0.003 A 
HETATM   16  C   UNL     1     -45.146  61.209 -54.079  1.00  0.00     0.001 A 
HETATM   17  C   UNL     1     -44.682  60.269 -53.153  1.00  0.00     0.012 A 
BRANCH  13  18
HETATM   18  O   UNL     1     -45.251  57.204 -55.128  1.00  0.00    -0.360 OA
HETATM   19  H   UNL     1     -45.202  56.586 -54.383  1.00  0.00     0.217 HD
ENDBRANCH  13  18
ENDBRANCH  10  12
ENDBRANCH   2   4
BRANCH   1  20
HETATM   20  C   UNL     1     -41.487  55.818 -55.634  1.00  0.00     0.164 C 
BRANCH  20  21
HETATM   21  C   UNL     1     -42.335  56.212 -56.825  1.00  0.00    -0.040 A 
HETATM   22  C   UNL     1     -42.448  57.558 -57.207  1.00  0.00     0.009 A 
HETATM   23  C   UNL     1     -43.242  57.923 -58.296  1.00  0.00     0.001 A 
HETATM   24  C   UNL     1     -43.929  56.948 -59.017  1.00  0.00     0.000 A 
HETATM   25  C   UNL     1     -43.819  55.608 -58.654  1.00  0.00     0.001 A 
HETATM   26  C   UNL     1     -43.024  55.241 -57.566  1.00  0.00     0.009 A 
ENDBRANCH  20  21
ENDBRANCH   1  20
BRANCH   1  27
HETATM   27  C   UNL     1     -42.764  54.747 -53.787  1.00  0.00     0.164 C 
BRANCH  27  28
HETATM   28  C   UNL     1     -41.740  53.712 -53.391  1.00  0.00    -0.040 A 
HETATM   29  C   UNL     1     -41.339  52.700 -54.276  1.00  0.00     0.009 A 
HETATM   30  C   UNL     1     -40.358  51.779 -53.905  1.00  0.00     0.001 A 
HETATM   31  C   UNL     1     -39.759  51.863 -52.649  1.00  0.00     0.000 A 
HETATM   32  C   UNL     1     -40.136  52.871 -51.766  1.00  0.00     0.001 A 
HETATM   33  C   UNL     1     -41.116  53.794 -52.136  1.00  0.00     0.009 A 
ENDBRANCH  27  28
ENDBRANCH   1  27
TORSDOF 7
ENDMDL
MODEL 9
REMARK VINA RESULT:      -6.7     17.184     19.505
REMARK  7 active torsions:
REMARK  status: ('A' for Active; 'I' for Inactive)
REMARK    1  A    between atoms: C_4  and  C_5 
REMARK    2  A    between atoms: C_5  and  N_6 
REMARK       I    between atoms: N_6  and  C_7 
REMARK    3  A    between atoms: N_6  and  C_22 
REMARK    4  A    between atoms: C_7  and  C_8 
REMARK    5  A    between atoms: C_13  and  C_14 
REMARK    6  A    between atoms: C_15  and  O_16 
REMARK    7  A    between atoms: C_22  and  C_23 
ROOT
HETATM    1  N   UNL     1     -34.760  39.155 -55.710  1.00  0.00    -0.343 N 
HETATM    2  C   UNL     1     -35.659  39.339 -54.657  1.00  0.00     0.235 C 
HETATM    3  O   UNL     1     -36.087  38.372 -54.022  1.00  0.00    -0.272 OA
ENDROOT
BRANCH   2   4
HETATM    4  C   UNL     1     -36.082  40.745 -54.291  1.00  0.00     0.195 C 
HETATM    5  C   UNL     1     -37.307  40.870 -53.440  1.00  0.00     0.247 C 
HETATM    6  O   UNL     1     -38.312  40.181 -53.461  1.00  0.00    -0.271 OA
HETATM    7  N   UNL     1     -37.153  42.026 -52.694  1.00  0.00    -0.290 N 
HETATM    8  N   UNL     1     -35.898  42.629 -52.845  1.00  0.00    -0.228 NA
HETATM    9  H   UNL     1     -37.873  42.348 -52.055  1.00  0.00     0.183 HD
HETATM   10  C   UNL     1     -35.056  41.590 -53.507  1.00  0.00     0.134 C 
HETATM   11  H   UNL     1     -35.507  42.835 -51.920  1.00  0.00     0.147 HD
BRANCH  10  12
HETATM   12  C   UNL     1     -34.130  40.967 -52.469  1.00  0.00    -0.004 A 
HETATM   13  C   UNL     1     -32.794  40.633 -52.761  1.00  0.00     0.073 A 
HETATM   14  C   UNL     1     -31.938  40.123 -51.781  1.00  0.00     0.037 A 
HETATM   15  C   UNL     1     -32.384  39.953 -50.475  1.00  0.00     0.003 A 
HETATM   16  C   UNL     1     -33.687  40.301 -50.150  1.00  0.00     0.001 A 
HETATM   17  C   UNL     1     -34.544  40.812 -51.130  1.00  0.00     0.012 A 
BRANCH  13  18
HETATM   18  O   UNL     1     -32.206  40.799 -53.985  1.00  0.00    -0.360 OA
HETATM   19  H   UNL     1     -32.768  41.318 -54.580  1.00  0.00     0.217 HD
ENDBRANCH  13  18
ENDBRANCH  10  12
ENDBRANCH   2   4
BRANCH   1  20
HETATM   20  C   UNL     1     -34.375  37.781 -56.049  1.00  0.00     0.164 C 
BRANCH  20  21
HETATM   21  C   UNL     1     -32.960  37.447 -55.627  1.00  0.00    -0.040 A 
HETATM   22  C   UNL     1     -32.642  37.277 -54.270  1.00  0.00     0.009 A 
HETATM   23  C   UNL     1     -31.334  36.985 -53.879  1.00  0.00     0.001 A 
HETATM   24  C   UNL     1     -30.331  36.854 -54.839  1.00  0.00     0.000 A 
HETATM   25  C   UNL     1     -30.635  37.012 -56.189  1.00  0.00     0.001 A 
HETATM   26  C   UNL     1     -31.944  37.303 -56.581  1.00  0.00     0.009 A 
ENDBRANCH  20  21
ENDBRANCH   1  20
BRANCH   1  27
HETATM   27  C   UNL     1     -34.394  40.186 -56.685  1.00  0.00     0.164 C 
BRANCH  27  28
HETATM   28  C   UNL     1     -35.490  40.530 -57.665  1.00  0.00    -0.040 A 
HETATM   29  C   UNL     1     -36.041  41.818 -57.727  1.00  0.00     0.009 A 
HETATM   30  C   UNL     1     -37.022  42.126 -58.670  1.00  0.00     0.001 A 
HETATM   31  C   UNL     1     -37.459  41.154 -59.568  1.00  0.00     0.000 A 
HETATM   32  C   UNL     1     -36.910  39.875 -59.528  1.00  0.00     0.001 A 
HETATM   33  C   UNL     1     -35.927  39.566 -58.588  1.00  0.00     0.009 A 
ENDBRANCH  27  28
ENDBRANCH   1  27
TORSDOF 7
ENDMDL
MODEL 10
REMARK VINA RESULT:      -6.7      2.118      3.398
REMARK  7 active torsions:
REMARK  status: ('A' for Active; 'I' for Inactive)
REMARK    1  A    between atoms: C_4  and  C_5 
REMARK    2  A    between atoms: C_5  and  N_6 
REMARK       I    between atoms: N_6  and  C_7 
REMARK    3  A    between atoms: N_6  and  C_22 
REMARK    4  A    between atoms: C_7  and  C_8 
REMARK    5  A    between atoms: C_13  and  C_14 
REMARK    6  A    between atoms: C_15  and  O_16 
REMARK    7  A    between atoms: C_22  and  C_23 
ROOT
HETATM    1  N   UNL     1     -41.246  54.122 -51.983  1.00  0.00    -0.343 N 
HETATM    2  C   UNL     1     -41.907  55.082 -51.212  1.00  0.00     0.235 C 
HETATM    3  O   UNL     1     -41.447  55.437 -50.123  1.00  0.00    -0.272 OA
ENDROOT
BRANCH   2   4
HETATM    4  C   UNL     1     -43.183  55.697 -51.743  1.00  0.00     0.195 C 
HETATM    5  C   UNL     1     -44.304  55.851 -50.763  1.00  0.00     0.247 C 
HETATM    6  O   UNL     1     -44.611  55.107 -49.848  1.00  0.00    -0.271 OA
HETATM    7  N   UNL     1     -45.040  56.949 -51.174  1.00  0.00    -0.290 N 
HETATM    8  N   UNL     1     -44.465  57.641 -52.248  1.00  0.00    -0.228 NA
HETATM    9  H   UNL     1     -45.878  57.242 -50.684  1.00  0.00     0.183 HD
HETATM   10  C   UNL     1     -43.068  57.120 -52.329  1.00  0.00     0.134 C 
HETATM   11  H   UNL     1     -44.435  58.642 -52.030  1.00  0.00     0.147 HD
BRANCH  10  12
HETATM   12  C   UNL     1     -42.118  58.157 -51.740  1.00  0.00    -0.004 A 
HETATM   13  C   UNL     1     -42.557  59.150 -50.843  1.00  0.00     0.073 A 
HETATM   14  C   UNL     1     -41.663  60.053 -50.260  1.00  0.00     0.037 A 
HETATM   15  C   UNL     1     -40.303  59.977 -50.539  1.00  0.00     0.003 A 
HETATM   16  C   UNL     1     -39.837  58.990 -51.396  1.00  0.00     0.001 A 
HETATM   17  C   UNL     1     -40.731  58.085 -51.979  1.00  0.00     0.012 A 
BRANCH  13  18
HETATM   18  O   UNL     1     -43.854  59.307 -50.437  1.00  0.00    -0.360 OA
HETATM   19  H   UNL     1     -44.193  60.184 -50.667  1.00  0.00     0.217 HD
ENDBRANCH  13  18
ENDBRANCH  10  12
ENDBRANCH   2   4
BRANCH   1  20
HETATM   20  C   UNL     1     -40.017  53.535 -51.439  1.00  0.00     0.164 C 
BRANCH  20  21
HETATM   21  C   UNL     1     -39.869  52.067 -51.774  1.00  0.00    -0.040 A 
HETATM   22  C   UNL     1     -39.942  51.093 -50.765  1.00  0.00     0.009 A 
HETATM   23  C   UNL     1     -39.791  49.740 -51.072  1.00  0.00     0.001 A 
HETATM   24  C   UNL     1     -39.569  49.343 -52.390  1.00  0.00     0.000 A 
HETATM   25  C   UNL     1     -39.504  50.298 -53.402  1.00  0.00     0.001 A 
HETATM   26  C   UNL     1     -39.657  51.652 -53.097  1.00  0.00     0.009 A 
ENDBRANCH  20  21
ENDBRANCH   1  20
BRANCH   1  27
HETATM   27  C   UNL     1     -41.823  53.445 -53.147  1.00  0.00     0.164 C 
BRANCH  27  28
HETATM   28  C   UNL     1     -42.004  54.333 -54.355  1.00  0.00    -0.040 A 
HETATM   29  C   UNL     1     -43.102  54.187 -55.215  1.00  0.00     0.009 A 
HETATM   30  C   UNL     1     -43.273  55.047 -56.301  1.00  0.00     0.001 A 
HETATM   31  C   UNL     1     -42.354  56.069 -56.535  1.00  0.00     0.000 A 
HETATM   32  C   UNL     1     -41.267  56.235 -55.681  1.00  0.00     0.001 A 
HETATM   33  C   UNL     1     -41.095  55.377 -54.593  1.00  0.00     0.009 A 
ENDBRANCH  27  28
ENDBRANCH   1  27
TORSDOF 7
ENDMDL
