MODEL 1
REMARK VINA RESULT:      -7.6      0.000      0.000
REMARK  7 active torsions:
REMARK  status: ('A' for Active; 'I' for Inactive)
REMARK    1  A    between atoms: C_2  and  O_3 
REMARK    2  A    between atoms: O_3  and  C_4 
REMARK    3  A    between atoms: C_4  and  C_5 
REMARK    4  A    between atoms: C_12  and  C_13 
REMARK    5  A    between atoms: C_13  and  N_14 
REMARK    6  A    between atoms: C_19  and  N_20 
REMARK    7  A    between atoms: N_23  and  C_25 
ROOT
HETATM    1  C   UNL     1     -40.671  53.115 -52.504  1.00  0.00     0.089 C 
HETATM    2  S   UNL     1     -41.137  53.042 -54.148  1.00  0.00    -0.063 SA
HETATM    3  C   UNL     1     -41.917  54.543 -54.070  1.00  0.00     0.115 C 
HETATM    4  C   UNL     1     -41.922  55.096 -52.803  1.00  0.00     0.053 C 
HETATM    5  C   UNL     1     -41.019  54.344 -51.939  1.00  0.00    -0.022 C 
HETATM    6  C   UNL     1     -40.528  54.796 -50.593  1.00  0.00     0.051 C 
HETATM    7  N   UNL     1     -42.466  55.061 -55.179  1.00  0.00    -0.224 NA
HETATM    8  C   UNL     1     -43.082  56.228 -54.960  1.00  0.00     0.155 C 
HETATM    9  N   UNL     1     -43.275  56.812 -53.759  1.00  0.00    -0.213 NA
HETATM   10  C   UNL     1     -42.723  56.262 -52.639  1.00  0.00     0.141 C 
ENDROOT
BRANCH  10  11
HETATM   11  N   UNL     1     -42.961  56.870 -51.408  1.00  0.00    -0.362 N 
HETATM   12  C   UNL     1     -44.366  56.939 -50.956  1.00  0.00     0.152 C 
HETATM   13  C   UNL     1     -45.036  58.278 -51.321  1.00  0.00     0.255 C 
HETATM   14  N   UNL     1     -44.207  59.460 -50.816  1.00  0.00    -0.064 N 
HETATM   15  H   UNL     1     -44.111  59.347 -49.797  1.00  0.00     0.280 HD
HETATM   16  C   UNL     1     -42.793  59.371 -51.413  1.00  0.00     0.255 C 
HETATM   17  C   UNL     1     -42.130  58.028 -51.037  1.00  0.00     0.152 C 
BRANCH  14  18
HETATM   18  C   UNL     1     -44.884  60.790 -51.060  1.00  0.00     0.188 C 
HETATM   19  C   UNL     1     -46.177  60.630 -51.855  1.00  0.00     0.033 C 
HETATM   20  C   UNL     1     -46.909  61.935 -51.593  1.00  0.00     0.002 C 
HETATM   21  C   UNL     1     -46.541  62.325 -50.165  1.00  0.00     0.002 C 
HETATM   22  C   UNL     1     -45.373  61.425 -49.760  1.00  0.00     0.033 C 
ENDBRANCH  14  18
ENDBRANCH  10  11
BRANCH   8  23
HETATM   23  C   UNL     1     -43.523  56.972 -56.217  1.00  0.00     0.314 C 
BRANCH  23  24
HETATM   24  N   UNL     1     -42.553  56.835 -57.395  1.00  0.00    -0.072 N 
HETATM   25  H   UNL     1     -41.734  56.347 -56.992  1.00  0.00     0.279 HD
HETATM   26  C   UNL     1     -43.071  55.934 -58.477  1.00  0.00     0.269 C 
HETATM   27  C   UNL     1     -42.077  58.151 -57.925  1.00  0.00     0.269 C 
ENDBRANCH  23  24
ENDBRANCH   8  23
BRANCH   1  28
HETATM   28  C   UNL     1     -39.983  52.003 -51.851  1.00  0.00     0.300 C 
HETATM   29  O   UNL     1     -40.163  51.674 -50.685  1.00  0.00    -0.259 OA
BRANCH  28  30
HETATM   30  O   UNL     1     -39.192  51.322 -52.727  1.00  0.00    -0.317 OA
BRANCH  30  31
HETATM   31  C   UNL     1     -39.575  49.963 -52.994  1.00  0.00     0.174 C 
HETATM   32  C   UNL     1     -39.665  49.736 -54.492  1.00  0.00     0.034 C 
ENDBRANCH  30  31
ENDBRANCH  28  30
ENDBRANCH   1  28
TORSDOF 7
ENDMDL
MODEL 2
REMARK VINA RESULT:      -7.4      4.088      7.673
REMARK  7 active torsions:
REMARK  status: ('A' for Active; 'I' for Inactive)
REMARK    1  A    between atoms: C_2  and  O_3 
REMARK    2  A    between atoms: O_3  and  C_4 
REMARK    3  A    between atoms: C_4  and  C_5 
REMARK    4  A    between atoms: C_12  and  C_13 
REMARK    5  A    between atoms: C_13  and  N_14 
REMARK    6  A    between atoms: C_19  and  N_20 
REMARK    7  A    between atoms: N_23  and  C_25 
ROOT
HETATM    1  C   UNL     1     -44.204  58.043 -58.266  1.00  0.00     0.089 C 
HETATM    2  S   UNL     1     -44.207  59.544 -57.447  1.00  0.00    -0.063 SA
HETATM    3  C   UNL     1     -43.398  58.898 -56.107  1.00  0.00     0.115 C 
HETATM    4  C   UNL     1     -43.179  57.535 -56.200  1.00  0.00     0.053 C 
HETATM    5  C   UNL     1     -43.479  57.084 -57.553  1.00  0.00    -0.022 C 
HETATM    6  C   UNL     1     -43.094  55.751 -58.130  1.00  0.00     0.051 C 
HETATM    7  N   UNL     1     -43.057  59.703 -55.089  1.00  0.00    -0.224 NA
HETATM    8  C   UNL     1     -42.462  59.050 -54.084  1.00  0.00     0.155 C 
HETATM    9  N   UNL     1     -42.306  57.713 -53.987  1.00  0.00    -0.213 NA
HETATM   10  C   UNL     1     -42.674  56.908 -55.025  1.00  0.00     0.141 C 
ENDROOT
BRANCH  10  11
HETATM   11  N   UNL     1     -42.527  55.529 -54.887  1.00  0.00    -0.362 N 
HETATM   12  C   UNL     1     -43.584  54.815 -54.143  1.00  0.00     0.152 C 
HETATM   13  C   UNL     1     -43.229  54.621 -52.656  1.00  0.00     0.255 C 
HETATM   14  N   UNL     1     -41.861  53.953 -52.503  1.00  0.00    -0.064 N 
HETATM   15  H   UNL     1     -41.907  53.054 -53.005  1.00  0.00     0.280 HD
HETATM   16  C   UNL     1     -40.803  54.811 -53.216  1.00  0.00     0.255 C 
HETATM   17  C   UNL     1     -41.167  54.994 -54.705  1.00  0.00     0.152 C 
BRANCH  14  18
HETATM   18  C   UNL     1     -41.522  53.648 -51.062  1.00  0.00     0.188 C 
HETATM   19  C   UNL     1     -40.018  53.715 -50.809  1.00  0.00     0.033 C 
HETATM   20  C   UNL     1     -39.926  53.850 -49.297  1.00  0.00     0.002 C 
HETATM   21  C   UNL     1     -41.145  54.673 -48.891  1.00  0.00     0.002 C 
HETATM   22  C   UNL     1     -42.063  54.716 -50.113  1.00  0.00     0.033 C 
ENDBRANCH  14  18
ENDBRANCH  10  11
BRANCH   8  23
HETATM   23  C   UNL     1     -41.850  59.941 -53.008  1.00  0.00     0.314 C 
BRANCH  23  24
HETATM   24  N   UNL     1     -42.084  59.442 -51.579  1.00  0.00    -0.072 N 
HETATM   25  H   UNL     1     -42.210  58.420 -51.686  1.00  0.00     0.279 HD
HETATM   26  C   UNL     1     -40.882  59.611 -50.697  1.00  0.00     0.269 C 
HETATM   27  C   UNL     1     -43.331  59.988 -50.958  1.00  0.00     0.269 C 
ENDBRANCH  23  24
ENDBRANCH   8  23
BRANCH   1  28
HETATM   28  C   UNL     1     -44.876  57.868 -59.552  1.00  0.00     0.300 C 
HETATM   29  O   UNL     1     -44.335  58.030 -60.638  1.00  0.00    -0.259 OA
BRANCH  28  30
HETATM   30  O   UNL     1     -46.149  57.407 -59.391  1.00  0.00    -0.317 OA
BRANCH  30  31
HETATM   31  C   UNL     1     -46.479  56.207 -60.108  1.00  0.00     0.174 C 
HETATM   32  C   UNL     1     -47.510  56.512 -61.179  1.00  0.00     0.034 C 
ENDBRANCH  30  31
ENDBRANCH  28  30
ENDBRANCH   1  28
TORSDOF 7
ENDMDL
MODEL 3
REMARK VINA RESULT:      -7.3      2.172      6.105
REMARK  7 active torsions:
REMARK  status: ('A' for Active; 'I' for Inactive)
REMARK    1  A    between atoms: C_2  and  O_3 
REMARK    2  A    between atoms: O_3  and  C_4 
REMARK    3  A    between atoms: C_4  and  C_5 
REMARK    4  A    between atoms: C_12  and  C_13 
REMARK    5  A    between atoms: C_13  and  N_14 
REMARK    6  A    between atoms: C_19  and  N_20 
REMARK    7  A    between atoms: N_23  and  C_25 
ROOT
HETATM    1  C   UNL     1     -41.445  55.704 -50.379  1.00  0.00     0.089 C 
HETATM    2  S   UNL     1     -40.827  57.277 -50.114  1.00  0.00    -0.063 SA
HETATM    3  C   UNL     1     -41.808  57.945 -51.322  1.00  0.00     0.115 C 
HETATM    4  C   UNL     1     -42.557  57.005 -52.006  1.00  0.00     0.053 C 
HETATM    5  C   UNL     1     -42.483  55.724 -51.313  1.00  0.00    -0.022 C 
HETATM    6  C   UNL     1     -43.379  54.545 -51.569  1.00  0.00     0.051 C 
HETATM    7  N   UNL     1     -41.783  59.269 -51.537  1.00  0.00    -0.224 NA
HETATM    8  C   UNL     1     -42.575  59.650 -52.545  1.00  0.00     0.155 C 
HETATM    9  N   UNL     1     -43.254  58.830 -53.375  1.00  0.00    -0.213 NA
HETATM   10  C   UNL     1     -43.254  57.484 -53.151  1.00  0.00     0.141 C 
ENDROOT
BRANCH  10  11
HETATM   11  N   UNL     1     -43.941  56.659 -54.040  1.00  0.00    -0.362 N 
HETATM   12  C   UNL     1     -43.136  55.695 -54.817  1.00  0.00     0.152 C 
HETATM   13  C   UNL     1     -42.750  56.236 -56.207  1.00  0.00     0.255 C 
HETATM   14  N   UNL     1     -43.988  56.705 -56.973  1.00  0.00    -0.064 N 
HETATM   15  H   UNL     1     -44.625  55.898 -57.041  1.00  0.00     0.280 HD
HETATM   16  C   UNL     1     -44.712  57.780 -56.145  1.00  0.00     0.255 C 
HETATM   17  C   UNL     1     -45.097  57.224 -54.756  1.00  0.00     0.152 C 
BRANCH  14  18
HETATM   18  C   UNL     1     -43.666  57.144 -58.384  1.00  0.00     0.188 C 
HETATM   19  C   UNL     1     -42.690  58.318 -58.402  1.00  0.00     0.033 C 
HETATM   20  C   UNL     1     -42.149  58.297 -59.822  1.00  0.00     0.002 C 
HETATM   21  C   UNL     1     -42.100  56.823 -60.214  1.00  0.00     0.002 C 
HETATM   22  C   UNL     1     -42.902  56.069 -59.153  1.00  0.00     0.033 C 
ENDBRANCH  14  18
ENDBRANCH  10  11
BRANCH   8  23
HETATM   23  C   UNL     1     -42.762  61.157 -52.686  1.00  0.00     0.314 C 
BRANCH  23  24
HETATM   24  N   UNL     1     -43.586  61.791 -51.561  1.00  0.00    -0.072 N 
HETATM   25  H   UNL     1     -43.285  61.284 -50.711  1.00  0.00     0.279 HD
HETATM   26  C   UNL     1     -43.236  63.230 -51.321  1.00  0.00     0.269 C 
HETATM   27  C   UNL     1     -45.059  61.578 -51.715  1.00  0.00     0.269 C 
ENDBRANCH  23  24
ENDBRANCH   8  23
BRANCH   1  28
HETATM   28  C   UNL     1     -40.917  54.542 -49.666  1.00  0.00     0.300 C 
HETATM   29  O   UNL     1     -41.389  54.102 -48.626  1.00  0.00    -0.259 OA
BRANCH  28  30
HETATM   30  O   UNL     1     -39.900  53.953 -50.357  1.00  0.00    -0.317 OA
BRANCH  30  31
HETATM   31  C   UNL     1     -40.173  52.645 -50.885  1.00  0.00     0.174 C 
HETATM   32  C   UNL     1     -40.219  52.700 -52.401  1.00  0.00     0.034 C 
ENDBRANCH  30  31
ENDBRANCH  28  30
ENDBRANCH   1  28
TORSDOF 7
ENDMDL
MODEL 4
REMARK VINA RESULT:      -7.0      3.968      8.062
REMARK  7 active torsions:
REMARK  status: ('A' for Active; 'I' for Inactive)
REMARK    1  A    between atoms: C_2  and  O_3 
REMARK    2  A    between atoms: O_3  and  C_4 
REMARK    3  A    between atoms: C_4  and  C_5 
REMARK    4  A    between atoms: C_12  and  C_13 
REMARK    5  A    between atoms: C_13  and  N_14 
REMARK    6  A    between atoms: C_19  and  N_20 
REMARK    7  A    between atoms: N_23  and  C_25 
ROOT
HETATM    1  C   UNL     1     -44.230  60.898 -54.604  1.00  0.00     0.089 C 
HETATM    2  S   UNL     1     -43.913  60.916 -56.284  1.00  0.00    -0.063 SA
HETATM    3  C   UNL     1     -43.757  59.230 -56.347  1.00  0.00     0.115 C 
HETATM    4  C   UNL     1     -43.855  58.622 -55.109  1.00  0.00     0.053 C 
HETATM    5  C   UNL     1     -44.327  59.589 -54.126  1.00  0.00    -0.022 C 
HETATM    6  C   UNL     1     -44.837  59.254 -52.753  1.00  0.00     0.051 C 
HETATM    7  N   UNL     1     -43.542  58.630 -57.527  1.00  0.00    -0.224 NA
HETATM    8  C   UNL     1     -43.399  57.304 -57.420  1.00  0.00     0.155 C 
HETATM    9  N   UNL     1     -43.341  56.602 -56.269  1.00  0.00    -0.213 NA
HETATM   10  C   UNL     1     -43.545  57.232 -55.077  1.00  0.00     0.141 C 
ENDROOT
BRANCH  10  11
HETATM   11  N   UNL     1     -43.452  56.488 -53.902  1.00  0.00    -0.362 N 
HETATM   12  C   UNL     1     -42.300  56.769 -53.021  1.00  0.00     0.152 C 
HETATM   13  C   UNL     1     -41.119  55.812 -53.275  1.00  0.00     0.255 C 
HETATM   14  N   UNL     1     -41.569  54.353 -53.190  1.00  0.00    -0.064 N 
HETATM   15  H   UNL     1     -41.976  54.217 -52.254  1.00  0.00     0.280 HD
HETATM   16  C   UNL     1     -42.697  54.118 -54.208  1.00  0.00     0.255 C 
HETATM   17  C   UNL     1     -43.876  55.078 -53.941  1.00  0.00     0.152 C 
BRANCH  14  18
HETATM   18  C   UNL     1     -40.419  53.381 -53.327  1.00  0.00     0.188 C 
HETATM   19  C   UNL     1     -40.143  52.644 -52.019  1.00  0.00     0.033 C 
HETATM   20  C   UNL     1     -39.326  51.441 -52.464  1.00  0.00     0.002 C 
HETATM   21  C   UNL     1     -39.874  51.068 -53.839  1.00  0.00     0.002 C 
HETATM   22  C   UNL     1     -40.753  52.238 -54.284  1.00  0.00     0.033 C 
ENDBRANCH  14  18
ENDBRANCH  10  11
BRANCH   8  23
HETATM   23  C   UNL     1     -43.382  56.547 -58.744  1.00  0.00     0.314 C 
BRANCH  23  24
HETATM   24  N   UNL     1     -44.688  55.810 -59.058  1.00  0.00    -0.072 N 
HETATM   25  H   UNL     1     -45.045  55.524 -58.130  1.00  0.00     0.279 HD
HETATM   26  C   UNL     1     -45.740  56.708 -59.639  1.00  0.00     0.269 C 
HETATM   27  C   UNL     1     -44.486  54.567 -59.866  1.00  0.00     0.269 C 
ENDBRANCH  23  24
ENDBRANCH   8  23
BRANCH   1  28
HETATM   28  C   UNL     1     -44.386  62.134 -53.839  1.00  0.00     0.300 C 
HETATM   29  O   UNL     1     -45.417  62.793 -53.802  1.00  0.00    -0.259 OA
BRANCH  28  30
HETATM   30  O   UNL     1     -43.275  62.405 -53.097  1.00  0.00    -0.317 OA
BRANCH  30  31
HETATM   31  C   UNL     1     -43.510  62.811 -51.739  1.00  0.00     0.174 C 
HETATM   32  C   UNL     1     -42.888  61.808 -50.785  1.00  0.00     0.034 C 
ENDBRANCH  30  31
ENDBRANCH  28  30
ENDBRANCH   1  28
TORSDOF 7
ENDMDL
MODEL 5
REMARK VINA RESULT:      -7.0      3.684      7.806
REMARK  7 active torsions:
REMARK  status: ('A' for Active; 'I' for Inactive)
REMARK    1  A    between atoms: C_2  and  O_3 
REMARK    2  A    between atoms: O_3  and  C_4 
REMARK    3  A    between atoms: C_4  and  C_5 
REMARK    4  A    between atoms: C_12  and  C_13 
REMARK    5  A    between atoms: C_13  and  N_14 
REMARK    6  A    between atoms: C_19  and  N_20 
REMARK    7  A    between atoms: N_23  and  C_25 
ROOT
HETATM    1  C   UNL     1     -43.975  60.600 -53.224  1.00  0.00     0.089 C 
HETATM    2  S   UNL     1     -43.373  61.074 -54.753  1.00  0.00    -0.063 SA
HETATM    3  C   UNL     1     -43.200  59.468 -55.264  1.00  0.00     0.115 C 
HETATM    4  C   UNL     1     -43.507  58.542 -54.284  1.00  0.00     0.053 C 
HETATM    5  C   UNL     1     -44.146  59.216 -53.160  1.00  0.00    -0.022 C 
HETATM    6  C   UNL     1     -44.883  58.532 -52.043  1.00  0.00     0.051 C 
HETATM    7  N   UNL     1     -42.782  59.213 -56.513  1.00  0.00    -0.224 NA
HETATM    8  C   UNL     1     -42.653  57.906 -56.764  1.00  0.00     0.155 C 
HETATM    9  N   UNL     1     -42.790  56.907 -55.866  1.00  0.00    -0.213 NA
HETATM   10  C   UNL     1     -43.200  57.187 -54.595  1.00  0.00     0.141 C 
ENDROOT
BRANCH  10  11
HETATM   11  N   UNL     1     -43.307  56.140 -53.681  1.00  0.00    -0.362 N 
HETATM   12  C   UNL     1     -42.331  56.117 -52.572  1.00  0.00     0.152 C 
HETATM   13  C   UNL     1     -41.113  55.225 -52.879  1.00  0.00     0.255 C 
HETATM   14  N   UNL     1     -41.556  53.819 -53.289  1.00  0.00    -0.064 N 
HETATM   15  H   UNL     1     -42.120  53.442 -52.514  1.00  0.00     0.280 HD
HETATM   16  C   UNL     1     -42.484  53.923 -54.511  1.00  0.00     0.255 C 
HETATM   17  C   UNL     1     -43.702  54.816 -54.190  1.00  0.00     0.152 C 
BRANCH  14  18
HETATM   18  C   UNL     1     -40.388  52.879 -53.495  1.00  0.00     0.188 C 
HETATM   19  C   UNL     1     -40.001  52.167 -52.202  1.00  0.00     0.033 C 
HETATM   20  C   UNL     1     -39.181  50.983 -52.691  1.00  0.00     0.002 C 
HETATM   21  C   UNL     1     -39.810  50.578 -54.020  1.00  0.00     0.002 C 
HETATM   22  C   UNL     1     -40.753  51.716 -54.416  1.00  0.00     0.033 C 
ENDBRANCH  14  18
ENDBRANCH  10  11
BRANCH   8  23
HETATM   23  C   UNL     1     -42.403  57.549 -58.226  1.00  0.00     0.314 C 
BRANCH  23  24
HETATM   24  N   UNL     1     -43.682  57.322 -59.038  1.00  0.00    -0.072 N 
HETATM   25  H   UNL     1     -44.421  57.781 -58.479  1.00  0.00     0.279 HD
HETATM   26  C   UNL     1     -43.669  58.035 -60.358  1.00  0.00     0.269 C 
HETATM   27  C   UNL     1     -44.049  55.878 -59.173  1.00  0.00     0.269 C 
ENDBRANCH  23  24
ENDBRANCH   8  23
BRANCH   1  28
HETATM   28  C   UNL     1     -44.267  61.578 -52.178  1.00  0.00     0.300 C 
HETATM   29  O   UNL     1     -45.390  61.987 -51.914  1.00  0.00    -0.259 OA
BRANCH  28  30
HETATM   30  O   UNL     1     -43.148  61.901 -51.471  1.00  0.00    -0.317 OA
BRANCH  30  31
HETATM   31  C   UNL     1     -42.929  61.155 -50.262  1.00  0.00     0.174 C 
HETATM   32  C   UNL     1     -41.697  60.281 -50.410  1.00  0.00     0.034 C 
ENDBRANCH  30  31
ENDBRANCH  28  30
ENDBRANCH   1  28
TORSDOF 7
ENDMDL
MODEL 6
REMARK VINA RESULT:      -6.8      4.132      8.397
REMARK  7 active torsions:
REMARK  status: ('A' for Active; 'I' for Inactive)
REMARK    1  A    between atoms: C_2  and  O_3 
REMARK    2  A    between atoms: O_3  and  C_4 
REMARK    3  A    between atoms: C_4  and  C_5 
REMARK    4  A    between atoms: C_12  and  C_13 
REMARK    5  A    between atoms: C_13  and  N_14 
REMARK    6  A    between atoms: C_19  and  N_20 
REMARK    7  A    between atoms: N_23  and  C_25 
ROOT
HETATM    1  C   UNL     1     -44.035  58.681 -57.811  1.00  0.00     0.089 C 
HETATM    2  S   UNL     1     -43.653  59.992 -56.781  1.00  0.00    -0.063 SA
HETATM    3  C   UNL     1     -42.781  59.000 -55.720  1.00  0.00     0.115 C 
HETATM    4  C   UNL     1     -42.821  57.660 -56.060  1.00  0.00     0.053 C 
HETATM    5  C   UNL     1     -43.393  57.513 -57.394  1.00  0.00    -0.022 C 
HETATM    6  C   UNL     1     -43.338  56.264 -58.229  1.00  0.00     0.051 C 
HETATM    7  N   UNL     1     -42.157  59.547 -54.666  1.00  0.00    -0.224 NA
HETATM    8  C   UNL     1     -41.544  58.642 -53.895  1.00  0.00     0.155 C 
HETATM    9  N   UNL     1     -41.613  57.301 -54.035  1.00  0.00    -0.213 NA
HETATM   10  C   UNL     1     -42.267  56.763 -55.104  1.00  0.00     0.141 C 
ENDROOT
BRANCH  10  11
HETATM   11  N   UNL     1     -42.346  55.375 -55.210  1.00  0.00    -0.362 N 
HETATM   12  C   UNL     1     -43.089  54.664 -54.150  1.00  0.00     0.152 C 
HETATM   13  C   UNL     1     -42.166  54.149 -53.029  1.00  0.00     0.255 C 
HETATM   14  N   UNL     1     -41.028  53.303 -53.603  1.00  0.00    -0.064 N 
HETATM   15  H   UNL     1     -41.462  52.529 -54.127  1.00  0.00     0.280 HD
HETATM   16  C   UNL     1     -40.242  54.148 -54.620  1.00  0.00     0.255 C 
HETATM   17  C   UNL     1     -41.177  54.654 -55.740  1.00  0.00     0.152 C 
BRANCH  14  18
HETATM   18  C   UNL     1     -40.160  52.689 -52.528  1.00  0.00     0.188 C 
HETATM   19  C   UNL     1     -40.907  52.560 -51.204  1.00  0.00     0.033 C 
HETATM   20  C   UNL     1     -40.079  51.542 -50.436  1.00  0.00     0.002 C 
HETATM   21  C   UNL     1     -39.543  50.579 -51.492  1.00  0.00     0.002 C 
HETATM   22  C   UNL     1     -39.802  51.239 -52.847  1.00  0.00     0.033 C 
ENDBRANCH  14  18
ENDBRANCH  10  11
BRANCH   8  23
HETATM   23  C   UNL     1     -40.633  59.222 -52.818  1.00  0.00     0.314 C 
BRANCH  23  24
HETATM   24  N   UNL     1     -41.371  59.663 -51.550  1.00  0.00    -0.072 N 
HETATM   25  H   UNL     1     -41.667  60.633 -51.754  1.00  0.00     0.279 HD
HETATM   26  C   UNL     1     -42.637  58.894 -51.313  1.00  0.00     0.269 C 
HETATM   27  C   UNL     1     -40.492  59.705 -50.339  1.00  0.00     0.269 C 
ENDBRANCH  23  24
ENDBRANCH   8  23
BRANCH   1  28
HETATM   28  C   UNL     1     -44.910  58.845 -58.970  1.00  0.00     0.300 C 
HETATM   29  O   UNL     1     -45.989  58.280 -59.101  1.00  0.00    -0.259 OA
BRANCH  28  30
HETATM   30  O   UNL     1     -44.422  59.776 -59.836  1.00  0.00    -0.317 OA
BRANCH  30  31
HETATM   31  C   UNL     1     -43.517  59.288 -60.841  1.00  0.00     0.174 C 
HETATM   32  C   UNL     1     -42.122  59.830 -60.587  1.00  0.00     0.034 C 
ENDBRANCH  30  31
ENDBRANCH  28  30
ENDBRANCH   1  28
TORSDOF 7
ENDMDL
MODEL 7
REMARK VINA RESULT:      -6.7      3.561      7.992
REMARK  7 active torsions:
REMARK  status: ('A' for Active; 'I' for Inactive)
REMARK    1  A    between atoms: C_2  and  O_3 
REMARK    2  A    between atoms: O_3  and  C_4 
REMARK    3  A    between atoms: C_4  and  C_5 
REMARK    4  A    between atoms: C_12  and  C_13 
REMARK    5  A    between atoms: C_13  and  N_14 
REMARK    6  A    between atoms: C_19  and  N_20 
REMARK    7  A    between atoms: N_23  and  C_25 
ROOT
HETATM    1  C   UNL     1     -44.709  59.212 -51.607  1.00  0.00     0.089 C 
HETATM    2  S   UNL     1     -44.584  57.583 -51.103  1.00  0.00    -0.063 SA
HETATM    3  C   UNL     1     -43.938  57.095 -52.590  1.00  0.00     0.115 C 
HETATM    4  C   UNL     1     -43.874  58.113 -53.524  1.00  0.00     0.053 C 
HETATM    5  C   UNL     1     -44.145  59.389 -52.873  1.00  0.00    -0.022 C 
HETATM    6  C   UNL     1     -43.886  60.742 -53.473  1.00  0.00     0.051 C 
HETATM    7  N   UNL     1     -43.565  55.818 -52.761  1.00  0.00    -0.224 NA
HETATM    8  C   UNL     1     -43.111  55.567 -53.995  1.00  0.00     0.155 C 
HETATM    9  N   UNL     1     -43.119  56.428 -55.034  1.00  0.00    -0.213 NA
HETATM   10  C   UNL     1     -43.517  57.719 -54.845  1.00  0.00     0.141 C 
ENDROOT
BRANCH  10  11
HETATM   11  N   UNL     1     -43.541  58.580 -55.941  1.00  0.00    -0.362 N 
HETATM   12  C   UNL     1     -44.866  58.907 -56.506  1.00  0.00     0.152 C 
HETATM   13  C   UNL     1     -45.241  57.996 -57.691  1.00  0.00     0.255 C 
HETATM   14  N   UNL     1     -44.141  58.001 -58.754  1.00  0.00    -0.064 N 
HETATM   15  H   UNL     1     -44.013  58.979 -59.051  1.00  0.00     0.280 HD
HETATM   16  C   UNL     1     -42.820  57.551 -58.109  1.00  0.00     0.255 C 
HETATM   17  C   UNL     1     -42.453  58.474 -56.927  1.00  0.00     0.152 C 
BRANCH  14  18
HETATM   18  C   UNL     1     -44.517  57.203 -59.983  1.00  0.00     0.188 C 
HETATM   19  C   UNL     1     -44.014  55.765 -59.899  1.00  0.00     0.033 C 
HETATM   20  C   UNL     1     -44.857  55.042 -60.937  1.00  0.00     0.002 C 
HETATM   21  C   UNL     1     -46.217  55.732 -60.904  1.00  0.00     0.002 C 
HETATM   22  C   UNL     1     -46.029  57.018 -60.098  1.00  0.00     0.033 C 
ENDBRANCH  14  18
ENDBRANCH  10  11
BRANCH   8  23
HETATM   23  C   UNL     1     -42.464  54.199 -54.180  1.00  0.00     0.314 C 
BRANCH  23  24
HETATM   24  N   UNL     1     -40.955  54.183 -53.919  1.00  0.00    -0.072 N 
HETATM   25  H   UNL     1     -40.746  55.140 -53.585  1.00  0.00     0.279 HD
HETATM   26  C   UNL     1     -40.565  53.267 -52.797  1.00  0.00     0.269 C 
HETATM   27  C   UNL     1     -40.143  53.950 -55.155  1.00  0.00     0.269 C 
ENDBRANCH  23  24
ENDBRANCH   8  23
BRANCH   1  28
HETATM   28  C   UNL     1     -45.320  60.234 -50.759  1.00  0.00     0.300 C 
HETATM   29  O   UNL     1     -46.483  60.603 -50.858  1.00  0.00    -0.259 OA
BRANCH  28  30
HETATM   30  O   UNL     1     -44.463  60.652 -49.785  1.00  0.00    -0.317 OA
BRANCH  30  31
HETATM   31  C   UNL     1     -44.369  62.073 -49.597  1.00  0.00     0.174 C 
HETATM   32  C   UNL     1     -43.159  62.613 -50.337  1.00  0.00     0.034 C 
ENDBRANCH  30  31
ENDBRANCH  28  30
ENDBRANCH   1  28
TORSDOF 7
ENDMDL
MODEL 8
REMARK VINA RESULT:      -6.7      3.711      8.106
REMARK  7 active torsions:
REMARK  status: ('A' for Active; 'I' for Inactive)
REMARK    1  A    between atoms: C_2  and  O_3 
REMARK    2  A    between atoms: O_3  and  C_4 
REMARK    3  A    between atoms: C_4  and  C_5 
REMARK    4  A    between atoms: C_12  and  C_13 
REMARK    5  A    between atoms: C_13  and  N_14 
REMARK    6  A    between atoms: C_19  and  N_20 
REMARK    7  A    between atoms: N_23  and  C_25 
ROOT
HETATM    1  C   UNL     1     -44.134  60.766 -52.917  1.00  0.00     0.089 C 
HETATM    2  S   UNL     1     -43.718  61.213 -54.514  1.00  0.00    -0.063 SA
HETATM    3  C   UNL     1     -43.644  59.600 -55.025  1.00  0.00     0.115 C 
HETATM    4  C   UNL     1     -43.845  58.689 -54.003  1.00  0.00     0.053 C 
HETATM    5  C   UNL     1     -44.325  59.386 -52.816  1.00  0.00    -0.022 C 
HETATM    6  C   UNL     1     -44.931  58.728 -51.608  1.00  0.00     0.051 C 
HETATM    7  N   UNL     1     -43.391  59.325 -56.313  1.00  0.00    -0.224 NA
HETATM    8  C   UNL     1     -43.321  58.013 -56.563  1.00  0.00     0.155 C 
HETATM    9  N   UNL     1     -43.366  57.025 -55.644  1.00  0.00    -0.213 NA
HETATM   10  C   UNL     1     -43.607  57.325 -54.335  1.00  0.00     0.141 C 
ENDROOT
BRANCH  10  11
HETATM   11  N   UNL     1     -43.621  56.289 -53.404  1.00  0.00    -0.362 N 
HETATM   12  C   UNL     1     -42.626  56.355 -52.314  1.00  0.00     0.152 C 
HETATM   13  C   UNL     1     -41.353  55.548 -52.631  1.00  0.00     0.255 C 
HETATM   14  N   UNL     1     -41.699  54.107 -53.010  1.00  0.00    -0.064 N 
HETATM   15  H   UNL     1     -42.220  53.703 -52.219  1.00  0.00     0.280 HD
HETATM   16  C   UNL     1     -42.654  54.124 -54.215  1.00  0.00     0.255 C 
HETATM   17  C   UNL     1     -43.928  54.931 -53.884  1.00  0.00     0.152 C 
BRANCH  14  18
HETATM   18  C   UNL     1     -40.470  53.251 -53.225  1.00  0.00     0.188 C 
HETATM   19  C   UNL     1     -40.094  52.476 -51.965  1.00  0.00     0.033 C 
HETATM   20  C   UNL     1     -39.186  51.377 -52.493  1.00  0.00     0.002 C 
HETATM   21  C   UNL     1     -39.735  51.028 -53.873  1.00  0.00     0.002 C 
HETATM   22  C   UNL     1     -40.727  52.135 -54.235  1.00  0.00     0.033 C 
ENDBRANCH  14  18
ENDBRANCH  10  11
BRANCH   8  23
HETATM   23  C   UNL     1     -43.264  57.639 -58.041  1.00  0.00     0.314 C 
BRANCH  23  24
HETATM   24  N   UNL     1     -44.306  56.597 -58.460  1.00  0.00    -0.072 N 
HETATM   25  H   UNL     1     -44.681  56.241 -57.565  1.00  0.00     0.279 HD
HETATM   26  C   UNL     1     -45.476  57.200 -59.180  1.00  0.00     0.269 C 
HETATM   27  C   UNL     1     -43.718  55.436 -59.198  1.00  0.00     0.269 C 
ENDBRANCH  23  24
ENDBRANCH   8  23
BRANCH   1  28
HETATM   28  C   UNL     1     -44.273  61.759 -51.853  1.00  0.00     0.300 C 
HETATM   29  O   UNL     1     -43.351  62.134 -51.139  1.00  0.00    -0.259 OA
BRANCH  28  30
HETATM   30  O   UNL     1     -45.530  62.283 -51.821  1.00  0.00    -0.317 OA
BRANCH  30  31
HETATM   31  C   UNL     1     -46.288  62.027 -50.627  1.00  0.00     0.174 C 
HETATM   32  C   UNL     1     -46.506  63.323 -49.867  1.00  0.00     0.034 C 
ENDBRANCH  30  31
ENDBRANCH  28  30
ENDBRANCH   1  28
TORSDOF 7
ENDMDL
MODEL 9
REMARK VINA RESULT:      -6.7      4.292      8.477
REMARK  7 active torsions:
REMARK  status: ('A' for Active; 'I' for Inactive)
REMARK    1  A    between atoms: C_2  and  O_3 
REMARK    2  A    between atoms: O_3  and  C_4 
REMARK    3  A    between atoms: C_4  and  C_5 
REMARK    4  A    between atoms: C_12  and  C_13 
REMARK    5  A    between atoms: C_13  and  N_14 
REMARK    6  A    between atoms: C_19  and  N_20 
REMARK    7  A    between atoms: N_23  and  C_25 
ROOT
HETATM    1  C   UNL     1     -44.833  60.787 -55.341  1.00  0.00     0.089 C 
HETATM    2  S   UNL     1     -44.556  60.602 -57.018  1.00  0.00    -0.063 SA
HETATM    3  C   UNL     1     -44.128  58.973 -56.844  1.00  0.00     0.115 C 
HETATM    4  C   UNL     1     -44.101  58.549 -55.527  1.00  0.00     0.053 C 
HETATM    5  C   UNL     1     -44.706  59.565 -54.675  1.00  0.00    -0.022 C 
HETATM    6  C   UNL     1     -45.126  59.362 -53.246  1.00  0.00     0.051 C 
HETATM    7  N   UNL     1     -43.842  58.245 -57.933  1.00  0.00    -0.224 NA
HETATM    8  C   UNL     1     -43.482  56.990 -57.641  1.00  0.00     0.155 C 
HETATM    9  N   UNL     1     -43.286  56.486 -56.405  1.00  0.00    -0.213 NA
HETATM   10  C   UNL     1     -43.567  57.247 -55.308  1.00  0.00     0.141 C 
ENDROOT
BRANCH  10  11
HETATM   11  N   UNL     1     -43.331  56.711 -54.043  1.00  0.00    -0.362 N 
HETATM   12  C   UNL     1     -42.053  57.068 -53.394  1.00  0.00     0.152 C 
HETATM   13  C   UNL     1     -40.957  56.012 -53.632  1.00  0.00     0.255 C 
HETATM   14  N   UNL     1     -41.443  54.619 -53.227  1.00  0.00    -0.064 N 
HETATM   15  H   UNL     1     -41.713  54.671 -52.234  1.00  0.00     0.280 HD
HETATM   16  C   UNL     1     -42.715  54.282 -54.022  1.00  0.00     0.255 C 
HETATM   17  C   UNL     1     -43.807  55.345 -53.771  1.00  0.00     0.152 C 
BRANCH  14  18
HETATM   18  C   UNL     1     -40.361  53.569 -53.344  1.00  0.00     0.188 C 
HETATM   19  C   UNL     1     -40.217  52.759 -52.058  1.00  0.00     0.033 C 
HETATM   20  C   UNL     1     -39.466  51.517 -52.513  1.00  0.00     0.002 C 
HETATM   21  C   UNL     1     -39.958  51.246 -53.931  1.00  0.00     0.002 C 
HETATM   22  C   UNL     1     -40.720  52.496 -54.370  1.00  0.00     0.033 C 
ENDBRANCH  14  18
ENDBRANCH  10  11
BRANCH   8  23
HETATM   23  C   UNL     1     -43.366  56.055 -58.842  1.00  0.00     0.314 C 
BRANCH  23  24
HETATM   24  N   UNL     1     -44.697  55.434 -59.277  1.00  0.00    -0.072 N 
HETATM   25  H   UNL     1     -45.311  55.547 -58.452  1.00  0.00     0.279 HD
HETATM   26  C   UNL     1     -45.363  56.197 -60.385  1.00  0.00     0.269 C 
HETATM   27  C   UNL     1     -44.599  53.970 -59.570  1.00  0.00     0.269 C 
ENDBRANCH  23  24
ENDBRANCH   8  23
BRANCH   1  28
HETATM   28  C   UNL     1     -45.174  62.082 -54.756  1.00  0.00     0.300 C 
HETATM   29  O   UNL     1     -44.350  62.922 -54.418  1.00  0.00    -0.259 OA
BRANCH  28  30
HETATM   30  O   UNL     1     -46.523  62.276 -54.726  1.00  0.00    -0.317 OA
BRANCH  30  31
HETATM   31  C   UNL     1     -47.000  63.479 -55.350  1.00  0.00     0.174 C 
HETATM   32  C   UNL     1     -47.962  63.133 -56.471  1.00  0.00     0.034 C 
ENDBRANCH  30  31
ENDBRANCH  28  30
ENDBRANCH   1  28
TORSDOF 7
ENDMDL
MODEL 10
REMARK VINA RESULT:      -6.5      3.278      5.871
REMARK  7 active torsions:
REMARK  status: ('A' for Active; 'I' for Inactive)
REMARK    1  A    between atoms: C_2  and  O_3 
REMARK    2  A    between atoms: O_3  and  C_4 
REMARK    3  A    between atoms: C_4  and  C_5 
REMARK    4  A    between atoms: C_12  and  C_13 
REMARK    5  A    between atoms: C_13  and  N_14 
REMARK    6  A    between atoms: C_19  and  N_20 
REMARK    7  A    between atoms: N_23  and  C_25 
ROOT
HETATM    1  C   UNL     1     -43.275  56.435 -57.071  1.00  0.00     0.089 C 
HETATM    2  S   UNL     1     -42.688  55.069 -56.226  1.00  0.00    -0.063 SA
HETATM    3  C   UNL     1     -42.957  55.795 -54.719  1.00  0.00     0.115 C 
HETATM    4  C   UNL     1     -43.411  57.098 -54.809  1.00  0.00     0.053 C 
HETATM    5  C   UNL     1     -43.779  57.393 -56.188  1.00  0.00    -0.022 C 
HETATM    6  C   UNL     1     -44.579  58.583 -56.639  1.00  0.00     0.051 C 
HETATM    7  N   UNL     1     -42.708  55.102 -53.598  1.00  0.00    -0.224 NA
HETATM    8  C   UNL     1     -42.925  55.813 -52.486  1.00  0.00     0.155 C 
HETATM    9  N   UNL     1     -43.239  57.124 -52.429  1.00  0.00    -0.213 NA
HETATM   10  C   UNL     1     -43.473  57.817 -53.581  1.00  0.00     0.141 C 
ENDROOT
BRANCH  10  11
HETATM   11  N   UNL     1     -43.768  59.177 -53.495  1.00  0.00    -0.362 N 
HETATM   12  C   UNL     1     -42.677  60.073 -53.063  1.00  0.00     0.152 C 
HETATM   13  C   UNL     1     -42.713  60.355 -51.549  1.00  0.00     0.255 C 
HETATM   14  N   UNL     1     -44.089  60.871 -51.121  1.00  0.00    -0.064 N 
HETATM   15  H   UNL     1     -44.277  61.720 -51.672  1.00  0.00     0.280 HD
HETATM   16  C   UNL     1     -45.155  59.835 -51.514  1.00  0.00     0.255 C 
HETATM   17  C   UNL     1     -45.112  59.564 -53.034  1.00  0.00     0.152 C 
BRANCH  14  18
HETATM   18  C   UNL     1     -44.135  61.261 -49.661  1.00  0.00     0.188 C 
HETATM   19  C   UNL     1     -44.236  62.774 -49.483  1.00  0.00     0.033 C 
HETATM   20  C   UNL     1     -44.730  62.923 -48.053  1.00  0.00     0.002 C 
HETATM   21  C   UNL     1     -45.647  61.727 -47.816  1.00  0.00     0.002 C 
HETATM   22  C   UNL     1     -45.408  60.764 -48.981  1.00  0.00     0.033 C 
ENDBRANCH  14  18
ENDBRANCH  10  11
BRANCH   8  23
HETATM   23  C   UNL     1     -42.880  55.012 -51.188  1.00  0.00     0.314 C 
BRANCH  23  24
HETATM   24  N   UNL     1     -41.462  54.731 -50.680  1.00  0.00    -0.072 N 
HETATM   25  H   UNL     1     -40.863  55.364 -51.237  1.00  0.00     0.279 HD
HETATM   26  C   UNL     1     -41.263  55.138 -49.250  1.00  0.00     0.269 C 
HETATM   27  C   UNL     1     -41.007  53.330 -50.944  1.00  0.00     0.269 C 
ENDBRANCH  23  24
ENDBRANCH   8  23
BRANCH   1  28
HETATM   28  C   UNL     1     -43.238  56.509 -58.531  1.00  0.00     0.300 C 
HETATM   29  O   UNL     1     -42.387  57.118 -59.167  1.00  0.00    -0.259 OA
BRANCH  28  30
HETATM   30  O   UNL     1     -44.210  55.737 -59.094  1.00  0.00    -0.317 OA
BRANCH  30  31
HETATM   31  C   UNL     1     -44.971  56.352 -60.146  1.00  0.00     0.174 C 
HETATM   32  C   UNL     1     -46.301  56.842 -59.602  1.00  0.00     0.034 C 
ENDBRANCH  30  31
ENDBRANCH  28  30
ENDBRANCH   1  28
TORSDOF 7
ENDMDL
