MODEL 1
REMARK VINA RESULT:      -7.3      0.000      0.000
REMARK  7 active torsions:
REMARK  status: ('A' for Active; 'I' for Inactive)
REMARK    1  A    between atoms: C_5  and  N_6 
REMARK    2  A    between atoms: N_6  and  C_9 
REMARK    3  A    between atoms: C_9  and  C_10 
REMARK    4  A    between atoms: C_10  and  C_11 
REMARK    5  A    between atoms: C_10  and  C_13 
REMARK    6  A    between atoms: C_11  and  O_12 
REMARK    7  A    between atoms: C_13  and  C_14 
ROOT
HETATM    1  N   UNL     1     -43.122  54.849 -55.644  1.00  0.00    -0.066 N 
HETATM    2  H   UNL     1     -43.310  54.499 -56.603  1.00  0.00     0.278 HD
HETATM    3  H   UNL     1     -44.054  54.992 -55.208  1.00  0.00     0.278 HD
ENDROOT
BRANCH   1   4
HETATM    4  C   UNL     1     -42.389  53.795 -54.916  1.00  0.00     0.220 C 
HETATM    5  C   UNL     1     -42.457  53.959 -53.425  1.00  0.00    -0.021 A 
HETATM    6  C   UNL     1     -41.198  53.728 -52.841  1.00  0.00    -0.040 A 
HETATM    7  C   UNL     1     -43.562  54.265 -52.643  1.00  0.00     0.010 A 
HETATM    8  C   UNL     1     -41.008  53.841 -51.465  1.00  0.00    -0.055 A 
HETATM    9  C   UNL     1     -40.187  53.352 -53.891  1.00  0.00     0.018 C 
HETATM   10  C   UNL     1     -39.683  53.586 -50.812  1.00  0.00     0.049 C 
HETATM   11  C   UNL     1     -42.128  54.157 -50.682  1.00  0.00     0.007 A 
HETATM   12  C   UNL     1     -43.388  54.366 -51.262  1.00  0.00     0.001 A 
HETATM   13  C   UNL     1     -40.872  53.903 -55.156  1.00  0.00     0.047 C 
HETATM   14  C   UNL     1     -39.963  51.846 -53.961  1.00  0.00     0.015 C 
ENDBRANCH   1   4
BRANCH   1  15
HETATM   15  C   UNL     1     -42.482  56.181 -55.805  1.00  0.00     0.240 C 
BRANCH  15  16
HETATM   16  C   UNL     1     -43.002  57.163 -54.733  1.00  0.00     0.040 C 
BRANCH  16  17
HETATM   17  C   UNL     1     -44.429  57.617 -55.085  1.00  0.00     0.170 C 
BRANCH  17  18
HETATM   18  O   UNL     1     -45.360  56.627 -54.647  1.00  0.00    -0.400 OA
HETATM   19  H   UNL     1     -46.174  57.109 -54.388  1.00  0.00     0.209 HD
ENDBRANCH  17  18
ENDBRANCH  16  17
BRANCH  16  20
HETATM   20  C   UNL     1     -42.114  58.410 -54.519  1.00  0.00     0.067 C 
BRANCH  20  21
HETATM   21  C   UNL     1     -41.423  58.428 -53.182  1.00  0.00     0.034 A 
HETATM   22  N   UNL     1     -40.264  59.143 -53.120  1.00  0.00    -0.266 NA
HETATM   23  C   UNL     1     -39.636  59.172 -51.918  1.00  0.00     0.117 A 
HETATM   24  C   UNL     1     -40.085  58.498 -50.794  1.00  0.00     0.019 A 
HETATM   25  C   UNL     1     -41.256  57.756 -50.893  1.00  0.00     0.003 A 
HETATM   26  C   UNL     1     -41.940  57.718 -52.104  1.00  0.00     0.027 A 
ENDBRANCH  20  21
ENDBRANCH  16  20
ENDBRANCH  15  16
ENDBRANCH   1  15
TORSDOF 7
ENDMDL
MODEL 2
REMARK VINA RESULT:      -7.1      2.074      4.581
REMARK  7 active torsions:
REMARK  status: ('A' for Active; 'I' for Inactive)
REMARK    1  A    between atoms: C_5  and  N_6 
REMARK    2  A    between atoms: N_6  and  C_9 
REMARK    3  A    between atoms: C_9  and  C_10 
REMARK    4  A    between atoms: C_10  and  C_11 
REMARK    5  A    between atoms: C_10  and  C_13 
REMARK    6  A    between atoms: C_11  and  O_12 
REMARK    7  A    between atoms: C_13  and  C_14 
ROOT
HETATM    1  N   UNL     1     -42.647  55.975 -52.978  1.00  0.00    -0.066 N 
HETATM    2  H   UNL     1     -42.866  55.304 -53.740  1.00  0.00     0.278 HD
HETATM    3  H   UNL     1     -43.482  55.982 -52.360  1.00  0.00     0.278 HD
ENDROOT
BRANCH   1   4
HETATM    4  C   UNL     1     -41.484  55.450 -52.236  1.00  0.00     0.220 C 
HETATM    5  C   UNL     1     -40.889  54.227 -52.872  1.00  0.00    -0.021 A 
HETATM    6  C   UNL     1     -40.577  53.260 -51.899  1.00  0.00    -0.040 A 
HETATM    7  C   UNL     1     -40.619  54.001 -54.215  1.00  0.00     0.010 A 
HETATM    8  C   UNL     1     -40.030  52.029 -52.252  1.00  0.00    -0.055 A 
HETATM    9  C   UNL     1     -40.904  53.771 -50.520  1.00  0.00     0.018 C 
HETATM   10  C   UNL     1     -39.674  50.985 -51.236  1.00  0.00     0.049 C 
HETATM   11  C   UNL     1     -39.767  51.805 -53.612  1.00  0.00     0.007 A 
HETATM   12  C   UNL     1     -40.057  52.777 -54.580  1.00  0.00     0.001 A 
HETATM   13  C   UNL     1     -41.903  54.894 -50.863  1.00  0.00     0.047 C 
HETATM   14  C   UNL     1     -39.671  54.292 -49.793  1.00  0.00     0.015 C 
ENDBRANCH   1   4
BRANCH   1  15
HETATM   15  C   UNL     1     -42.539  57.312 -53.619  1.00  0.00     0.240 C 
BRANCH  15  16
HETATM   16  C   UNL     1     -43.297  57.328 -54.964  1.00  0.00     0.040 C 
BRANCH  16  17
HETATM   17  C   UNL     1     -44.812  57.413 -54.712  1.00  0.00     0.170 C 
BRANCH  17  18
HETATM   18  O   UNL     1     -45.327  56.098 -54.494  1.00  0.00    -0.400 OA
HETATM   19  H   UNL     1     -44.899  55.520 -55.162  1.00  0.00     0.209 HD
ENDBRANCH  17  18
ENDBRANCH  16  17
BRANCH  16  20
HETATM   20  C   UNL     1     -43.004  56.118 -55.880  1.00  0.00     0.067 C 
BRANCH  20  21
HETATM   21  C   UNL     1     -42.799  56.496 -57.322  1.00  0.00     0.034 A 
HETATM   22  N   UNL     1     -42.246  57.723 -57.543  1.00  0.00    -0.266 NA
HETATM   23  C   UNL     1     -42.050  58.071 -58.839  1.00  0.00     0.117 A 
HETATM   24  C   UNL     1     -42.409  57.279 -59.916  1.00  0.00     0.019 A 
HETATM   25  C   UNL     1     -42.994  56.044 -59.661  1.00  0.00     0.003 A 
HETATM   26  C   UNL     1     -43.194  55.641 -58.345  1.00  0.00     0.027 A 
ENDBRANCH  20  21
ENDBRANCH  16  20
ENDBRANCH  15  16
ENDBRANCH   1  15
TORSDOF 7
ENDMDL
MODEL 3
REMARK VINA RESULT:      -6.9      1.522      2.892
REMARK  7 active torsions:
REMARK  status: ('A' for Active; 'I' for Inactive)
REMARK    1  A    between atoms: C_5  and  N_6 
REMARK    2  A    between atoms: N_6  and  C_9 
REMARK    3  A    between atoms: C_9  and  C_10 
REMARK    4  A    between atoms: C_10  and  C_11 
REMARK    5  A    between atoms: C_10  and  C_13 
REMARK    6  A    between atoms: C_11  and  O_12 
REMARK    7  A    between atoms: C_13  and  C_14 
ROOT
HETATM    1  N   UNL     1     -42.554  55.584 -53.139  1.00  0.00    -0.066 N 
HETATM    2  H   UNL     1     -42.189  56.110 -53.957  1.00  0.00     0.278 HD
HETATM    3  H   UNL     1     -43.066  54.770 -53.533  1.00  0.00     0.278 HD
ENDROOT
BRANCH   1   4
HETATM    4  C   UNL     1     -41.396  55.111 -52.355  1.00  0.00     0.220 C 
HETATM    5  C   UNL     1     -40.794  53.849 -52.903  1.00  0.00    -0.021 A 
HETATM    6  C   UNL     1     -40.490  52.950 -51.866  1.00  0.00    -0.040 A 
HETATM    7  C   UNL     1     -40.514  53.534 -54.226  1.00  0.00     0.010 A 
HETATM    8  C   UNL     1     -39.938  51.699 -52.132  1.00  0.00    -0.055 A 
HETATM    9  C   UNL     1     -40.829  53.551 -50.527  1.00  0.00     0.018 C 
HETATM   10  C   UNL     1     -39.590  50.725 -51.046  1.00  0.00     0.049 C 
HETATM   11  C   UNL     1     -39.664  51.385 -53.471  1.00  0.00     0.007 A 
HETATM   12  C   UNL     1     -39.948  52.290 -54.504  1.00  0.00     0.001 A 
HETATM   13  C   UNL     1     -41.825  54.647 -50.951  1.00  0.00     0.047 C 
HETATM   14  C   UNL     1     -39.601  54.121 -49.826  1.00  0.00     0.015 C 
ENDBRANCH   1   4
BRANCH   1  15
HETATM   15  C   UNL     1     -43.545  56.474 -52.480  1.00  0.00     0.240 C 
BRANCH  15  16
HETATM   16  C   UNL     1     -43.816  57.719 -53.352  1.00  0.00     0.040 C 
BRANCH  16  17
HETATM   17  C   UNL     1     -44.487  57.300 -54.671  1.00  0.00     0.170 C 
BRANCH  17  18
HETATM   18  O   UNL     1     -45.256  56.116 -54.453  1.00  0.00    -0.400 OA
HETATM   19  H   UNL     1     -45.772  56.269 -53.633  1.00  0.00     0.209 HD
ENDBRANCH  17  18
ENDBRANCH  16  17
BRANCH  16  20
HETATM   20  C   UNL     1     -42.561  58.565 -53.670  1.00  0.00     0.067 C 
BRANCH  20  21
HETATM   21  C   UNL     1     -41.796  58.982 -52.444  1.00  0.00     0.034 A 
HETATM   22  N   UNL     1     -42.489  59.720 -51.531  1.00  0.00    -0.266 NA
HETATM   23  C   UNL     1     -41.810  60.095 -50.418  1.00  0.00     0.117 A 
HETATM   24  C   UNL     1     -40.475  59.805 -50.191  1.00  0.00     0.019 A 
HETATM   25  C   UNL     1     -39.786  59.072 -51.151  1.00  0.00     0.003 A 
HETATM   26  C   UNL     1     -40.453  58.651 -52.297  1.00  0.00     0.027 A 
ENDBRANCH  20  21
ENDBRANCH  16  20
ENDBRANCH  15  16
ENDBRANCH   1  15
TORSDOF 7
ENDMDL
MODEL 4
REMARK VINA RESULT:      -6.8      1.599      1.924
REMARK  7 active torsions:
REMARK  status: ('A' for Active; 'I' for Inactive)
REMARK    1  A    between atoms: C_5  and  N_6 
REMARK    2  A    between atoms: N_6  and  C_9 
REMARK    3  A    between atoms: C_9  and  C_10 
REMARK    4  A    between atoms: C_10  and  C_11 
REMARK    5  A    between atoms: C_10  and  C_13 
REMARK    6  A    between atoms: C_11  and  O_12 
REMARK    7  A    between atoms: C_13  and  C_14 
ROOT
HETATM    1  N   UNL     1     -43.240  54.846 -55.487  1.00  0.00    -0.066 N 
HETATM    2  H   UNL     1     -44.052  54.395 -55.951  1.00  0.00     0.278 HD
HETATM    3  H   UNL     1     -43.642  55.507 -54.794  1.00  0.00     0.278 HD
ENDROOT
BRANCH   1   4
HETATM    4  C   UNL     1     -42.479  53.793 -54.786  1.00  0.00     0.220 C 
HETATM    5  C   UNL     1     -42.512  53.943 -53.293  1.00  0.00    -0.021 A 
HETATM    6  C   UNL     1     -41.238  53.718 -52.741  1.00  0.00    -0.040 A 
HETATM    7  C   UNL     1     -43.601  54.231 -52.481  1.00  0.00     0.010 A 
HETATM    8  C   UNL     1     -41.016  53.821 -51.369  1.00  0.00    -0.055 A 
HETATM    9  C   UNL     1     -40.249  53.361 -53.819  1.00  0.00     0.018 C 
HETATM   10  C   UNL     1     -39.672  53.573 -50.751  1.00  0.00     0.049 C 
HETATM   11  C   UNL     1     -42.119  54.120 -50.557  1.00  0.00     0.007 A 
HETATM   12  C   UNL     1     -43.394  54.322 -51.104  1.00  0.00     0.001 A 
HETATM   13  C   UNL     1     -40.969  53.917 -55.062  1.00  0.00     0.047 C 
HETATM   14  C   UNL     1     -40.013  51.858 -53.907  1.00  0.00     0.015 C 
ENDBRANCH   1   4
BRANCH   1  15
HETATM   15  C   UNL     1     -42.551  55.644 -56.535  1.00  0.00     0.240 C 
BRANCH  15  16
HETATM   16  C   UNL     1     -43.127  57.075 -56.589  1.00  0.00     0.040 C 
BRANCH  16  17
HETATM   17  C   UNL     1     -43.303  57.516 -58.052  1.00  0.00     0.170 C 
BRANCH  17  18
HETATM   18  O   UNL     1     -42.325  56.860 -58.862  1.00  0.00    -0.400 OA
HETATM   19  H   UNL     1     -42.783  56.110 -59.295  1.00  0.00     0.209 HD
ENDBRANCH  17  18
ENDBRANCH  16  17
BRANCH  16  20
HETATM   20  C   UNL     1     -42.286  58.134 -55.840  1.00  0.00     0.067 C 
BRANCH  20  21
HETATM   21  C   UNL     1     -42.284  57.949 -54.347  1.00  0.00     0.034 A 
HETATM   22  N   UNL     1     -43.457  58.226 -53.710  1.00  0.00    -0.266 NA
HETATM   23  C   UNL     1     -43.467  58.055 -52.365  1.00  0.00     0.117 A 
HETATM   24  C   UNL     1     -42.365  57.659 -51.626  1.00  0.00     0.019 A 
HETATM   25  C   UNL     1     -41.176  57.407 -52.299  1.00  0.00     0.003 A 
HETATM   26  C   UNL     1     -41.129  57.552 -53.682  1.00  0.00     0.027 A 
ENDBRANCH  20  21
ENDBRANCH  16  20
ENDBRANCH  15  16
ENDBRANCH   1  15
TORSDOF 7
ENDMDL
MODEL 5
REMARK VINA RESULT:      -6.5      2.129      4.159
REMARK  7 active torsions:
REMARK  status: ('A' for Active; 'I' for Inactive)
REMARK    1  A    between atoms: C_5  and  N_6 
REMARK    2  A    between atoms: N_6  and  C_9 
REMARK    3  A    between atoms: C_9  and  C_10 
REMARK    4  A    between atoms: C_10  and  C_11 
REMARK    5  A    between atoms: C_10  and  C_13 
REMARK    6  A    between atoms: C_11  and  O_12 
REMARK    7  A    between atoms: C_13  and  C_14 
ROOT
HETATM    1  N   UNL     1     -42.415  56.660 -50.798  1.00  0.00    -0.066 N 
HETATM    2  H   UNL     1     -42.583  56.780 -49.780  1.00  0.00     0.278 HD
HETATM    3  H   UNL     1     -42.040  57.570 -51.130  1.00  0.00     0.278 HD
ENDROOT
BRANCH   1   4
HETATM    4  C   UNL     1     -41.391  55.610 -50.964  1.00  0.00     0.220 C 
HETATM    5  C   UNL     1     -41.087  55.312 -52.404  1.00  0.00    -0.021 A 
HETATM    6  C   UNL     1     -40.991  53.924 -52.616  1.00  0.00    -0.040 A 
HETATM    7  C   UNL     1     -40.886  56.209 -53.444  1.00  0.00     0.010 A 
HETATM    8  C   UNL     1     -40.734  53.403 -53.882  1.00  0.00    -0.055 A 
HETATM    9  C   UNL     1     -41.185  53.175 -51.324  1.00  0.00     0.018 C 
HETATM   10  C   UNL     1     -40.610  51.930 -54.136  1.00  0.00     0.049 C 
HETATM   11  C   UNL     1     -40.538  54.315 -54.929  1.00  0.00     0.007 A 
HETATM   12  C   UNL     1     -40.613  55.699 -54.714  1.00  0.00     0.001 A 
HETATM   13  C   UNL     1     -41.912  54.243 -50.483  1.00  0.00     0.047 C 
HETATM   14  C   UNL     1     -39.861  52.748 -50.702  1.00  0.00     0.015 C 
ENDBRANCH   1   4
BRANCH   1  15
HETATM   15  C   UNL     1     -43.750  56.460 -51.420  1.00  0.00     0.240 C 
BRANCH  15  16
HETATM   16  C   UNL     1     -44.114  57.663 -52.315  1.00  0.00     0.040 C 
BRANCH  16  17
HETATM   17  C   UNL     1     -45.108  58.581 -51.583  1.00  0.00     0.170 C 
BRANCH  17  18
HETATM   18  O   UNL     1     -45.191  58.186 -50.213  1.00  0.00    -0.400 OA
HETATM   19  H   UNL     1     -45.494  58.976 -49.716  1.00  0.00     0.209 HD
ENDBRANCH  17  18
ENDBRANCH  16  17
BRANCH  16  20
HETATM   20  C   UNL     1     -44.700  57.283 -53.695  1.00  0.00     0.067 C 
BRANCH  20  21
HETATM   21  C   UNL     1     -43.833  57.706 -54.849  1.00  0.00     0.034 A 
HETATM   22  N   UNL     1     -43.874  56.904 -55.951  1.00  0.00    -0.266 NA
HETATM   23  C   UNL     1     -43.102  57.281 -57.000  1.00  0.00     0.117 A 
HETATM   24  C   UNL     1     -42.269  58.387 -56.991  1.00  0.00     0.019 A 
HETATM   25  C   UNL     1     -42.228  59.172 -55.845  1.00  0.00     0.003 A 
HETATM   26  C   UNL     1     -43.021  58.831 -54.754  1.00  0.00     0.027 A 
ENDBRANCH  20  21
ENDBRANCH  16  20
ENDBRANCH  15  16
ENDBRANCH   1  15
TORSDOF 7
ENDMDL
MODEL 6
REMARK VINA RESULT:      -6.4      2.134      4.355
REMARK  7 active torsions:
REMARK  status: ('A' for Active; 'I' for Inactive)
REMARK    1  A    between atoms: C_5  and  N_6 
REMARK    2  A    between atoms: N_6  and  C_9 
REMARK    3  A    between atoms: C_9  and  C_10 
REMARK    4  A    between atoms: C_10  and  C_11 
REMARK    5  A    between atoms: C_10  and  C_13 
REMARK    6  A    between atoms: C_11  and  O_12 
REMARK    7  A    between atoms: C_13  and  C_14 
ROOT
HETATM    1  N   UNL     1     -43.080  55.720 -52.353  1.00  0.00    -0.066 N 
HETATM    2  H   UNL     1     -43.140  55.372 -53.329  1.00  0.00     0.278 HD
HETATM    3  H   UNL     1     -43.868  55.272 -51.845  1.00  0.00     0.278 HD
ENDROOT
BRANCH   1   4
HETATM    4  C   UNL     1     -41.797  55.257 -51.787  1.00  0.00     0.220 C 
HETATM    5  C   UNL     1     -41.134  54.204 -52.627  1.00  0.00    -0.021 A 
HETATM    6  C   UNL     1     -40.621  53.173 -51.819  1.00  0.00    -0.040 A 
HETATM    7  C   UNL     1     -40.975  54.177 -54.005  1.00  0.00     0.010 A 
HETATM    8  C   UNL     1     -39.976  52.071 -52.376  1.00  0.00    -0.055 A 
HETATM    9  C   UNL     1     -40.865  53.469 -50.362  1.00  0.00     0.018 C 
HETATM   10  C   UNL     1     -39.406  50.964 -51.540  1.00  0.00     0.049 C 
HETATM   11  C   UNL     1     -39.825  52.047 -53.770  1.00  0.00     0.007 A 
HETATM   12  C   UNL     1     -40.318  53.085 -54.574  1.00  0.00     0.001 A 
HETATM   13  C   UNL     1     -42.013  54.492 -50.468  1.00  0.00     0.047 C 
HETATM   14  C   UNL     1     -39.632  54.048 -49.679  1.00  0.00     0.015 C 
ENDBRANCH   1   4
BRANCH   1  15
HETATM   15  C   UNL     1     -43.346  57.181 -52.415  1.00  0.00     0.240 C 
BRANCH  15  16
HETATM   16  C   UNL     1     -42.469  57.843 -53.499  1.00  0.00     0.040 C 
BRANCH  16  17
HETATM   17  C   UNL     1     -41.584  58.930 -52.866  1.00  0.00     0.170 C 
BRANCH  17  18
HETATM   18  O   UNL     1     -40.668  59.421 -53.846  1.00  0.00    -0.400 OA
HETATM   19  H   UNL     1     -40.563  60.380 -53.670  1.00  0.00     0.209 HD
ENDBRANCH  17  18
ENDBRANCH  16  17
BRANCH  16  20
HETATM   20  C   UNL     1     -43.259  58.458 -54.676  1.00  0.00     0.067 C 
BRANCH  20  21
HETATM   21  C   UNL     1     -43.129  57.677 -55.956  1.00  0.00     0.034 A 
HETATM   22  N   UNL     1     -43.166  58.408 -57.106  1.00  0.00    -0.266 NA
HETATM   23  C   UNL     1     -43.042  57.714 -58.265  1.00  0.00     0.117 A 
HETATM   24  C   UNL     1     -42.921  56.336 -58.334  1.00  0.00     0.019 A 
HETATM   25  C   UNL     1     -42.911  55.615 -57.146  1.00  0.00     0.003 A 
HETATM   26  C   UNL     1     -43.016  56.291 -55.935  1.00  0.00     0.027 A 
ENDBRANCH  20  21
ENDBRANCH  16  20
ENDBRANCH  15  16
ENDBRANCH   1  15
TORSDOF 7
ENDMDL
MODEL 7
REMARK VINA RESULT:      -6.3      2.085      4.069
REMARK  7 active torsions:
REMARK  status: ('A' for Active; 'I' for Inactive)
REMARK    1  A    between atoms: C_5  and  N_6 
REMARK    2  A    between atoms: N_6  and  C_9 
REMARK    3  A    between atoms: C_9  and  C_10 
REMARK    4  A    between atoms: C_10  and  C_11 
REMARK    5  A    between atoms: C_10  and  C_13 
REMARK    6  A    between atoms: C_11  and  O_12 
REMARK    7  A    between atoms: C_13  and  C_14 
ROOT
HETATM    1  N   UNL     1     -40.728  55.503 -54.411  1.00  0.00    -0.066 N 
HETATM    2  H   UNL     1     -39.773  55.681 -54.045  1.00  0.00     0.278 HD
HETATM    3  H   UNL     1     -40.674  55.669 -55.435  1.00  0.00     0.278 HD
ENDROOT
BRANCH   1   4
HETATM    4  C   UNL     1     -41.052  54.085 -54.154  1.00  0.00     0.220 C 
HETATM    5  C   UNL     1     -40.884  53.699 -52.713  1.00  0.00    -0.021 A 
HETATM    6  C   UNL     1     -40.246  52.451 -52.602  1.00  0.00    -0.040 A 
HETATM    7  C   UNL     1     -41.292  54.395 -51.583  1.00  0.00     0.010 A 
HETATM    8  C   UNL     1     -39.964  51.891 -51.359  1.00  0.00    -0.055 A 
HETATM    9  C   UNL     1     -39.966  51.876 -53.966  1.00  0.00     0.018 C 
HETATM   10  C   UNL     1     -39.298  50.555 -51.209  1.00  0.00     0.049 C 
HETATM   11  C   UNL     1     -40.373  52.603 -50.221  1.00  0.00     0.007 A 
HETATM   12  C   UNL     1     -41.028  53.838 -50.331  1.00  0.00     0.001 A 
HETATM   13  C   UNL     1     -40.034  53.149 -54.831  1.00  0.00     0.047 C 
HETATM   14  C   UNL     1     -41.004  50.838 -54.377  1.00  0.00     0.015 C 
ENDBRANCH   1   4
BRANCH   1  15
HETATM   15  C   UNL     1     -41.601  56.551 -53.822  1.00  0.00     0.240 C 
BRANCH  15  16
HETATM   16  C   UNL     1     -42.820  56.813 -54.733  1.00  0.00     0.040 C 
BRANCH  16  17
HETATM   17  C   UNL     1     -44.103  56.879 -53.888  1.00  0.00     0.170 C 
BRANCH  17  18
HETATM   18  O   UNL     1     -45.150  56.185 -54.568  1.00  0.00    -0.400 OA
HETATM   19  H   UNL     1     -45.331  56.693 -55.387  1.00  0.00     0.209 HD
ENDBRANCH  17  18
ENDBRANCH  16  17
BRANCH  16  20
HETATM   20  C   UNL     1     -43.012  55.775 -55.862  1.00  0.00     0.067 C 
BRANCH  20  21
HETATM   21  C   UNL     1     -42.782  56.340 -57.238  1.00  0.00     0.034 A 
HETATM   22  N   UNL     1     -42.313  57.619 -57.286  1.00  0.00    -0.266 NA
HETATM   23  C   UNL     1     -42.095  58.135 -58.522  1.00  0.00     0.117 A 
HETATM   24  C   UNL     1     -42.355  57.457 -59.701  1.00  0.00     0.019 A 
HETATM   25  C   UNL     1     -42.857  56.164 -59.621  1.00  0.00     0.003 A 
HETATM   26  C   UNL     1     -43.075  55.591 -58.372  1.00  0.00     0.027 A 
ENDBRANCH  20  21
ENDBRANCH  16  20
ENDBRANCH  15  16
ENDBRANCH   1  15
TORSDOF 7
ENDMDL
MODEL 8
REMARK VINA RESULT:      -6.3      2.242      3.343
REMARK  7 active torsions:
REMARK  status: ('A' for Active; 'I' for Inactive)
REMARK    1  A    between atoms: C_5  and  N_6 
REMARK    2  A    between atoms: N_6  and  C_9 
REMARK    3  A    between atoms: C_9  and  C_10 
REMARK    4  A    between atoms: C_10  and  C_11 
REMARK    5  A    between atoms: C_10  and  C_13 
REMARK    6  A    between atoms: C_11  and  O_12 
REMARK    7  A    between atoms: C_13  and  C_14 
ROOT
HETATM    1  N   UNL     1     -42.419  55.659 -53.001  1.00  0.00    -0.066 N 
HETATM    2  H   UNL     1     -42.070  56.439 -53.591  1.00  0.00     0.278 HD
HETATM    3  H   UNL     1     -42.750  54.931 -53.663  1.00  0.00     0.278 HD
ENDROOT
BRANCH   1   4
HETATM    4  C   UNL     1     -41.280  55.140 -52.219  1.00  0.00     0.220 C 
HETATM    5  C   UNL     1     -40.734  53.853 -52.765  1.00  0.00    -0.021 A 
HETATM    6  C   UNL     1     -40.464  52.945 -51.725  1.00  0.00    -0.040 A 
HETATM    7  C   UNL     1     -40.472  53.522 -54.088  1.00  0.00     0.010 A 
HETATM    8  C   UNL     1     -39.967  51.671 -51.989  1.00  0.00    -0.055 A 
HETATM    9  C   UNL     1     -40.772  53.564 -50.387  1.00  0.00     0.018 C 
HETATM   10  C   UNL     1     -39.656  50.687 -50.900  1.00  0.00     0.049 C 
HETATM   11  C   UNL     1     -39.711  51.341 -53.328  1.00  0.00     0.007 A 
HETATM   12  C   UNL     1     -39.960  52.253 -54.363  1.00  0.00     0.001 A 
HETATM   13  C   UNL     1     -41.723  54.700 -50.812  1.00  0.00     0.047 C 
HETATM   14  C   UNL     1     -39.519  54.084 -49.693  1.00  0.00     0.015 C 
ENDBRANCH   1   4
BRANCH   1  15
HETATM   15  C   UNL     1     -43.602  56.187 -52.271  1.00  0.00     0.240 C 
BRANCH  15  16
HETATM   16  C   UNL     1     -44.258  57.335 -53.068  1.00  0.00     0.040 C 
BRANCH  16  17
HETATM   17  C   UNL     1     -44.670  56.838 -54.464  1.00  0.00     0.170 C 
BRANCH  17  18
HETATM   18  O   UNL     1     -44.823  55.418 -54.431  1.00  0.00    -0.400 OA
HETATM   19  H   UNL     1     -43.958  55.040 -54.698  1.00  0.00     0.209 HD
ENDBRANCH  17  18
ENDBRANCH  16  17
BRANCH  16  20
HETATM   20  C   UNL     1     -43.377  58.596 -53.221  1.00  0.00     0.067 C 
BRANCH  20  21
HETATM   21  C   UNL     1     -43.443  59.518 -52.034  1.00  0.00     0.034 A 
HETATM   22  N   UNL     1     -42.247  59.841 -51.464  1.00  0.00    -0.266 NA
HETATM   23  C   UNL     1     -42.294  60.678 -50.397  1.00  0.00     0.117 A 
HETATM   24  C   UNL     1     -43.467  61.174 -49.853  1.00  0.00     0.019 A 
HETATM   25  C   UNL     1     -44.673  60.808 -50.440  1.00  0.00     0.003 A 
HETATM   26  C   UNL     1     -44.666  59.967 -51.548  1.00  0.00     0.027 A 
ENDBRANCH  20  21
ENDBRANCH  16  20
ENDBRANCH  15  16
ENDBRANCH   1  15
TORSDOF 7
ENDMDL
MODEL 9
REMARK VINA RESULT:      -6.2     15.005     17.030
REMARK  7 active torsions:
REMARK  status: ('A' for Active; 'I' for Inactive)
REMARK    1  A    between atoms: C_5  and  N_6 
REMARK    2  A    between atoms: N_6  and  C_9 
REMARK    3  A    between atoms: C_9  and  C_10 
REMARK    4  A    between atoms: C_10  and  C_11 
REMARK    5  A    between atoms: C_10  and  C_13 
REMARK    6  A    between atoms: C_11  and  O_12 
REMARK    7  A    between atoms: C_13  and  C_14 
ROOT
HETATM    1  N   UNL     1     -35.698  39.088 -56.900  1.00  0.00    -0.066 N 
HETATM    2  H   UNL     1     -36.010  38.148 -57.212  1.00  0.00     0.278 HD
HETATM    3  H   UNL     1     -36.375  39.381 -56.169  1.00  0.00     0.278 HD
ENDROOT
BRANCH   1   4
HETATM    4  C   UNL     1     -34.355  38.943 -56.305  1.00  0.00     0.220 C 
HETATM    5  C   UNL     1     -34.386  38.847 -54.808  1.00  0.00    -0.021 A 
HETATM    6  C   UNL     1     -33.368  39.633 -54.237  1.00  0.00    -0.040 A 
HETATM    7  C   UNL     1     -35.239  38.097 -54.011  1.00  0.00     0.010 A 
HETATM    8  C   UNL     1     -33.209  39.719 -52.856  1.00  0.00    -0.055 A 
HETATM    9  C   UNL     1     -32.543  40.293 -55.311  1.00  0.00     0.018 C 
HETATM   10  C   UNL     1     -32.125  40.537 -52.219  1.00  0.00     0.049 C 
HETATM   11  C   UNL     1     -34.080  38.963 -52.057  1.00  0.00     0.007 A 
HETATM   12  C   UNL     1     -35.081  38.163 -52.626  1.00  0.00     0.001 A 
HETATM   13  C   UNL     1     -33.516  40.219 -56.503  1.00  0.00     0.047 C 
HETATM   14  C   UNL     1     -31.241  39.547 -55.575  1.00  0.00     0.015 C 
ENDBRANCH   1   4
BRANCH   1  15
HETATM   15  C   UNL     1     -35.866  39.992 -58.068  1.00  0.00     0.240 C 
BRANCH  15  16
HETATM   16  C   UNL     1     -37.009  40.997 -57.813  1.00  0.00     0.040 C 
BRANCH  16  17
HETATM   17  C   UNL     1     -37.590  41.483 -59.151  1.00  0.00     0.170 C 
BRANCH  17  18
HETATM   18  O   UNL     1     -36.902  42.666 -59.562  1.00  0.00    -0.400 OA
HETATM   19  H   UNL     1     -36.560  42.487 -60.463  1.00  0.00     0.209 HD
ENDBRANCH  17  18
ENDBRANCH  16  17
BRANCH  16  20
HETATM   20  C   UNL     1     -36.607  42.224 -56.963  1.00  0.00     0.067 C 
BRANCH  20  21
HETATM   21  C   UNL     1     -36.632  41.959 -55.482  1.00  0.00     0.034 A 
HETATM   22  N   UNL     1     -37.635  41.149 -55.039  1.00  0.00    -0.266 NA
HETATM   23  C   UNL     1     -37.663  40.898 -53.706  1.00  0.00     0.117 A 
HETATM   24  C   UNL     1     -36.768  41.439 -52.797  1.00  0.00     0.019 A 
HETATM   25  C   UNL     1     -35.771  42.281 -53.274  1.00  0.00     0.003 A 
HETATM   26  C   UNL     1     -35.697  42.548 -54.638  1.00  0.00     0.027 A 
ENDBRANCH  20  21
ENDBRANCH  16  20
ENDBRANCH  15  16
ENDBRANCH   1  15
TORSDOF 7
ENDMDL
MODEL 10
REMARK VINA RESULT:      -6.0      2.578      5.044
REMARK  7 active torsions:
REMARK  status: ('A' for Active; 'I' for Inactive)
REMARK    1  A    between atoms: C_5  and  N_6 
REMARK    2  A    between atoms: N_6  and  C_9 
REMARK    3  A    between atoms: C_9  and  C_10 
REMARK    4  A    between atoms: C_10  and  C_11 
REMARK    5  A    between atoms: C_10  and  C_13 
REMARK    6  A    between atoms: C_11  and  O_12 
REMARK    7  A    between atoms: C_13  and  C_14 
ROOT
HETATM    1  N   UNL     1     -42.589  54.708 -53.547  1.00  0.00    -0.066 N 
HETATM    2  H   UNL     1     -42.525  54.143 -54.416  1.00  0.00     0.278 HD
HETATM    3  H   UNL     1     -43.458  54.396 -53.072  1.00  0.00     0.278 HD
ENDROOT
BRANCH   1   4
HETATM    4  C   UNL     1     -41.419  54.380 -52.709  1.00  0.00     0.220 C 
HETATM    5  C   UNL     1     -40.794  53.063 -53.067  1.00  0.00    -0.021 A 
HETATM    6  C   UNL     1     -40.468  52.335 -51.908  1.00  0.00    -0.040 A 
HETATM    7  C   UNL     1     -40.513  52.559 -54.329  1.00  0.00     0.010 A 
HETATM    8  C   UNL     1     -39.892  51.069 -51.988  1.00  0.00    -0.055 A 
HETATM    9  C   UNL     1     -40.813  53.123 -50.672  1.00  0.00     0.018 C 
HETATM   10  C   UNL     1     -39.520  50.275 -50.771  1.00  0.00     0.049 C 
HETATM   11  C   UNL     1     -39.617  50.564 -53.267  1.00  0.00     0.007 A 
HETATM   12  C   UNL     1     -39.923  51.298 -54.422  1.00  0.00     0.001 A 
HETATM   13  C   UNL     1     -41.834  54.123 -51.248  1.00  0.00     0.047 C 
HETATM   14  C   UNL     1     -39.595  53.815 -50.073  1.00  0.00     0.015 C 
ENDBRANCH   1   4
BRANCH   1  15
HETATM   15  C   UNL     1     -42.783  56.117 -53.980  1.00  0.00     0.240 C 
BRANCH  15  16
HETATM   16  C   UNL     1     -43.465  56.166 -55.364  1.00  0.00     0.040 C 
BRANCH  16  17
HETATM   17  C   UNL     1     -42.834  55.122 -56.299  1.00  0.00     0.170 C 
BRANCH  17  18
HETATM   18  O   UNL     1     -41.411  55.231 -56.235  1.00  0.00    -0.400 OA
HETATM   19  H   UNL     1     -41.212  55.792 -55.455  1.00  0.00     0.209 HD
ENDBRANCH  17  18
ENDBRANCH  16  17
BRANCH  16  20
HETATM   20  C   UNL     1     -43.423  57.550 -56.052  1.00  0.00     0.067 C 
BRANCH  20  21
HETATM   21  C   UNL     1     -44.539  57.762 -57.039  1.00  0.00     0.034 A 
HETATM   22  N   UNL     1     -45.751  58.086 -56.506  1.00  0.00    -0.266 NA
HETATM   23  C   UNL     1     -46.763  58.285 -57.388  1.00  0.00     0.117 A 
HETATM   24  C   UNL     1     -46.634  58.143 -58.759  1.00  0.00     0.019 A 
HETATM   25  C   UNL     1     -45.392  57.787 -59.272  1.00  0.00     0.003 A 
HETATM   26  C   UNL     1     -44.324  57.593 -58.402  1.00  0.00     0.027 A 
ENDBRANCH  20  21
ENDBRANCH  16  20
ENDBRANCH  15  16
ENDBRANCH   1  15
TORSDOF 7
ENDMDL
