MODEL 1
REMARK VINA RESULT:      -9.3      0.000      0.000
REMARK  6 active torsions:
REMARK  status: ('A' for Active; 'I' for Inactive)
REMARK    1  A    between atoms: O_2  and  C_3 
REMARK    2  A    between atoms: C_6  and  C_7 
REMARK    3  A    between atoms: C_11  and  C_12 
REMARK       I    between atoms: C_12  and  N_13 
REMARK    4  A    between atoms: N_13  and  N_14 
REMARK       I    between atoms: N_14  and  C_15 
REMARK    5  A    between atoms: C_15  and  C_16 
REMARK    6  A    between atoms: C_17  and  C_18 
ROOT
HETATM    1  C   UNL     1     -41.385  55.419 -55.191  1.00  0.00     0.288 C 
HETATM    2  N   UNL     1     -41.771  55.780 -53.917  1.00  0.00    -0.262 N 
HETATM    3  O   UNL     1     -40.406  54.705 -55.401  1.00  0.00    -0.264 OA
HETATM    4  H   UNL     1     -42.486  56.478 -53.729  1.00  0.00     0.190 HD
ENDROOT
BRANCH   1   5
HETATM    5  C   UNL     1     -42.215  55.929 -56.248  1.00  0.00     0.121 A 
HETATM    6  N   UNL     1     -42.073  57.200 -56.730  1.00  0.00    -0.272 N 
HETATM    7  N   UNL     1     -42.890  57.496 -57.751  1.00  0.00    -0.174 NA
HETATM    8  H   UNL     1     -41.416  57.904 -56.407  1.00  0.00     0.189 HD
HETATM    9  C   UNL     1     -43.618  56.383 -57.937  1.00  0.00     0.089 A 
HETATM   10  C   UNL     1     -43.230  55.380 -57.005  1.00  0.00     0.071 A 
BRANCH   9  11
HETATM   11  C   UNL     1     -44.623  56.280 -58.998  1.00  0.00    -0.005 A 
HETATM   12  C   UNL     1     -45.757  57.105 -58.984  1.00  0.00     0.016 A 
HETATM   13  C   UNL     1     -46.698  57.055 -60.021  1.00  0.00     0.037 A 
HETATM   14  C   UNL     1     -46.519  56.175 -61.087  1.00  0.00     0.068 A 
HETATM   15  C   UNL     1     -45.407  55.330 -61.092  1.00  0.00     0.037 A 
HETATM   16  C   UNL     1     -44.464  55.383 -60.060  1.00  0.00     0.016 A 
BRANCH  14  17
HETATM   17  O   UNL     1     -47.349  56.037 -62.164  1.00  0.00    -0.356 OA
HETATM   18  C   UNL     1     -48.530  56.828 -62.164  1.00  0.00     0.210 C 
ENDBRANCH  14  17
ENDBRANCH   9  11
ENDBRANCH   1   5
BRANCH   2  19
HETATM   19  N   UNL     1     -40.973  55.414 -52.831  1.00  0.00    -0.267 N 
HETATM   20  C   UNL     1     -41.411  54.396 -52.016  1.00  0.00     0.240 C 
HETATM   21  O   UNL     1     -42.458  53.782 -52.202  1.00  0.00    -0.271 OA
HETATM   22  H   UNL     1     -40.111  55.934 -52.682  1.00  0.00     0.190 HD
BRANCH  20  23
HETATM   23  C   UNL     1     -40.507  54.096 -50.874  1.00  0.00     0.089 A 
HETATM   24  C   UNL     1     -39.670  52.829 -50.826  1.00  0.00     0.036 A 
HETATM   25  C   UNL     1     -40.853  52.995 -49.903  1.00  0.00     0.025 A 
BRANCH  24  26
HETATM   26  C   UNL     1     -39.697  51.818 -51.950  1.00  0.00    -0.015 A 
HETATM   27  C   UNL     1     -39.639  50.438 -51.692  1.00  0.00     0.123 A 
HETATM   28  F   UNL     1     -39.538  50.014 -50.422  1.00  0.00    -0.206 F 
HETATM   29  C   UNL     1     -39.688  49.486 -52.709  1.00  0.00     0.043 A 
HETATM   30  C   UNL     1     -39.807  49.899 -54.033  1.00  0.00     0.003 A 
HETATM   31  C   UNL     1     -39.879  51.258 -54.326  1.00  0.00     0.001 A 
HETATM   32  C   UNL     1     -39.830  52.204 -53.295  1.00  0.00     0.011 A 
ENDBRANCH  24  26
ENDBRANCH  20  23
ENDBRANCH   2  19
TORSDOF 6
ENDMDL
MODEL 2
REMARK VINA RESULT:      -8.7      4.796      5.935
REMARK  6 active torsions:
REMARK  status: ('A' for Active; 'I' for Inactive)
REMARK    1  A    between atoms: O_2  and  C_3 
REMARK    2  A    between atoms: C_6  and  C_7 
REMARK    3  A    between atoms: C_11  and  C_12 
REMARK       I    between atoms: C_12  and  N_13 
REMARK    4  A    between atoms: N_13  and  N_14 
REMARK       I    between atoms: N_14  and  C_15 
REMARK    5  A    between atoms: C_15  and  C_16 
REMARK    6  A    between atoms: C_17  and  C_18 
ROOT
HETATM    1  C   UNL     1     -42.538  57.031 -56.940  1.00  0.00     0.288 C 
HETATM    2  N   UNL     1     -41.653  56.427 -56.071  1.00  0.00    -0.262 N 
HETATM    3  O   UNL     1     -43.546  56.458 -57.351  1.00  0.00    -0.264 OA
HETATM    4  H   UNL     1     -40.750  56.826 -55.831  1.00  0.00     0.190 HD
ENDROOT
BRANCH   1   5
HETATM    5  C   UNL     1     -42.202  58.376 -57.316  1.00  0.00     0.121 A 
HETATM    6  N   UNL     1     -42.169  59.395 -56.407  1.00  0.00    -0.272 N 
HETATM    7  N   UNL     1     -41.784  60.575 -56.915  1.00  0.00    -0.174 NA
HETATM    8  H   UNL     1     -42.382  59.335 -55.416  1.00  0.00     0.189 HD
HETATM    9  C   UNL     1     -41.577  60.331 -58.219  1.00  0.00     0.089 A 
HETATM   10  C   UNL     1     -41.840  58.964 -58.512  1.00  0.00     0.071 A 
BRANCH   9  11
HETATM   11  C   UNL     1     -41.109  61.371 -59.140  1.00  0.00    -0.005 A 
HETATM   12  C   UNL     1     -40.211  62.355 -58.702  1.00  0.00     0.016 A 
HETATM   13  C   UNL     1     -39.713  63.322 -59.585  1.00  0.00     0.037 A 
HETATM   14  C   UNL     1     -40.110  63.320 -60.921  1.00  0.00     0.068 A 
HETATM   15  C   UNL     1     -41.026  62.360 -61.357  1.00  0.00     0.037 A 
HETATM   16  C   UNL     1     -41.520  61.391 -60.478  1.00  0.00     0.016 A 
BRANCH  14  17
HETATM   17  O   UNL     1     -39.691  64.193 -61.886  1.00  0.00    -0.356 OA
HETATM   18  C   UNL     1     -38.499  63.851 -62.581  1.00  0.00     0.210 C 
ENDBRANCH  14  17
ENDBRANCH   9  11
ENDBRANCH   1   5
BRANCH   2  19
HETATM   19  N   UNL     1     -41.843  55.087 -55.724  1.00  0.00    -0.267 N 
HETATM   20  C   UNL     1     -40.820  54.431 -55.079  1.00  0.00     0.240 C 
HETATM   21  O   UNL     1     -39.756  54.966 -54.779  1.00  0.00    -0.271 OA
HETATM   22  H   UNL     1     -42.725  54.652 -55.985  1.00  0.00     0.190 HD
BRANCH  20  23
HETATM   23  C   UNL     1     -41.105  53.005 -54.774  1.00  0.00     0.089 A 
HETATM   24  C   UNL     1     -41.314  52.516 -53.351  1.00  0.00     0.036 A 
HETATM   25  C   UNL     1     -40.059  52.149 -54.105  1.00  0.00     0.025 A 
BRANCH  24  26
HETATM   26  C   UNL     1     -41.264  53.461 -52.173  1.00  0.00    -0.015 A 
HETATM   27  C   UNL     1     -42.369  54.256 -51.828  1.00  0.00     0.123 A 
HETATM   28  F   UNL     1     -43.484  54.186 -52.574  1.00  0.00    -0.206 F 
HETATM   29  C   UNL     1     -42.357  55.117 -50.731  1.00  0.00     0.043 A 
HETATM   30  C   UNL     1     -41.220  55.198 -49.933  1.00  0.00     0.003 A 
HETATM   31  C   UNL     1     -40.108  54.416 -50.237  1.00  0.00     0.001 A 
HETATM   32  C   UNL     1     -40.134  53.555 -51.340  1.00  0.00     0.011 A 
ENDBRANCH  24  26
ENDBRANCH  20  23
ENDBRANCH   2  19
TORSDOF 6
ENDMDL
MODEL 3
REMARK VINA RESULT:      -8.6      3.976     10.058
REMARK  6 active torsions:
REMARK  status: ('A' for Active; 'I' for Inactive)
REMARK    1  A    between atoms: O_2  and  C_3 
REMARK    2  A    between atoms: C_6  and  C_7 
REMARK    3  A    between atoms: C_11  and  C_12 
REMARK       I    between atoms: C_12  and  N_13 
REMARK    4  A    between atoms: N_13  and  N_14 
REMARK       I    between atoms: N_14  and  C_15 
REMARK    5  A    between atoms: C_15  and  C_16 
REMARK    6  A    between atoms: C_17  and  C_18 
ROOT
HETATM    1  C   UNL     1     -42.945  56.995 -56.204  1.00  0.00     0.288 C 
HETATM    2  N   UNL     1     -43.643  56.233 -57.118  1.00  0.00    -0.262 N 
HETATM    3  O   UNL     1     -42.968  58.224 -56.222  1.00  0.00    -0.264 OA
HETATM    4  H   UNL     1     -43.526  55.227 -57.208  1.00  0.00     0.190 HD
ENDROOT
BRANCH   1   5
HETATM    5  C   UNL     1     -42.200  56.247 -55.228  1.00  0.00     0.121 A 
HETATM    6  N   UNL     1     -41.660  56.840 -54.121  1.00  0.00    -0.272 N 
HETATM    7  N   UNL     1     -41.044  55.989 -53.287  1.00  0.00    -0.174 NA
HETATM    8  H   UNL     1     -41.701  57.824 -53.877  1.00  0.00     0.189 HD
HETATM    9  C   UNL     1     -41.161  54.789 -53.878  1.00  0.00     0.089 A 
HETATM   10  C   UNL     1     -41.871  54.912 -55.105  1.00  0.00     0.071 A 
BRANCH   9  11
HETATM   11  C   UNL     1     -40.638  53.566 -53.264  1.00  0.00    -0.005 A 
HETATM   12  C   UNL     1     -40.265  52.474 -54.060  1.00  0.00     0.016 A 
HETATM   13  C   UNL     1     -39.713  51.320 -53.490  1.00  0.00     0.037 A 
HETATM   14  C   UNL     1     -39.530  51.240 -52.111  1.00  0.00     0.068 A 
HETATM   15  C   UNL     1     -39.927  52.312 -51.308  1.00  0.00     0.037 A 
HETATM   16  C   UNL     1     -40.473  53.467 -51.877  1.00  0.00     0.016 A 
BRANCH  14  17
HETATM   17  O   UNL     1     -38.992  50.183 -51.431  1.00  0.00    -0.356 OA
HETATM   18  C   UNL     1     -39.841  49.528 -50.497  1.00  0.00     0.210 C 
ENDBRANCH  14  17
ENDBRANCH   9  11
ENDBRANCH   1   5
BRANCH   2  19
HETATM   19  N   UNL     1     -44.317  56.867 -58.163  1.00  0.00    -0.267 N 
HETATM   20  C   UNL     1     -43.689  56.954 -59.384  1.00  0.00     0.240 C 
HETATM   21  O   UNL     1     -42.574  56.490 -59.607  1.00  0.00    -0.271 OA
HETATM   22  H   UNL     1     -45.237  57.255 -57.966  1.00  0.00     0.190 HD
BRANCH  20  23
HETATM   23  C   UNL     1     -44.474  57.668 -60.426  1.00  0.00     0.089 A 
HETATM   24  C   UNL     1     -44.426  59.180 -60.571  1.00  0.00     0.036 A 
HETATM   25  C   UNL     1     -45.666  58.505 -60.036  1.00  0.00     0.025 A 
BRANCH  24  26
HETATM   26  C   UNL     1     -43.558  60.034 -59.676  1.00  0.00    -0.015 A 
HETATM   27  C   UNL     1     -42.211  60.282 -59.986  1.00  0.00     0.123 A 
HETATM   28  F   UNL     1     -41.682  59.732 -61.091  1.00  0.00    -0.206 F 
HETATM   29  C   UNL     1     -41.398  61.088 -59.191  1.00  0.00     0.043 A 
HETATM   30  C   UNL     1     -41.925  61.682 -58.048  1.00  0.00     0.003 A 
HETATM   31  C   UNL     1     -43.261  61.468 -57.715  1.00  0.00     0.001 A 
HETATM   32  C   UNL     1     -44.067  60.659 -58.523  1.00  0.00     0.011 A 
ENDBRANCH  24  26
ENDBRANCH  20  23
ENDBRANCH   2  19
TORSDOF 6
ENDMDL
MODEL 4
REMARK VINA RESULT:      -8.5      3.919      9.991
REMARK  6 active torsions:
REMARK  status: ('A' for Active; 'I' for Inactive)
REMARK    1  A    between atoms: O_2  and  C_3 
REMARK    2  A    between atoms: C_6  and  C_7 
REMARK    3  A    between atoms: C_11  and  C_12 
REMARK       I    between atoms: C_12  and  N_13 
REMARK    4  A    between atoms: N_13  and  N_14 
REMARK       I    between atoms: N_14  and  C_15 
REMARK    5  A    between atoms: C_15  and  C_16 
REMARK    6  A    between atoms: C_17  and  C_18 
ROOT
HETATM    1  C   UNL     1     -42.933  56.748 -57.188  1.00  0.00     0.288 C 
HETATM    2  N   UNL     1     -41.802  57.344 -57.707  1.00  0.00    -0.262 N 
HETATM    3  O   UNL     1     -44.056  56.973 -57.636  1.00  0.00    -0.264 OA
HETATM    4  H   UNL     1     -40.888  57.281 -57.266  1.00  0.00     0.190 HD
ENDROOT
BRANCH   1   5
HETATM    5  C   UNL     1     -42.700  55.841 -56.098  1.00  0.00     0.121 A 
HETATM    6  N   UNL     1     -43.712  55.410 -55.287  1.00  0.00    -0.272 N 
HETATM    7  N   UNL     1     -43.330  54.525 -54.353  1.00  0.00    -0.174 NA
HETATM    8  H   UNL     1     -44.690  55.675 -55.341  1.00  0.00     0.189 HD
HETATM    9  C   UNL     1     -42.008  54.385 -54.540  1.00  0.00     0.089 A 
HETATM   10  C   UNL     1     -41.573  55.203 -55.619  1.00  0.00     0.071 A 
BRANCH   9  11
HETATM   11  C   UNL     1     -41.203  53.467 -53.730  1.00  0.00    -0.005 A 
HETATM   12  C   UNL     1     -41.054  53.679 -52.352  1.00  0.00     0.016 A 
HETATM   13  C   UNL     1     -40.332  52.779 -51.556  1.00  0.00     0.037 A 
HETATM   14  C   UNL     1     -39.744  51.654 -52.131  1.00  0.00     0.068 A 
HETATM   15  C   UNL     1     -39.863  51.451 -53.508  1.00  0.00     0.037 A 
HETATM   16  C   UNL     1     -40.588  52.346 -54.302  1.00  0.00     0.016 A 
BRANCH  14  17
HETATM   17  O   UNL     1     -39.029  50.694 -51.471  1.00  0.00    -0.356 OA
HETATM   18  C   UNL     1     -39.775  49.762 -50.698  1.00  0.00     0.210 C 
ENDBRANCH  14  17
ENDBRANCH   9  11
ENDBRANCH   1   5
BRANCH   2  19
HETATM   19  N   UNL     1     -41.936  58.313 -58.703  1.00  0.00    -0.267 N 
HETATM   20  C   UNL     1     -41.827  59.636 -58.343  1.00  0.00     0.240 C 
HETATM   21  O   UNL     1     -41.604  60.008 -57.194  1.00  0.00    -0.271 OA
HETATM   22  H   UNL     1     -42.129  57.993 -59.650  1.00  0.00     0.190 HD
BRANCH  20  23
HETATM   23  C   UNL     1     -42.009  60.593 -59.466  1.00  0.00     0.089 A 
HETATM   24  C   UNL     1     -43.369  60.839 -60.097  1.00  0.00     0.036 A 
HETATM   25  C   UNL     1     -42.303  60.084 -60.854  1.00  0.00     0.025 A 
BRANCH  24  26
HETATM   26  C   UNL     1     -44.612  60.138 -59.600  1.00  0.00    -0.015 A 
HETATM   27  C   UNL     1     -45.267  60.557 -58.430  1.00  0.00     0.123 A 
HETATM   28  F   UNL     1     -44.765  61.590 -57.733  1.00  0.00    -0.206 F 
HETATM   29  C   UNL     1     -46.430  59.944 -57.965  1.00  0.00     0.043 A 
HETATM   30  C   UNL     1     -46.979  58.882 -58.676  1.00  0.00     0.003 A 
HETATM   31  C   UNL     1     -46.364  58.446 -59.847  1.00  0.00     0.001 A 
HETATM   32  C   UNL     1     -45.198  59.071 -60.304  1.00  0.00     0.011 A 
ENDBRANCH  24  26
ENDBRANCH  20  23
ENDBRANCH   2  19
TORSDOF 6
ENDMDL
MODEL 5
REMARK VINA RESULT:      -8.4      3.955     10.062
REMARK  6 active torsions:
REMARK  status: ('A' for Active; 'I' for Inactive)
REMARK    1  A    between atoms: O_2  and  C_3 
REMARK    2  A    between atoms: C_6  and  C_7 
REMARK    3  A    between atoms: C_11  and  C_12 
REMARK       I    between atoms: C_12  and  N_13 
REMARK    4  A    between atoms: N_13  and  N_14 
REMARK       I    between atoms: N_14  and  C_15 
REMARK    5  A    between atoms: C_15  and  C_16 
REMARK    6  A    between atoms: C_17  and  C_18 
ROOT
HETATM    1  C   UNL     1     -42.995  56.749 -56.924  1.00  0.00     0.288 C 
HETATM    2  N   UNL     1     -44.357  56.820 -56.713  1.00  0.00    -0.262 N 
HETATM    3  O   UNL     1     -42.464  57.208 -57.933  1.00  0.00    -0.264 OA
HETATM    4  H   UNL     1     -44.830  56.327 -55.960  1.00  0.00     0.190 HD
ENDROOT
BRANCH   1   5
HETATM    5  C   UNL     1     -42.248  56.109 -55.876  1.00  0.00     0.121 A 
HETATM    6  N   UNL     1     -41.716  56.814 -54.833  1.00  0.00    -0.272 N 
HETATM    7  N   UNL     1     -41.096  56.056 -53.916  1.00  0.00    -0.174 NA
HETATM    8  H   UNL     1     -41.766  57.818 -54.688  1.00  0.00     0.189 HD
HETATM    9  C   UNL     1     -41.201  54.802 -54.385  1.00  0.00     0.089 A 
HETATM   10  C   UNL     1     -41.909  54.796 -55.619  1.00  0.00     0.071 A 
BRANCH   9  11
HETATM   11  C   UNL     1     -40.670  53.652 -53.649  1.00  0.00    -0.005 A 
HETATM   12  C   UNL     1     -40.276  52.492 -54.333  1.00  0.00     0.016 A 
HETATM   13  C   UNL     1     -39.717  51.405 -53.648  1.00  0.00     0.037 A 
HETATM   14  C   UNL     1     -39.546  51.462 -52.266  1.00  0.00     0.068 A 
HETATM   15  C   UNL     1     -39.963  52.602 -51.575  1.00  0.00     0.037 A 
HETATM   16  C   UNL     1     -40.517  53.690 -52.258  1.00  0.00     0.016 A 
BRANCH  14  17
HETATM   17  O   UNL     1     -39.003  50.484 -51.481  1.00  0.00    -0.356 OA
HETATM   18  C   UNL     1     -39.910  49.719 -50.697  1.00  0.00     0.210 C 
ENDBRANCH  14  17
ENDBRANCH   9  11
ENDBRANCH   1   5
BRANCH   2  19
HETATM   19  N   UNL     1     -45.178  57.336 -57.717  1.00  0.00    -0.267 N 
HETATM   20  C   UNL     1     -45.670  58.612 -57.564  1.00  0.00     0.240 C 
HETATM   21  O   UNL     1     -45.413  59.325 -56.598  1.00  0.00    -0.271 OA
HETATM   22  H   UNL     1     -45.391  56.734 -58.509  1.00  0.00     0.190 HD
BRANCH  20  23
HETATM   23  C   UNL     1     -46.554  59.063 -58.671  1.00  0.00     0.089 A 
HETATM   24  C   UNL     1     -46.010  59.815 -59.875  1.00  0.00     0.036 A 
HETATM   25  C   UNL     1     -46.856  60.529 -58.849  1.00  0.00     0.025 A 
BRANCH  24  26
HETATM   26  C   UNL     1     -44.537  60.123 -60.018  1.00  0.00    -0.015 A 
HETATM   27  C   UNL     1     -43.636  59.165 -60.510  1.00  0.00     0.123 A 
HETATM   28  F   UNL     1     -44.093  57.946 -60.841  1.00  0.00    -0.206 F 
HETATM   29  C   UNL     1     -42.278  59.432 -60.675  1.00  0.00     0.043 A 
HETATM   30  C   UNL     1     -41.781  60.692 -60.353  1.00  0.00     0.003 A 
HETATM   31  C   UNL     1     -42.647  61.671 -59.873  1.00  0.00     0.001 A 
HETATM   32  C   UNL     1     -44.009  61.390 -59.714  1.00  0.00     0.011 A 
ENDBRANCH  24  26
ENDBRANCH  20  23
ENDBRANCH   2  19
TORSDOF 6
ENDMDL
MODEL 6
REMARK VINA RESULT:      -8.4      4.079      4.743
REMARK  6 active torsions:
REMARK  status: ('A' for Active; 'I' for Inactive)
REMARK    1  A    between atoms: O_2  and  C_3 
REMARK    2  A    between atoms: C_6  and  C_7 
REMARK    3  A    between atoms: C_11  and  C_12 
REMARK       I    between atoms: C_12  and  N_13 
REMARK    4  A    between atoms: N_13  and  N_14 
REMARK       I    between atoms: N_14  and  C_15 
REMARK    5  A    between atoms: C_15  and  C_16 
REMARK    6  A    between atoms: C_17  and  C_18 
ROOT
HETATM    1  C   UNL     1     -42.969  56.757 -55.408  1.00  0.00     0.288 C 
HETATM    2  N   UNL     1     -42.822  57.422 -54.208  1.00  0.00    -0.262 N 
HETATM    3  O   UNL     1     -43.426  55.617 -55.474  1.00  0.00    -0.264 OA
HETATM    4  H   UNL     1     -42.321  58.301 -54.117  1.00  0.00     0.190 HD
ENDROOT
BRANCH   1   5
HETATM    5  C   UNL     1     -42.560  57.497 -56.571  1.00  0.00     0.121 A 
HETATM    6  N   UNL     1     -42.388  56.898 -57.786  1.00  0.00    -0.272 N 
HETATM    7  N   UNL     1     -42.057  57.742 -58.775  1.00  0.00    -0.174 NA
HETATM    8  H   UNL     1     -42.503  55.912 -58.001  1.00  0.00     0.189 HD
HETATM    9  C   UNL     1     -41.984  58.945 -58.183  1.00  0.00     0.089 A 
HETATM   10  C   UNL     1     -42.283  58.830 -56.796  1.00  0.00     0.071 A 
BRANCH   9  11
HETATM   11  C   UNL     1     -41.674  60.163 -58.935  1.00  0.00    -0.005 A 
HETATM   12  C   UNL     1     -41.089  61.265 -58.295  1.00  0.00     0.016 A 
HETATM   13  C   UNL     1     -40.738  62.415 -59.013  1.00  0.00     0.037 A 
HETATM   14  C   UNL     1     -40.971  62.481 -60.386  1.00  0.00     0.068 A 
HETATM   15  C   UNL     1     -41.580  61.399 -61.025  1.00  0.00     0.037 A 
HETATM   16  C   UNL     1     -41.926  60.248 -60.310  1.00  0.00     0.016 A 
BRANCH  14  17
HETATM   17  O   UNL     1     -40.665  63.532 -61.204  1.00  0.00    -0.356 OA
HETATM   18  C   UNL     1     -39.424  63.461 -61.895  1.00  0.00     0.210 C 
ENDBRANCH  14  17
ENDBRANCH   9  11
ENDBRANCH   1   5
BRANCH   2  19
HETATM   19  N   UNL     1     -43.101  56.750 -53.017  1.00  0.00    -0.267 N 
HETATM   20  C   UNL     1     -42.091  56.619 -52.092  1.00  0.00     0.240 C 
HETATM   21  O   UNL     1     -40.962  57.076 -52.253  1.00  0.00    -0.271 OA
HETATM   22  H   UNL     1     -44.037  56.368 -52.897  1.00  0.00     0.190 HD
BRANCH  20  23
HETATM   23  C   UNL     1     -42.476  55.868 -50.868  1.00  0.00     0.089 A 
HETATM   24  C   UNL     1     -42.164  54.391 -50.702  1.00  0.00     0.036 A 
HETATM   25  C   UNL     1     -43.585  54.848 -50.922  1.00  0.00     0.025 A 
BRANCH  24  26
HETATM   26  C   UNL     1     -41.424  53.613 -51.766  1.00  0.00    -0.015 A 
HETATM   27  C   UNL     1     -40.251  52.901 -51.467  1.00  0.00     0.123 A 
HETATM   28  F   UNL     1     -39.770  52.930 -50.214  1.00  0.00    -0.206 F 
HETATM   29  C   UNL     1     -39.566  52.156 -52.425  1.00  0.00     0.043 A 
HETATM   30  C   UNL     1     -40.051  52.097 -53.728  1.00  0.00     0.003 A 
HETATM   31  C   UNL     1     -41.218  52.781 -54.059  1.00  0.00     0.001 A 
HETATM   32  C   UNL     1     -41.898  53.524 -53.088  1.00  0.00     0.011 A 
ENDBRANCH  24  26
ENDBRANCH  20  23
ENDBRANCH   2  19
TORSDOF 6
ENDMDL
MODEL 7
REMARK VINA RESULT:      -8.4      7.033     10.518
REMARK  6 active torsions:
REMARK  status: ('A' for Active; 'I' for Inactive)
REMARK    1  A    between atoms: O_2  and  C_3 
REMARK    2  A    between atoms: C_6  and  C_7 
REMARK    3  A    between atoms: C_11  and  C_12 
REMARK       I    between atoms: C_12  and  N_13 
REMARK    4  A    between atoms: N_13  and  N_14 
REMARK       I    between atoms: N_14  and  C_15 
REMARK    5  A    between atoms: C_15  and  C_16 
REMARK    6  A    between atoms: C_17  and  C_18 
ROOT
HETATM    1  C   UNL     1     -42.261  58.875 -51.515  1.00  0.00     0.288 C 
HETATM    2  N   UNL     1     -43.358  59.259 -50.773  1.00  0.00    -0.262 N 
HETATM    3  O   UNL     1     -41.636  59.667 -52.218  1.00  0.00    -0.264 OA
HETATM    4  H   UNL     1     -43.969  58.598 -50.300  1.00  0.00     0.190 HD
ENDROOT
BRANCH   1   5
HETATM    5  C   UNL     1     -41.899  57.488 -51.398  1.00  0.00     0.121 A 
HETATM    6  N   UNL     1     -42.108  56.781 -50.248  1.00  0.00    -0.272 N 
HETATM    7  N   UNL     1     -41.763  55.487 -50.326  1.00  0.00    -0.174 NA
HETATM    8  H   UNL     1     -42.504  57.132 -49.380  1.00  0.00     0.189 HD
HETATM    9  C   UNL     1     -41.285  55.339 -51.572  1.00  0.00     0.089 A 
HETATM   10  C   UNL     1     -41.344  56.576 -52.273  1.00  0.00     0.071 A 
BRANCH   9  11
HETATM   11  C   UNL     1     -40.823  54.044 -52.078  1.00  0.00    -0.005 A 
HETATM   12  C   UNL     1     -40.957  53.723 -53.436  1.00  0.00     0.016 A 
HETATM   13  C   UNL     1     -40.471  52.510 -53.943  1.00  0.00     0.037 A 
HETATM   14  C   UNL     1     -39.845  51.598 -53.094  1.00  0.00     0.068 A 
HETATM   15  C   UNL     1     -39.735  51.899 -51.735  1.00  0.00     0.037 A 
HETATM   16  C   UNL     1     -40.215  53.111 -51.229  1.00  0.00     0.016 A 
BRANCH  14  17
HETATM   17  O   UNL     1     -39.316  50.392 -53.460  1.00  0.00    -0.356 OA
HETATM   18  C   UNL     1     -39.812  49.816 -54.661  1.00  0.00     0.210 C 
ENDBRANCH  14  17
ENDBRANCH   9  11
ENDBRANCH   1   5
BRANCH   2  19
HETATM   19  N   UNL     1     -43.845  60.562 -50.896  1.00  0.00    -0.267 N 
HETATM   20  C   UNL     1     -45.207  60.752 -50.875  1.00  0.00     0.240 C 
HETATM   21  O   UNL     1     -46.016  59.839 -50.737  1.00  0.00    -0.271 OA
HETATM   22  H   UNL     1     -43.166  61.310 -51.018  1.00  0.00     0.190 HD
BRANCH  20  23
HETATM   23  C   UNL     1     -45.629  62.169 -51.038  1.00  0.00     0.089 A 
HETATM   24  C   UNL     1     -46.017  63.032 -49.849  1.00  0.00     0.036 A 
HETATM   25  C   UNL     1     -47.069  62.560 -50.823  1.00  0.00     0.025 A 
BRANCH  24  26
HETATM   26  C   UNL     1     -45.972  62.499 -48.435  1.00  0.00    -0.015 A 
HETATM   27  C   UNL     1     -47.120  62.480 -47.626  1.00  0.00     0.123 A 
HETATM   28  F   UNL     1     -48.274  62.962 -48.116  1.00  0.00    -0.206 F 
HETATM   29  C   UNL     1     -47.110  61.971 -46.329  1.00  0.00     0.043 A 
HETATM   30  C   UNL     1     -45.931  61.452 -45.802  1.00  0.00     0.003 A 
HETATM   31  C   UNL     1     -44.775  61.444 -46.579  1.00  0.00     0.001 A 
HETATM   32  C   UNL     1     -44.799  61.957 -47.881  1.00  0.00     0.011 A 
ENDBRANCH  24  26
ENDBRANCH  20  23
ENDBRANCH   2  19
TORSDOF 6
ENDMDL
MODEL 8
REMARK VINA RESULT:      -8.3      3.629      9.793
REMARK  6 active torsions:
REMARK  status: ('A' for Active; 'I' for Inactive)
REMARK    1  A    between atoms: O_2  and  C_3 
REMARK    2  A    between atoms: C_6  and  C_7 
REMARK    3  A    between atoms: C_11  and  C_12 
REMARK       I    between atoms: C_12  and  N_13 
REMARK    4  A    between atoms: N_13  and  N_14 
REMARK       I    between atoms: N_14  and  C_15 
REMARK    5  A    between atoms: C_15  and  C_16 
REMARK    6  A    between atoms: C_17  and  C_18 
ROOT
HETATM    1  C   UNL     1     -42.442  56.955 -56.614  1.00  0.00     0.288 C 
HETATM    2  N   UNL     1     -42.459  58.321 -56.422  1.00  0.00    -0.262 N 
HETATM    3  O   UNL     1     -42.662  56.445 -57.710  1.00  0.00    -0.264 OA
HETATM    4  H   UNL     1     -42.420  58.755 -55.503  1.00  0.00     0.190 HD
ENDROOT
BRANCH   1   5
HETATM    5  C   UNL     1     -42.138  56.178 -55.443  1.00  0.00     0.121 A 
HETATM    6  N   UNL     1     -42.777  56.384 -54.253  1.00  0.00    -0.272 N 
HETATM    7  N   UNL     1     -42.413  55.537 -53.279  1.00  0.00    -0.174 NA
HETATM    8  H   UNL     1     -43.489  57.081 -54.056  1.00  0.00     0.189 HD
HETATM    9  C   UNL     1     -41.478  54.755 -53.842  1.00  0.00     0.089 A 
HETATM   10  C   UNL     1     -41.270  55.134 -55.198  1.00  0.00     0.071 A 
BRANCH   9  11
HETATM   11  C   UNL     1     -40.836  53.660 -53.109  1.00  0.00    -0.005 A 
HETATM   12  C   UNL     1     -40.739  53.702 -51.711  1.00  0.00     0.016 A 
HETATM   13  C   UNL     1     -40.177  52.638 -50.994  1.00  0.00     0.037 A 
HETATM   14  C   UNL     1     -39.701  51.514 -51.667  1.00  0.00     0.068 A 
HETATM   15  C   UNL     1     -39.768  51.478 -53.062  1.00  0.00     0.037 A 
HETATM   16  C   UNL     1     -40.334  52.538 -53.779  1.00  0.00     0.016 A 
BRANCH  14  17
HETATM   17  O   UNL     1     -39.146  50.406 -51.091  1.00  0.00    -0.356 OA
HETATM   18  C   UNL     1     -39.575  49.146 -51.591  1.00  0.00     0.210 C 
ENDBRANCH  14  17
ENDBRANCH   9  11
ENDBRANCH   1   5
BRANCH   2  19
HETATM   19  N   UNL     1     -42.839  59.154 -57.476  1.00  0.00    -0.267 N 
HETATM   20  C   UNL     1     -44.118  59.662 -57.475  1.00  0.00     0.240 C 
HETATM   21  O   UNL     1     -44.936  59.434 -56.589  1.00  0.00    -0.271 OA
HETATM   22  H   UNL     1     -42.156  59.331 -58.209  1.00  0.00     0.190 HD
BRANCH  20  23
HETATM   23  C   UNL     1     -44.436  60.517 -58.649  1.00  0.00     0.089 A 
HETATM   24  C   UNL     1     -45.009  59.937 -59.932  1.00  0.00     0.036 A 
HETATM   25  C   UNL     1     -43.588  60.443 -59.893  1.00  0.00     0.025 A 
BRANCH  24  26
HETATM   26  C   UNL     1     -45.305  58.461 -60.071  1.00  0.00    -0.015 A 
HETATM   27  C   UNL     1     -46.588  57.947 -59.821  1.00  0.00     0.123 A 
HETATM   28  F   UNL     1     -47.564  58.784 -59.433  1.00  0.00    -0.206 F 
HETATM   29  C   UNL     1     -46.892  56.595 -59.967  1.00  0.00     0.043 A 
HETATM   30  C   UNL     1     -45.903  55.708 -60.382  1.00  0.00     0.003 A 
HETATM   31  C   UNL     1     -44.621  56.183 -60.650  1.00  0.00     0.001 A 
HETATM   32  C   UNL     1     -44.329  57.544 -60.501  1.00  0.00     0.011 A 
ENDBRANCH  24  26
ENDBRANCH  20  23
ENDBRANCH   2  19
TORSDOF 6
ENDMDL
MODEL 9
REMARK VINA RESULT:      -8.2      2.624      3.880
REMARK  6 active torsions:
REMARK  status: ('A' for Active; 'I' for Inactive)
REMARK    1  A    between atoms: O_2  and  C_3 
REMARK    2  A    between atoms: C_6  and  C_7 
REMARK    3  A    between atoms: C_11  and  C_12 
REMARK       I    between atoms: C_12  and  N_13 
REMARK    4  A    between atoms: N_13  and  N_14 
REMARK       I    between atoms: N_14  and  C_15 
REMARK    5  A    between atoms: C_15  and  C_16 
REMARK    6  A    between atoms: C_17  and  C_18 
ROOT
HETATM    1  C   UNL     1     -43.651  56.947 -57.029  1.00  0.00     0.288 C 
HETATM    2  N   UNL     1     -44.315  57.276 -55.865  1.00  0.00    -0.262 N 
HETATM    3  O   UNL     1     -42.440  56.733 -57.053  1.00  0.00    -0.264 OA
HETATM    4  H   UNL     1     -45.281  57.593 -55.846  1.00  0.00     0.190 HD
ENDROOT
BRANCH   1   5
HETATM    5  C   UNL     1     -44.478  56.864 -58.201  1.00  0.00     0.121 A 
HETATM    6  N   UNL     1     -44.392  55.816 -59.074  1.00  0.00    -0.272 N 
HETATM    7  N   UNL     1     -45.272  55.868 -60.085  1.00  0.00    -0.174 NA
HETATM    8  H   UNL     1     -43.759  55.024 -59.014  1.00  0.00     0.189 HD
HETATM    9  C   UNL     1     -45.950  57.010 -59.886  1.00  0.00     0.089 A 
HETATM   10  C   UNL     1     -45.473  57.669 -58.718  1.00  0.00     0.071 A 
BRANCH   9  11
HETATM   11  C   UNL     1     -47.042  57.429 -60.768  1.00  0.00    -0.005 A 
HETATM   12  C   UNL     1     -47.727  56.486 -61.549  1.00  0.00     0.016 A 
HETATM   13  C   UNL     1     -48.808  56.864 -62.356  1.00  0.00     0.037 A 
HETATM   14  C   UNL     1     -49.219  58.196 -62.395  1.00  0.00     0.068 A 
HETATM   15  C   UNL     1     -48.523  59.145 -61.643  1.00  0.00     0.037 A 
HETATM   16  C   UNL     1     -47.447  58.767 -60.833  1.00  0.00     0.016 A 
BRANCH  14  17
HETATM   17  O   UNL     1     -50.261  58.694 -63.124  1.00  0.00    -0.356 OA
HETATM   18  C   UNL     1     -50.254  60.095 -63.372  1.00  0.00     0.210 C 
ENDBRANCH  14  17
ENDBRANCH   9  11
ENDBRANCH   1   5
BRANCH   2  19
HETATM   19  N   UNL     1     -43.583  57.476 -54.693  1.00  0.00    -0.267 N 
HETATM   20  C   UNL     1     -43.612  56.492 -53.732  1.00  0.00     0.240 C 
HETATM   21  O   UNL     1     -44.235  55.441 -53.858  1.00  0.00    -0.271 OA
HETATM   22  H   UNL     1     -43.076  58.353 -54.596  1.00  0.00     0.190 HD
BRANCH  20  23
HETATM   23  C   UNL     1     -42.823  56.806 -52.512  1.00  0.00     0.089 A 
HETATM   24  C   UNL     1     -41.595  56.000 -52.121  1.00  0.00     0.036 A 
HETATM   25  C   UNL     1     -42.870  55.882 -51.321  1.00  0.00     0.025 A 
BRANCH  24  26
HETATM   26  C   UNL     1     -41.100  54.850 -52.968  1.00  0.00    -0.015 A 
HETATM   27  C   UNL     1     -40.509  55.070 -54.223  1.00  0.00     0.123 A 
HETATM   28  F   UNL     1     -40.400  56.327 -54.685  1.00  0.00    -0.206 F 
HETATM   29  C   UNL     1     -40.021  54.029 -55.011  1.00  0.00     0.043 A 
HETATM   30  C   UNL     1     -40.108  52.718 -54.551  1.00  0.00     0.003 A 
HETATM   31  C   UNL     1     -40.677  52.463 -53.305  1.00  0.00     0.001 A 
HETATM   32  C   UNL     1     -41.162  53.518 -52.523  1.00  0.00     0.011 A 
ENDBRANCH  24  26
ENDBRANCH  20  23
ENDBRANCH   2  19
TORSDOF 6
ENDMDL
MODEL 10
REMARK VINA RESULT:      -8.2     14.921     15.983
REMARK  6 active torsions:
REMARK  status: ('A' for Active; 'I' for Inactive)
REMARK    1  A    between atoms: O_2  and  C_3 
REMARK    2  A    between atoms: C_6  and  C_7 
REMARK    3  A    between atoms: C_11  and  C_12 
REMARK       I    between atoms: C_12  and  N_13 
REMARK    4  A    between atoms: N_13  and  N_14 
REMARK       I    between atoms: N_14  and  C_15 
REMARK    5  A    between atoms: C_15  and  C_16 
REMARK    6  A    between atoms: C_17  and  C_18 
ROOT
HETATM    1  C   UNL     1     -36.789  41.396 -55.114  1.00  0.00     0.288 C 
HETATM    2  N   UNL     1     -37.447  40.530 -54.265  1.00  0.00    -0.262 N 
HETATM    3  O   UNL     1     -36.088  42.316 -54.697  1.00  0.00    -0.264 OA
HETATM    4  H   UNL     1     -38.138  39.857 -54.584  1.00  0.00     0.190 HD
ENDROOT
BRANCH   1   5
HETATM    5  C   UNL     1     -36.977  41.137 -56.516  1.00  0.00     0.121 A 
HETATM    6  N   UNL     1     -36.335  41.865 -57.478  1.00  0.00    -0.272 N 
HETATM    7  N   UNL     1     -36.581  41.458 -58.732  1.00  0.00    -0.174 NA
HETATM    8  H   UNL     1     -35.700  42.644 -57.330  1.00  0.00     0.189 HD
HETATM    9  C   UNL     1     -37.438  40.433 -58.594  1.00  0.00     0.089 A 
HETATM   10  C   UNL     1     -37.719  40.209 -57.217  1.00  0.00     0.071 A 
BRANCH   9  11
HETATM   11  C   UNL     1     -37.937  39.677 -59.745  1.00  0.00    -0.005 A 
HETATM   12  C   UNL     1     -37.234  39.685 -60.959  1.00  0.00     0.016 A 
HETATM   13  C   UNL     1     -37.671  38.924 -62.051  1.00  0.00     0.037 A 
HETATM   14  C   UNL     1     -38.821  38.144 -61.945  1.00  0.00     0.068 A 
HETATM   15  C   UNL     1     -39.542  38.154 -60.749  1.00  0.00     0.037 A 
HETATM   16  C   UNL     1     -39.104  38.910 -59.656  1.00  0.00     0.016 A 
BRANCH  14  17
HETATM   17  O   UNL     1     -39.346  37.347 -62.923  1.00  0.00    -0.356 OA
HETATM   18  C   UNL     1     -40.691  37.607 -63.304  1.00  0.00     0.210 C 
ENDBRANCH  14  17
ENDBRANCH   9  11
ENDBRANCH   1   5
BRANCH   2  19
HETATM   19  N   UNL     1     -37.404  40.760 -52.888  1.00  0.00    -0.267 N 
HETATM   20  C   UNL     1     -37.131  39.696 -52.060  1.00  0.00     0.240 C 
HETATM   21  O   UNL     1     -36.907  38.560 -52.469  1.00  0.00    -0.271 OA
HETATM   22  H   UNL     1     -37.599  41.703 -52.560  1.00  0.00     0.190 HD
BRANCH  20  23
HETATM   23  C   UNL     1     -37.132  40.033 -50.612  1.00  0.00     0.089 A 
HETATM   24  C   UNL     1     -35.842  40.216 -49.830  1.00  0.00     0.036 A 
HETATM   25  C   UNL     1     -36.710  39.004 -49.594  1.00  0.00     0.025 A 
BRANCH  24  26
HETATM   26  C   UNL     1     -34.489  40.087 -50.492  1.00  0.00    -0.015 A 
HETATM   27  C   UNL     1     -33.916  41.158 -51.196  1.00  0.00     0.123 A 
HETATM   28  F   UNL     1     -34.595  42.313 -51.297  1.00  0.00    -0.206 F 
HETATM   29  C   UNL     1     -32.659  41.072 -51.793  1.00  0.00     0.043 A 
HETATM   30  C   UNL     1     -31.929  39.892 -51.691  1.00  0.00     0.003 A 
HETATM   31  C   UNL     1     -32.460  38.812 -50.991  1.00  0.00     0.001 A 
HETATM   32  C   UNL     1     -33.723  38.912 -50.395  1.00  0.00     0.011 A 
ENDBRANCH  24  26
ENDBRANCH  20  23
ENDBRANCH   2  19
TORSDOF 6
ENDMDL
