MODEL 1
REMARK VINA RESULT:      -7.2      0.000      0.000
REMARK  9 active torsions:
REMARK  status: ('A' for Active; 'I' for Inactive)
REMARK    1  A    between atoms: C_6  and  C_7 
REMARK    2  A    between atoms: C_7  and  C_8 
REMARK       I    between atoms: C_8  and  N_9 
REMARK    3  A    between atoms: N_9  and  C_10 
REMARK    4  A    between atoms: C_10  and  C_11 
REMARK    5  A    between atoms: C_11  and  N_12 
REMARK    6  A    between atoms: C_19  and  C_20 
REMARK    7  A    between atoms: C_29  and  C_30 
REMARK    8  A    between atoms: C_30  and  O_31 
REMARK    9  A    between atoms: O_31  and  C_32 
ROOT
HETATM    1  C   UNL     1     -44.266  55.161 -50.244  1.00  0.00     0.071 C 
HETATM    2  C   UNL     1     -43.258  54.925 -51.342  1.00  0.00     0.048 C 
HETATM    3  N   UNL     1     -43.793  54.334 -52.485  1.00  0.00    -0.229 NA
HETATM    4  C   UNL     1     -43.177  54.601 -53.588  1.00  0.00     0.170 C 
HETATM    5  N   UNL     1     -41.840  55.377 -53.616  1.00  0.00    -0.318 N 
HETATM    6  C   UNL     1     -41.857  56.244 -54.571  1.00  0.00     0.011 C 
HETATM    7  C   UNL     1     -41.025  55.066 -52.416  1.00  0.00     0.168 C 
HETATM    8  S   UNL     1     -43.841  54.476 -55.174  1.00  0.00    -0.086 SA
HETATM    9  C   UNL     1     -42.878  55.963 -55.666  1.00  0.00     0.135 C 
HETATM   10  C   UNL     1     -41.969  55.336 -51.285  1.00  0.00     0.069 C 
ENDROOT
BRANCH   6  11
HETATM   11  C   UNL     1     -40.970  57.456 -54.519  1.00  0.00     0.156 C 
BRANCH  11  12
HETATM   12  C   UNL     1     -41.758  58.725 -54.263  1.00  0.00     0.223 C 
HETATM   13  N   UNL     1     -42.879  58.620 -53.463  1.00  0.00    -0.359 N 
HETATM   14  H   UNL     1     -43.228  57.703 -53.197  1.00  0.00     0.162 HD
HETATM   15  O   UNL     1     -41.441  59.770 -54.819  1.00  0.00    -0.273 OA
BRANCH  13  16
HETATM   16  C   UNL     1     -43.757  59.781 -53.316  1.00  0.00     0.150 C 
BRANCH  16  17
HETATM   17  C   UNL     1     -45.242  59.507 -53.629  1.00  0.00     0.254 C 
BRANCH  17  18
HETATM   18  N   UNL     1     -45.602  59.929 -55.040  1.00  0.00    -0.070 N 
HETATM   19  H   UNL     1     -46.573  60.278 -55.049  1.00  0.00     0.279 HD
HETATM   20  C   UNL     1     -45.513  58.808 -56.071  1.00  0.00     0.235 C 
HETATM   21  C   UNL     1     -44.281  59.144 -56.883  1.00  0.00     0.029 C 
HETATM   22  C   UNL     1     -44.339  60.654 -56.968  1.00  0.00     0.029 C 
HETATM   23  C   UNL     1     -44.726  61.068 -55.562  1.00  0.00     0.235 C 
ENDBRANCH  17  18
ENDBRANCH  16  17
ENDBRANCH  13  16
ENDBRANCH  11  12
ENDBRANCH   6  11
BRANCH   7  24
HETATM   24  C   UNL     1     -40.417  53.651 -52.537  1.00  0.00    -0.009 A 
HETATM   25  C   UNL     1     -39.938  52.854 -51.470  1.00  0.00     0.042 A 
HETATM   26 CL   UNL     1     -39.857  53.364 -49.822  1.00  0.00    -0.084 Cl
HETATM   27  C   UNL     1     -39.462  51.553 -51.694  1.00  0.00     0.024 A 
HETATM   28  C   UNL     1     -39.417  51.018 -52.976  1.00  0.00     0.002 A 
HETATM   29  C   UNL     1     -39.819  51.796 -54.051  1.00  0.00     0.001 A 
HETATM   30  C   UNL     1     -40.294  53.093 -53.839  1.00  0.00     0.011 A 
ENDBRANCH   7  24
BRANCH  10  31
HETATM   31  C   UNL     1     -41.498  56.351 -50.319  1.00  0.00     0.294 C 
HETATM   32  O   UNL     1     -41.239  56.062 -49.162  1.00  0.00    -0.259 OA
BRANCH  31  33
HETATM   33  O   UNL     1     -41.691  57.581 -50.831  1.00  0.00    -0.313 OA
BRANCH  33  34
HETATM   34  C   UNL     1     -40.870  58.646 -50.305  1.00  0.00     0.124 C 
HETATM   35  C   UNL     1     -39.675  58.871 -51.219  1.00  0.00     0.040 C 
HETATM   36  C   UNL     1     -41.749  59.887 -50.227  1.00  0.00     0.040 C 
ENDBRANCH  33  34
ENDBRANCH  31  33
ENDBRANCH  10  31
TORSDOF 9
ENDMDL
MODEL 2
REMARK VINA RESULT:      -7.1      2.920      5.484
REMARK  9 active torsions:
REMARK  status: ('A' for Active; 'I' for Inactive)
REMARK    1  A    between atoms: C_6  and  C_7 
REMARK    2  A    between atoms: C_7  and  C_8 
REMARK       I    between atoms: C_8  and  N_9 
REMARK    3  A    between atoms: N_9  and  C_10 
REMARK    4  A    between atoms: C_10  and  C_11 
REMARK    5  A    between atoms: C_11  and  N_12 
REMARK    6  A    between atoms: C_19  and  C_20 
REMARK    7  A    between atoms: C_29  and  C_30 
REMARK    8  A    between atoms: C_30  and  O_31 
REMARK    9  A    between atoms: O_31  and  C_32 
ROOT
HETATM    1  C   UNL     1     -42.040  59.581 -55.935  1.00  0.00     0.071 C 
HETATM    2  C   UNL     1     -42.044  58.502 -54.880  1.00  0.00     0.048 C 
HETATM    3  N   UNL     1     -41.046  58.645 -53.918  1.00  0.00    -0.229 NA
HETATM    4  C   UNL     1     -41.313  58.139 -52.762  1.00  0.00     0.170 C 
HETATM    5  N   UNL     1     -42.575  57.281 -52.511  1.00  0.00    -0.318 N 
HETATM    6  C   UNL     1     -43.115  57.615 -51.389  1.00  0.00     0.011 C 
HETATM    7  C   UNL     1     -42.925  56.494 -53.719  1.00  0.00     0.168 C 
HETATM    8  S   UNL     1     -40.567  58.574 -51.269  1.00  0.00    -0.086 SA
HETATM    9  C   UNL     1     -42.181  58.333 -50.423  1.00  0.00     0.135 C 
HETATM   10  C   UNL     1     -42.985  57.532 -54.796  1.00  0.00     0.069 C 
ENDROOT
BRANCH   6  11
HETATM   11  C   UNL     1     -44.574  57.358 -51.136  1.00  0.00     0.156 C 
BRANCH  11  12
HETATM   12  C   UNL     1     -45.399  58.626 -51.229  1.00  0.00     0.223 C 
HETATM   13  N   UNL     1     -45.121  59.481 -52.278  1.00  0.00    -0.359 N 
HETATM   14  H   UNL     1     -44.299  59.326 -52.856  1.00  0.00     0.162 HD
HETATM   15  O   UNL     1     -46.214  58.897 -50.356  1.00  0.00    -0.273 OA
BRANCH  13  16
HETATM   16  C   UNL     1     -45.779  60.787 -52.322  1.00  0.00     0.150 C 
BRANCH  16  17
HETATM   17  C   UNL     1     -44.822  61.992 -52.240  1.00  0.00     0.254 C 
BRANCH  17  18
HETATM   18  N   UNL     1     -44.892  62.672 -50.887  1.00  0.00    -0.070 N 
HETATM   19  H   UNL     1     -44.881  63.695 -51.023  1.00  0.00     0.279 HD
HETATM   20  C   UNL     1     -43.739  62.327 -49.951  1.00  0.00     0.235 C 
HETATM   21  C   UNL     1     -44.361  61.425 -48.907  1.00  0.00     0.029 C 
HETATM   22  C   UNL     1     -45.731  62.037 -48.712  1.00  0.00     0.029 C 
HETATM   23  C   UNL     1     -46.179  62.349 -50.126  1.00  0.00     0.235 C 
ENDBRANCH  17  18
ENDBRANCH  16  17
ENDBRANCH  13  16
ENDBRANCH  11  12
ENDBRANCH   6  11
BRANCH   7  24
HETATM   24  C   UNL     1     -41.938  55.318 -53.893  1.00  0.00    -0.009 A 
HETATM   25  C   UNL     1     -41.788  54.217 -53.015  1.00  0.00     0.042 A 
HETATM   26 CL   UNL     1     -42.626  54.035 -51.516  1.00  0.00    -0.084 Cl
HETATM   27  C   UNL     1     -40.898  53.173 -53.309  1.00  0.00     0.024 A 
HETATM   28  C   UNL     1     -40.115  53.201 -54.456  1.00  0.00     0.002 A 
HETATM   29  C   UNL     1     -40.191  54.295 -55.304  1.00  0.00     0.001 A 
HETATM   30  C   UNL     1     -41.073  55.341 -55.020  1.00  0.00     0.011 A 
ENDBRANCH   7  24
BRANCH  10  31
HETATM   31  C   UNL     1     -44.285  57.620 -55.494  1.00  0.00     0.294 C 
HETATM   32  O   UNL     1     -45.220  58.254 -55.030  1.00  0.00    -0.259 OA
BRANCH  31  33
HETATM   33  O   UNL     1     -44.329  56.704 -56.480  1.00  0.00    -0.313 OA
BRANCH  33  34
HETATM   34  C   UNL     1     -43.717  57.065 -57.737  1.00  0.00     0.124 C 
HETATM   35  C   UNL     1     -43.107  55.830 -58.383  1.00  0.00     0.040 C 
HETATM   36  C   UNL     1     -44.814  57.662 -58.608  1.00  0.00     0.040 C 
ENDBRANCH  33  34
ENDBRANCH  31  33
ENDBRANCH  10  31
TORSDOF 9
ENDMDL
MODEL 3
REMARK VINA RESULT:      -7.1      1.227      2.147
REMARK  9 active torsions:
REMARK  status: ('A' for Active; 'I' for Inactive)
REMARK    1  A    between atoms: C_6  and  C_7 
REMARK    2  A    between atoms: C_7  and  C_8 
REMARK       I    between atoms: C_8  and  N_9 
REMARK    3  A    between atoms: N_9  and  C_10 
REMARK    4  A    between atoms: C_10  and  C_11 
REMARK    5  A    between atoms: C_11  and  N_12 
REMARK    6  A    between atoms: C_19  and  C_20 
REMARK    7  A    between atoms: C_29  and  C_30 
REMARK    8  A    between atoms: C_30  and  O_31 
REMARK    9  A    between atoms: O_31  and  C_32 
ROOT
HETATM    1  C   UNL     1     -44.276  55.288 -50.247  1.00  0.00     0.071 C 
HETATM    2  C   UNL     1     -43.267  55.022 -51.337  1.00  0.00     0.048 C 
HETATM    3  N   UNL     1     -43.809  54.441 -52.482  1.00  0.00    -0.229 NA
HETATM    4  C   UNL     1     -43.179  54.688 -53.581  1.00  0.00     0.170 C 
HETATM    5  N   UNL     1     -41.823  55.429 -53.603  1.00  0.00    -0.318 N 
HETATM    6  C   UNL     1     -41.811  56.293 -54.561  1.00  0.00     0.011 C 
HETATM    7  C   UNL     1     -41.024  55.102 -52.396  1.00  0.00     0.168 C 
HETATM    8  S   UNL     1     -43.836  54.575 -55.172  1.00  0.00    -0.086 SA
HETATM    9  C   UNL     1     -42.831  56.035 -55.661  1.00  0.00     0.135 C 
HETATM   10  C   UNL     1     -41.968  55.399 -51.273  1.00  0.00     0.069 C 
ENDROOT
BRANCH   6  11
HETATM   11  C   UNL     1     -40.893  57.482 -54.506  1.00  0.00     0.156 C 
BRANCH  11  12
HETATM   12  C   UNL     1     -41.601  58.723 -54.000  1.00  0.00     0.223 C 
HETATM   13  N   UNL     1     -42.894  58.566 -53.539  1.00  0.00    -0.359 N 
HETATM   14  H   UNL     1     -43.382  57.686 -53.685  1.00  0.00     0.162 HD
HETATM   15  O   UNL     1     -41.059  59.819 -54.082  1.00  0.00    -0.273 OA
BRANCH  13  16
HETATM   16  C   UNL     1     -43.672  59.755 -53.188  1.00  0.00     0.150 C 
BRANCH  16  17
HETATM   17  C   UNL     1     -45.183  59.640 -53.470  1.00  0.00     0.254 C 
BRANCH  17  18
HETATM   18  N   UNL     1     -45.994  59.658 -52.190  1.00  0.00    -0.070 N 
HETATM   19  H   UNL     1     -46.797  59.018 -52.292  1.00  0.00     0.279 HD
HETATM   20  C   UNL     1     -46.549  61.029 -51.818  1.00  0.00     0.235 C 
HETATM   21  C   UNL     1     -45.711  61.463 -50.635  1.00  0.00     0.029 C 
HETATM   22  C   UNL     1     -45.504  60.168 -49.880  1.00  0.00     0.029 C 
HETATM   23  C   UNL     1     -45.200  59.168 -50.977  1.00  0.00     0.235 C 
ENDBRANCH  17  18
ENDBRANCH  16  17
ENDBRANCH  13  16
ENDBRANCH  11  12
ENDBRANCH   6  11
BRANCH   7  24
HETATM   24  C   UNL     1     -40.451  53.671 -52.509  1.00  0.00    -0.009 A 
HETATM   25  C   UNL     1     -40.007  52.863 -51.435  1.00  0.00     0.042 A 
HETATM   26 CL   UNL     1     -39.931  53.374 -49.787  1.00  0.00    -0.084 Cl
HETATM   27  C   UNL     1     -39.562  51.550 -51.652  1.00  0.00     0.024 A 
HETATM   28  C   UNL     1     -39.516  51.013 -52.932  1.00  0.00     0.002 A 
HETATM   29  C   UNL     1     -39.885  51.799 -54.013  1.00  0.00     0.001 A 
HETATM   30  C   UNL     1     -40.328  53.109 -53.808  1.00  0.00     0.011 A 
ENDBRANCH   7  24
BRANCH  10  31
HETATM   31  C   UNL     1     -41.478  56.405 -50.307  1.00  0.00     0.294 C 
HETATM   32  O   UNL     1     -41.254  56.119 -49.142  1.00  0.00    -0.259 OA
BRANCH  31  33
HETATM   33  O   UNL     1     -41.612  57.637 -50.835  1.00  0.00    -0.313 OA
BRANCH  33  34
HETATM   34  C   UNL     1     -40.823  58.692 -50.244  1.00  0.00     0.124 C 
HETATM   35  C   UNL     1     -39.531  58.866 -51.027  1.00  0.00     0.040 C 
HETATM   36  C   UNL     1     -41.671  59.957 -50.288  1.00  0.00     0.040 C 
ENDBRANCH  33  34
ENDBRANCH  31  33
ENDBRANCH  10  31
TORSDOF 9
ENDMDL
MODEL 4
REMARK VINA RESULT:      -6.9      2.503      7.260
REMARK  9 active torsions:
REMARK  status: ('A' for Active; 'I' for Inactive)
REMARK    1  A    between atoms: C_6  and  C_7 
REMARK    2  A    between atoms: C_7  and  C_8 
REMARK       I    between atoms: C_8  and  N_9 
REMARK    3  A    between atoms: N_9  and  C_10 
REMARK    4  A    between atoms: C_10  and  C_11 
REMARK    5  A    between atoms: C_11  and  N_12 
REMARK    6  A    between atoms: C_19  and  C_20 
REMARK    7  A    between atoms: C_29  and  C_30 
REMARK    8  A    between atoms: C_30  and  O_31 
REMARK    9  A    between atoms: O_31  and  C_32 
ROOT
HETATM    1  C   UNL     1     -39.372  59.035 -52.486  1.00  0.00     0.071 C 
HETATM    2  C   UNL     1     -40.834  58.971 -52.851  1.00  0.00     0.048 C 
HETATM    3  N   UNL     1     -41.137  59.550 -54.082  1.00  0.00    -0.229 NA
HETATM    4  C   UNL     1     -42.175  59.071 -54.680  1.00  0.00     0.170 C 
HETATM    5  N   UNL     1     -43.117  58.050 -54.001  1.00  0.00    -0.318 N 
HETATM    6  C   UNL     1     -43.433  57.121 -54.838  1.00  0.00     0.011 C 
HETATM    7  C   UNL     1     -43.204  58.303 -52.541  1.00  0.00     0.168 C 
HETATM    8  S   UNL     1     -42.512  59.180 -56.368  1.00  0.00    -0.086 SA
HETATM    9  C   UNL     1     -43.247  57.496 -56.303  1.00  0.00     0.135 C 
HETATM   10  C   UNL     1     -41.769  58.324 -52.115  1.00  0.00     0.069 C 
ENDROOT
BRANCH   6  11
HETATM   11  C   UNL     1     -43.872  55.770 -54.351  1.00  0.00     0.156 C 
BRANCH  11  12
HETATM   12  C   UNL     1     -42.938  54.668 -54.812  1.00  0.00     0.223 C 
HETATM   13  N   UNL     1     -41.733  54.547 -54.149  1.00  0.00    -0.359 N 
HETATM   14  H   UNL     1     -41.439  55.266 -53.493  1.00  0.00     0.162 HD
HETATM   15  O   UNL     1     -43.228  53.982 -55.785  1.00  0.00    -0.273 OA
BRANCH  13  16
HETATM   16  C   UNL     1     -40.734  53.605 -54.658  1.00  0.00     0.150 C 
BRANCH  16  17
HETATM   17  C   UNL     1     -40.939  52.146 -54.206  1.00  0.00     0.254 C 
BRANCH  17  18
HETATM   18  N   UNL     1     -39.693  51.583 -53.550  1.00  0.00    -0.070 N 
HETATM   19  H   UNL     1     -38.869  52.096 -53.898  1.00  0.00     0.279 HD
HETATM   20  C   UNL     1     -39.455  50.102 -53.823  1.00  0.00     0.235 C 
HETATM   21  C   UNL     1     -39.777  49.423 -52.510  1.00  0.00     0.029 C 
HETATM   22  C   UNL     1     -39.248  50.405 -51.488  1.00  0.00     0.029 C 
HETATM   23  C   UNL     1     -39.697  51.748 -52.029  1.00  0.00     0.235 C 
ENDBRANCH  17  18
ENDBRANCH  16  17
ENDBRANCH  13  16
ENDBRANCH  11  12
ENDBRANCH   6  11
BRANCH   7  24
HETATM   24  C   UNL     1     -44.066  59.555 -52.268  1.00  0.00    -0.009 A 
HETATM   25  C   UNL     1     -43.796  60.562 -51.310  1.00  0.00     0.042 A 
HETATM   26 CL   UNL     1     -42.484  60.522 -50.187  1.00  0.00    -0.084 Cl
HETATM   27  C   UNL     1     -44.621  61.691 -51.193  1.00  0.00     0.024 A 
HETATM   28  C   UNL     1     -45.746  61.841 -51.994  1.00  0.00     0.002 A 
HETATM   29  C   UNL     1     -46.074  60.843 -52.898  1.00  0.00     0.001 A 
HETATM   30  C   UNL     1     -45.260  59.714 -53.022  1.00  0.00     0.011 A 
ENDBRANCH   7  24
BRANCH  10  31
HETATM   31  C   UNL     1     -41.419  57.328 -51.080  1.00  0.00     0.294 C 
HETATM   32  O   UNL     1     -40.639  57.587 -50.178  1.00  0.00    -0.259 OA
BRANCH  31  33
HETATM   33  O   UNL     1     -41.845  56.110 -51.469  1.00  0.00    -0.313 OA
BRANCH  33  34
HETATM   34  C   UNL     1     -42.352  55.234 -50.439  1.00  0.00     0.124 C 
HETATM   35  C   UNL     1     -43.553  54.464 -50.967  1.00  0.00     0.040 C 
HETATM   36  C   UNL     1     -41.216  54.295 -50.057  1.00  0.00     0.040 C 
ENDBRANCH  33  34
ENDBRANCH  31  33
ENDBRANCH  10  31
TORSDOF 9
ENDMDL
MODEL 5
REMARK VINA RESULT:      -6.9      2.637      4.948
REMARK  9 active torsions:
REMARK  status: ('A' for Active; 'I' for Inactive)
REMARK    1  A    between atoms: C_6  and  C_7 
REMARK    2  A    between atoms: C_7  and  C_8 
REMARK       I    between atoms: C_8  and  N_9 
REMARK    3  A    between atoms: N_9  and  C_10 
REMARK    4  A    between atoms: C_10  and  C_11 
REMARK    5  A    between atoms: C_11  and  N_12 
REMARK    6  A    between atoms: C_19  and  C_20 
REMARK    7  A    between atoms: C_29  and  C_30 
REMARK    8  A    between atoms: C_30  and  O_31 
REMARK    9  A    between atoms: O_31  and  C_32 
ROOT
HETATM    1  C   UNL     1     -42.025  59.611 -56.021  1.00  0.00     0.071 C 
HETATM    2  C   UNL     1     -42.056  58.534 -54.964  1.00  0.00     0.048 C 
HETATM    3  N   UNL     1     -41.055  58.655 -54.001  1.00  0.00    -0.229 NA
HETATM    4  C   UNL     1     -41.335  58.157 -52.845  1.00  0.00     0.170 C 
HETATM    5  N   UNL     1     -42.617  57.329 -52.594  1.00  0.00    -0.318 N 
HETATM    6  C   UNL     1     -43.150  57.677 -51.472  1.00  0.00     0.011 C 
HETATM    7  C   UNL     1     -42.984  56.548 -53.801  1.00  0.00     0.168 C 
HETATM    8  S   UNL     1     -40.581  58.577 -51.352  1.00  0.00    -0.086 SA
HETATM    9  C   UNL     1     -42.201  58.375 -50.507  1.00  0.00     0.135 C 
HETATM   10  C   UNL     1     -43.019  57.586 -54.879  1.00  0.00     0.069 C 
ENDROOT
BRANCH   6  11
HETATM   11  C   UNL     1     -44.614  57.454 -51.221  1.00  0.00     0.156 C 
BRANCH  11  12
HETATM   12  C   UNL     1     -45.397  58.752 -51.236  1.00  0.00     0.223 C 
HETATM   13  N   UNL     1     -45.212  59.585 -52.322  1.00  0.00    -0.359 N 
HETATM   14  H   UNL     1     -44.469  59.393 -52.989  1.00  0.00     0.162 HD
HETATM   15  O   UNL     1     -46.095  59.063 -50.278  1.00  0.00    -0.273 OA
BRANCH  13  16
HETATM   16  C   UNL     1     -45.823  60.915 -52.309  1.00  0.00     0.150 C 
BRANCH  16  17
HETATM   17  C   UNL     1     -46.108  61.506 -53.704  1.00  0.00     0.254 C 
BRANCH  17  18
HETATM   18  N   UNL     1     -44.894  61.418 -54.607  1.00  0.00    -0.070 N 
HETATM   19  H   UNL     1     -44.529  60.453 -54.589  1.00  0.00     0.279 HD
HETATM   20  C   UNL     1     -43.748  62.344 -54.210  1.00  0.00     0.235 C 
HETATM   21  C   UNL     1     -43.761  63.429 -55.265  1.00  0.00     0.029 C 
HETATM   22  C   UNL     1     -44.113  62.666 -56.523  1.00  0.00     0.029 C 
HETATM   23  C   UNL     1     -45.218  61.732 -56.069  1.00  0.00     0.235 C 
ENDBRANCH  17  18
ENDBRANCH  16  17
ENDBRANCH  13  16
ENDBRANCH  11  12
ENDBRANCH   6  11
BRANCH   7  24
HETATM   24  C   UNL     1     -42.024  55.349 -53.972  1.00  0.00    -0.009 A 
HETATM   25  C   UNL     1     -41.918  54.235 -53.105  1.00  0.00     0.042 A 
HETATM   26 CL   UNL     1     -42.788  54.056 -51.624  1.00  0.00    -0.084 Cl
HETATM   27  C   UNL     1     -41.050  53.171 -53.396  1.00  0.00     0.024 A 
HETATM   28  C   UNL     1     -40.246  53.193 -54.529  1.00  0.00     0.002 A 
HETATM   29  C   UNL     1     -40.279  54.299 -55.364  1.00  0.00     0.001 A 
HETATM   30  C   UNL     1     -41.139  55.364 -55.083  1.00  0.00     0.011 A 
ENDBRANCH   7  24
BRANCH  10  31
HETATM   31  C   UNL     1     -44.316  57.704 -55.578  1.00  0.00     0.294 C 
HETATM   32  O   UNL     1     -45.247  58.332 -55.100  1.00  0.00    -0.259 OA
BRANCH  31  33
HETATM   33  O   UNL     1     -44.363  56.815 -56.589  1.00  0.00    -0.313 OA
BRANCH  33  34
HETATM   34  C   UNL     1     -43.917  57.272 -57.884  1.00  0.00     0.124 C 
HETATM   35  C   UNL     1     -42.961  56.253 -58.486  1.00  0.00     0.040 C 
HETATM   36  C   UNL     1     -45.161  57.441 -58.747  1.00  0.00     0.040 C 
ENDBRANCH  33  34
ENDBRANCH  31  33
ENDBRANCH  10  31
TORSDOF 9
ENDMDL
MODEL 6
REMARK VINA RESULT:      -6.6      3.722      6.366
REMARK  9 active torsions:
REMARK  status: ('A' for Active; 'I' for Inactive)
REMARK    1  A    between atoms: C_6  and  C_7 
REMARK    2  A    between atoms: C_7  and  C_8 
REMARK       I    between atoms: C_8  and  N_9 
REMARK    3  A    between atoms: N_9  and  C_10 
REMARK    4  A    between atoms: C_10  and  C_11 
REMARK    5  A    between atoms: C_11  and  N_12 
REMARK    6  A    between atoms: C_19  and  C_20 
REMARK    7  A    between atoms: C_29  and  C_30 
REMARK    8  A    between atoms: C_30  and  O_31 
REMARK    9  A    between atoms: O_31  and  C_32 
ROOT
HETATM    1  C   UNL     1     -41.979  59.710 -56.174  1.00  0.00     0.071 C 
HETATM    2  C   UNL     1     -41.984  58.716 -55.038  1.00  0.00     0.048 C 
HETATM    3  N   UNL     1     -40.939  58.886 -54.132  1.00  0.00    -0.229 NA
HETATM    4  C   UNL     1     -41.176  58.482 -52.929  1.00  0.00     0.170 C 
HETATM    5  N   UNL     1     -42.462  57.706 -52.561  1.00  0.00    -0.318 N 
HETATM    6  C   UNL     1     -42.937  58.149 -51.447  1.00  0.00     0.011 C 
HETATM    7  C   UNL     1     -42.899  56.846 -53.688  1.00  0.00     0.168 C 
HETATM    8  S   UNL     1     -40.348  58.995 -51.506  1.00  0.00    -0.086 SA
HETATM    9  C   UNL     1     -41.932  58.895 -50.580  1.00  0.00     0.135 C 
HETATM   10  C   UNL     1     -42.961  57.800 -54.840  1.00  0.00     0.069 C 
ENDROOT
BRANCH   6  11
HETATM   11  C   UNL     1     -44.393  57.981 -51.116  1.00  0.00     0.156 C 
BRANCH  11  12
HETATM   12  C   UNL     1     -45.114  59.311 -51.031  1.00  0.00     0.223 C 
HETATM   13  N   UNL     1     -45.086  59.965 -49.815  1.00  0.00    -0.359 N 
HETATM   14  H   UNL     1     -44.729  59.489 -48.991  1.00  0.00     0.162 HD
HETATM   15  O   UNL     1     -45.754  59.728 -51.990  1.00  0.00    -0.273 OA
BRANCH  13  16
HETATM   16  C   UNL     1     -45.896  61.171 -49.638  1.00  0.00     0.150 C 
BRANCH  16  17
HETATM   17  C   UNL     1     -45.234  62.271 -48.785  1.00  0.00     0.254 C 
BRANCH  17  18
HETATM   18  N   UNL     1     -45.914  62.420 -47.438  1.00  0.00    -0.070 N 
HETATM   19  H   UNL     1     -46.837  61.959 -47.474  1.00  0.00     0.279 HD
HETATM   20  C   UNL     1     -46.146  63.865 -47.009  1.00  0.00     0.235 C 
HETATM   21  C   UNL     1     -45.141  64.092 -45.901  1.00  0.00     0.029 C 
HETATM   22  C   UNL     1     -45.139  62.764 -45.176  1.00  0.00     0.029 C 
HETATM   23  C   UNL     1     -45.138  61.750 -46.304  1.00  0.00     0.235 C 
ENDBRANCH  17  18
ENDBRANCH  16  17
ENDBRANCH  13  16
ENDBRANCH  11  12
ENDBRANCH   6  11
BRANCH   7  24
HETATM   24  C   UNL     1     -41.972  55.615 -53.809  1.00  0.00    -0.009 A 
HETATM   25  C   UNL     1     -41.816  54.590 -52.845  1.00  0.00     0.042 A 
HETATM   26 CL   UNL     1     -42.571  54.579 -51.292  1.00  0.00    -0.084 Cl
HETATM   27  C   UNL     1     -40.988  53.484 -53.092  1.00  0.00     0.024 A 
HETATM   28  C   UNL     1     -40.273  53.376 -54.278  1.00  0.00     0.002 A 
HETATM   29  C   UNL     1     -40.355  54.393 -55.216  1.00  0.00     0.001 A 
HETATM   30  C   UNL     1     -41.175  55.500 -54.980  1.00  0.00     0.011 A 
ENDBRANCH   7  24
BRANCH  10  31
HETATM   31  C   UNL     1     -44.286  57.896 -55.489  1.00  0.00     0.294 C 
HETATM   32  O   UNL     1     -45.165  58.619 -55.048  1.00  0.00    -0.259 OA
BRANCH  31  33
HETATM   33  O   UNL     1     -44.421  56.898 -56.383  1.00  0.00    -0.313 OA
BRANCH  33  34
HETATM   34  C   UNL     1     -43.829  57.100 -57.685  1.00  0.00     0.124 C 
HETATM   35  C   UNL     1     -43.181  55.808 -58.160  1.00  0.00     0.040 C 
HETATM   36  C   UNL     1     -44.951  57.533 -58.619  1.00  0.00     0.040 C 
ENDBRANCH  33  34
ENDBRANCH  31  33
ENDBRANCH  10  31
TORSDOF 9
ENDMDL
MODEL 7
REMARK VINA RESULT:      -6.5      2.930      5.274
REMARK  9 active torsions:
REMARK  status: ('A' for Active; 'I' for Inactive)
REMARK    1  A    between atoms: C_6  and  C_7 
REMARK    2  A    between atoms: C_7  and  C_8 
REMARK       I    between atoms: C_8  and  N_9 
REMARK    3  A    between atoms: N_9  and  C_10 
REMARK    4  A    between atoms: C_10  and  C_11 
REMARK    5  A    between atoms: C_11  and  N_12 
REMARK    6  A    between atoms: C_19  and  C_20 
REMARK    7  A    between atoms: C_29  and  C_30 
REMARK    8  A    between atoms: C_30  and  O_31 
REMARK    9  A    between atoms: O_31  and  C_32 
ROOT
HETATM    1  C   UNL     1     -42.042  59.658 -56.021  1.00  0.00     0.071 C 
HETATM    2  C   UNL     1     -42.074  58.578 -54.968  1.00  0.00     0.048 C 
HETATM    3  N   UNL     1     -41.079  58.700 -54.000  1.00  0.00    -0.229 NA
HETATM    4  C   UNL     1     -41.363  58.198 -52.845  1.00  0.00     0.170 C 
HETATM    5  N   UNL     1     -42.643  57.365 -52.603  1.00  0.00    -0.318 N 
HETATM    6  C   UNL     1     -43.183  57.708 -51.484  1.00  0.00     0.011 C 
HETATM    7  C   UNL     1     -43.002  56.586 -53.814  1.00  0.00     0.168 C 
HETATM    8  S   UNL     1     -40.618  58.617 -51.348  1.00  0.00    -0.086 SA
HETATM    9  C   UNL     1     -42.241  58.407 -50.512  1.00  0.00     0.135 C 
HETATM   10  C   UNL     1     -43.035  57.627 -54.890  1.00  0.00     0.069 C 
ENDROOT
BRANCH   6  11
HETATM   11  C   UNL     1     -44.648  57.480 -51.240  1.00  0.00     0.156 C 
BRANCH  11  12
HETATM   12  C   UNL     1     -45.443  58.768 -51.307  1.00  0.00     0.223 C 
HETATM   13  N   UNL     1     -45.188  59.610 -52.372  1.00  0.00    -0.359 N 
HETATM   14  H   UNL     1     -44.394  59.431 -52.982  1.00  0.00     0.162 HD
HETATM   15  O   UNL     1     -46.214  59.065 -50.402  1.00  0.00    -0.273 OA
BRANCH  13  16
HETATM   16  C   UNL     1     -45.813  60.933 -52.397  1.00  0.00     0.150 C 
BRANCH  16  17
HETATM   17  C   UNL     1     -46.075  61.493 -53.809  1.00  0.00     0.254 C 
BRANCH  17  18
HETATM   18  N   UNL     1     -47.545  61.795 -54.027  1.00  0.00    -0.070 N 
HETATM   19  H   UNL     1     -48.003  60.962 -54.428  1.00  0.00     0.279 HD
HETATM   20  C   UNL     1     -47.812  62.960 -54.975  1.00  0.00     0.235 C 
HETATM   21  C   UNL     1     -48.290  64.075 -54.071  1.00  0.00     0.029 C 
HETATM   22  C   UNL     1     -49.123  63.338 -53.044  1.00  0.00     0.029 C 
HETATM   23  C   UNL     1     -48.284  62.115 -52.728  1.00  0.00     0.235 C 
ENDBRANCH  17  18
ENDBRANCH  16  17
ENDBRANCH  13  16
ENDBRANCH  11  12
ENDBRANCH   6  11
BRANCH   7  24
HETATM   24  C   UNL     1     -42.037  55.391 -53.983  1.00  0.00    -0.009 A 
HETATM   25  C   UNL     1     -41.973  54.245 -53.154  1.00  0.00     0.042 A 
HETATM   26 CL   UNL     1     -42.912  54.016 -51.723  1.00  0.00    -0.084 Cl
HETATM   27  C   UNL     1     -41.095  53.190 -53.443  1.00  0.00     0.024 A 
HETATM   28  C   UNL     1     -40.238  53.251 -54.535  1.00  0.00     0.002 A 
HETATM   29  C   UNL     1     -40.230  54.386 -55.330  1.00  0.00     0.001 A 
HETATM   30  C   UNL     1     -41.100  55.444 -55.051  1.00  0.00     0.011 A 
ENDBRANCH   7  24
BRANCH  10  31
HETATM   31  C   UNL     1     -44.329  57.741 -55.595  1.00  0.00     0.294 C 
HETATM   32  O   UNL     1     -45.347  58.085 -55.015  1.00  0.00    -0.259 OA
BRANCH  31  33
HETATM   33  O   UNL     1     -44.236  57.153 -56.803  1.00  0.00    -0.313 OA
BRANCH  33  34
HETATM   34  C   UNL     1     -44.497  57.981 -57.957  1.00  0.00     0.124 C 
HETATM   35  C   UNL     1     -43.453  57.711 -59.030  1.00  0.00     0.040 C 
HETATM   36  C   UNL     1     -45.897  57.631 -58.445  1.00  0.00     0.040 C 
ENDBRANCH  33  34
ENDBRANCH  31  33
ENDBRANCH  10  31
TORSDOF 9
ENDMDL
MODEL 8
REMARK VINA RESULT:      -6.1      3.842      8.313
REMARK  9 active torsions:
REMARK  status: ('A' for Active; 'I' for Inactive)
REMARK    1  A    between atoms: C_6  and  C_7 
REMARK    2  A    between atoms: C_7  and  C_8 
REMARK       I    between atoms: C_8  and  N_9 
REMARK    3  A    between atoms: N_9  and  C_10 
REMARK    4  A    between atoms: C_10  and  C_11 
REMARK    5  A    between atoms: C_11  and  N_12 
REMARK    6  A    between atoms: C_19  and  C_20 
REMARK    7  A    between atoms: C_29  and  C_30 
REMARK    8  A    between atoms: C_30  and  O_31 
REMARK    9  A    between atoms: O_31  and  C_32 
ROOT
HETATM    1  C   UNL     1     -47.018  58.668 -57.848  1.00  0.00     0.071 C 
HETATM    2  C   UNL     1     -45.723  59.438 -57.917  1.00  0.00     0.048 C 
HETATM    3  N   UNL     1     -45.879  60.820 -57.817  1.00  0.00    -0.229 NA
HETATM    4  C   UNL     1     -44.868  61.459 -57.331  1.00  0.00     0.170 C 
HETATM    5  N   UNL     1     -43.517  60.764 -57.045  1.00  0.00    -0.318 N 
HETATM    6  C   UNL     1     -43.053  61.159 -55.908  1.00  0.00     0.011 C 
HETATM    7  C   UNL     1     -43.257  59.689 -58.034  1.00  0.00     0.168 C 
HETATM    8  S   UNL     1     -44.911  63.025 -56.610  1.00  0.00    -0.086 SA
HETATM    9  C   UNL     1     -43.628  62.480 -55.413  1.00  0.00     0.135 C 
HETATM   10  C   UNL     1     -44.500  58.858 -57.968  1.00  0.00     0.069 C 
ENDROOT
BRANCH   6  11
HETATM   11  C   UNL     1     -42.081  60.308 -55.141  1.00  0.00     0.156 C 
BRANCH  11  12
HETATM   12  C   UNL     1     -42.741  59.603 -53.973  1.00  0.00     0.223 C 
HETATM   13  N   UNL     1     -43.736  58.692 -54.269  1.00  0.00    -0.359 N 
HETATM   14  H   UNL     1     -44.099  58.627 -55.216  1.00  0.00     0.162 HD
HETATM   15  O   UNL     1     -42.444  59.905 -52.823  1.00  0.00    -0.273 OA
BRANCH  13  16
HETATM   16  C   UNL     1     -44.509  58.104 -53.174  1.00  0.00     0.150 C 
BRANCH  16  17
HETATM   17  C   UNL     1     -43.914  56.807 -52.592  1.00  0.00     0.254 C 
BRANCH  17  18
HETATM   18  N   UNL     1     -42.985  56.126 -53.577  1.00  0.00    -0.070 N 
HETATM   19  H   UNL     1     -43.006  56.640 -54.471  1.00  0.00     0.279 HD
HETATM   20  C   UNL     1     -43.346  54.675 -53.880  1.00  0.00     0.235 C 
HETATM   21  C   UNL     1     -42.279  53.869 -53.172  1.00  0.00     0.029 C 
HETATM   22  C   UNL     1     -41.038  54.711 -53.370  1.00  0.00     0.029 C 
HETATM   23  C   UNL     1     -41.528  56.122 -53.113  1.00  0.00     0.235 C 
ENDBRANCH  17  18
ENDBRANCH  16  17
ENDBRANCH  13  16
ENDBRANCH  11  12
ENDBRANCH   6  11
BRANCH   7  24
HETATM   24  C   UNL     1     -42.861  60.304 -59.395  1.00  0.00    -0.009 A 
HETATM   25  C   UNL     1     -41.746  61.142 -59.640  1.00  0.00     0.042 A 
HETATM   26 CL   UNL     1     -40.665  61.719 -58.423  1.00  0.00    -0.084 Cl
HETATM   27  C   UNL     1     -41.449  61.592 -60.936  1.00  0.00     0.024 A 
HETATM   28  C   UNL     1     -42.258  61.253 -62.014  1.00  0.00     0.002 A 
HETATM   29  C   UNL     1     -43.392  60.486 -61.798  1.00  0.00     0.001 A 
HETATM   30  C   UNL     1     -43.698  60.034 -60.512  1.00  0.00     0.011 A 
ENDBRANCH   7  24
BRANCH  10  31
HETATM   31  C   UNL     1     -44.275  57.441 -57.611  1.00  0.00     0.294 C 
HETATM   32  O   UNL     1     -43.667  57.123 -56.602  1.00  0.00    -0.259 OA
BRANCH  31  33
HETATM   33  O   UNL     1     -44.570  56.660 -58.669  1.00  0.00    -0.313 OA
BRANCH  33  34
HETATM   34  C   UNL     1     -43.657  55.580 -58.959  1.00  0.00     0.124 C 
HETATM   35  C   UNL     1     -44.392  54.474 -59.702  1.00  0.00     0.040 C 
HETATM   36  C   UNL     1     -42.534  56.164 -59.807  1.00  0.00     0.040 C 
ENDBRANCH  33  34
ENDBRANCH  31  33
ENDBRANCH  10  31
TORSDOF 9
ENDMDL
MODEL 9
REMARK VINA RESULT:      -6.0      3.771      6.244
REMARK  9 active torsions:
REMARK  status: ('A' for Active; 'I' for Inactive)
REMARK    1  A    between atoms: C_6  and  C_7 
REMARK    2  A    between atoms: C_7  and  C_8 
REMARK       I    between atoms: C_8  and  N_9 
REMARK    3  A    between atoms: N_9  and  C_10 
REMARK    4  A    between atoms: C_10  and  C_11 
REMARK    5  A    between atoms: C_11  and  N_12 
REMARK    6  A    between atoms: C_19  and  C_20 
REMARK    7  A    between atoms: C_29  and  C_30 
REMARK    8  A    between atoms: C_30  and  O_31 
REMARK    9  A    between atoms: O_31  and  C_32 
ROOT
HETATM    1  C   UNL     1     -39.515  58.775 -52.703  1.00  0.00     0.071 C 
HETATM    2  C   UNL     1     -40.909  58.752 -53.281  1.00  0.00     0.048 C 
HETATM    3  N   UNL     1     -41.249  59.907 -53.984  1.00  0.00    -0.229 NA
HETATM    4  C   UNL     1     -42.129  59.750 -54.915  1.00  0.00     0.170 C 
HETATM    5  N   UNL     1     -42.880  58.415 -55.120  1.00  0.00    -0.318 N 
HETATM    6  C   UNL     1     -42.947  58.139 -56.378  1.00  0.00     0.011 C 
HETATM    7  C   UNL     1     -43.104  57.731 -53.823  1.00  0.00     0.168 C 
HETATM    8  S   UNL     1     -42.378  60.801 -56.260  1.00  0.00    -0.086 SA
HETATM    9  C   UNL     1     -42.754  59.334 -57.302  1.00  0.00     0.135 C 
HETATM   10  C   UNL     1     -41.733  57.680 -53.224  1.00  0.00     0.069 C 
ENDROOT
BRANCH   6  11
HETATM   11  C   UNL     1     -43.128  56.721 -56.841  1.00  0.00     0.156 C 
BRANCH  11  12
HETATM   12  C   UNL     1     -43.725  56.649 -58.233  1.00  0.00     0.223 C 
HETATM   13  N   UNL     1     -45.077  56.905 -58.350  1.00  0.00    -0.359 N 
HETATM   14  H   UNL     1     -45.654  56.982 -57.516  1.00  0.00     0.162 HD
HETATM   15  O   UNL     1     -43.036  56.298 -59.183  1.00  0.00    -0.273 OA
BRANCH  13  16
HETATM   16  C   UNL     1     -45.730  56.695 -59.643  1.00  0.00     0.150 C 
BRANCH  16  17
HETATM   17  C   UNL     1     -46.927  57.627 -59.918  1.00  0.00     0.254 C 
BRANCH  17  18
HETATM   18  N   UNL     1     -47.186  57.782 -61.403  1.00  0.00    -0.070 N 
HETATM   19  H   UNL     1     -46.297  57.668 -61.914  1.00  0.00     0.279 HD
HETATM   20  C   UNL     1     -47.766  59.136 -61.800  1.00  0.00     0.235 C 
HETATM   21  C   UNL     1     -49.209  58.837 -62.147  1.00  0.00     0.029 C 
HETATM   22  C   UNL     1     -49.116  57.489 -62.827  1.00  0.00     0.029 C 
HETATM   23  C   UNL     1     -48.142  56.723 -61.953  1.00  0.00     0.235 C 
ENDBRANCH  17  18
ENDBRANCH  16  17
ENDBRANCH  13  16
ENDBRANCH  11  12
ENDBRANCH   6  11
BRANCH   7  24
HETATM   24  C   UNL     1     -44.221  58.448 -53.030  1.00  0.00    -0.009 A 
HETATM   25  C   UNL     1     -44.727  58.060 -51.766  1.00  0.00     0.042 A 
HETATM   26 CL   UNL     1     -44.250  56.638 -50.911  1.00  0.00    -0.084 Cl
HETATM   27  C   UNL     1     -45.703  58.827 -51.110  1.00  0.00     0.024 A 
HETATM   28  C   UNL     1     -46.223  59.975 -51.696  1.00  0.00     0.002 A 
HETATM   29  C   UNL     1     -45.794  60.347 -52.960  1.00  0.00     0.001 A 
HETATM   30  C   UNL     1     -44.824  59.590 -53.623  1.00  0.00     0.011 A 
ENDBRANCH   7  24
BRANCH  10  31
HETATM   31  C   UNL     1     -41.249  56.319 -52.911  1.00  0.00     0.294 C 
HETATM   32  O   UNL     1     -41.082  55.481 -53.783  1.00  0.00    -0.259 OA
BRANCH  31  33
HETATM   33  O   UNL     1     -41.322  56.111 -51.582  1.00  0.00    -0.313 OA
BRANCH  33  34
HETATM   34  C   UNL     1     -40.913  54.814 -51.098  1.00  0.00     0.124 C 
HETATM   35  C   UNL     1     -40.471  54.925 -49.646  1.00  0.00     0.040 C 
HETATM   36  C   UNL     1     -42.114  53.889 -51.242  1.00  0.00     0.040 C 
ENDBRANCH  33  34
ENDBRANCH  31  33
ENDBRANCH  10  31
TORSDOF 9
ENDMDL
MODEL 10
REMARK VINA RESULT:      -5.9      3.694      6.238
REMARK  9 active torsions:
REMARK  status: ('A' for Active; 'I' for Inactive)
REMARK    1  A    between atoms: C_6  and  C_7 
REMARK    2  A    between atoms: C_7  and  C_8 
REMARK       I    between atoms: C_8  and  N_9 
REMARK    3  A    between atoms: N_9  and  C_10 
REMARK    4  A    between atoms: C_10  and  C_11 
REMARK    5  A    between atoms: C_11  and  N_12 
REMARK    6  A    between atoms: C_19  and  C_20 
REMARK    7  A    between atoms: C_29  and  C_30 
REMARK    8  A    between atoms: C_30  and  O_31 
REMARK    9  A    between atoms: O_31  and  C_32 
ROOT
HETATM    1  C   UNL     1     -41.835  60.070 -56.926  1.00  0.00     0.071 C 
HETATM    2  C   UNL     1     -42.231  59.217 -55.746  1.00  0.00     0.048 C 
HETATM    3  N   UNL     1     -41.363  59.314 -54.660  1.00  0.00    -0.229 NA
HETATM    4  C   UNL     1     -41.892  59.085 -53.505  1.00  0.00     0.170 C 
HETATM    5  N   UNL     1     -43.341  58.568 -53.352  1.00  0.00    -0.318 N 
HETATM    6  C   UNL     1     -43.932  59.199 -52.395  1.00  0.00     0.011 C 
HETATM    7  C   UNL     1     -43.703  57.673 -54.478  1.00  0.00     0.168 C 
HETATM    8  S   UNL     1     -41.270  59.609 -51.984  1.00  0.00    -0.086 SA
HETATM    9  C   UNL     1     -42.993  59.863 -51.397  1.00  0.00     0.135 C 
HETATM   10  C   UNL     1     -43.376  58.496 -55.685  1.00  0.00     0.069 C 
ENDROOT
BRANCH   6  11
HETATM   11  C   UNL     1     -45.431  59.301 -52.357  1.00  0.00     0.156 C 
BRANCH  11  12
HETATM   12  C   UNL     1     -45.923  60.633 -52.888  1.00  0.00     0.223 C 
HETATM   13  N   UNL     1     -47.200  61.020 -52.531  1.00  0.00    -0.359 N 
HETATM   14  H   UNL     1     -47.818  60.361 -52.065  1.00  0.00     0.162 HD
HETATM   15  O   UNL     1     -45.230  61.281 -53.664  1.00  0.00    -0.273 OA
BRANCH  13  16
HETATM   16  C   UNL     1     -47.776  62.217 -53.143  1.00  0.00     0.150 C 
BRANCH  16  17
HETATM   17  C   UNL     1     -48.855  62.918 -52.294  1.00  0.00     0.254 C 
BRANCH  17  18
HETATM   18  N   UNL     1     -50.110  63.191 -53.098  1.00  0.00    -0.070 N 
HETATM   19  H   UNL     1     -50.031  64.120 -53.540  1.00  0.00     0.279 HD
HETATM   20  C   UNL     1     -51.395  63.188 -52.276  1.00  0.00     0.235 C 
HETATM   21  C   UNL     1     -52.090  61.904 -52.674  1.00  0.00     0.029 C 
HETATM   22  C   UNL     1     -51.784  61.804 -54.152  1.00  0.00     0.029 C 
HETATM   23  C   UNL     1     -50.319  62.187 -54.232  1.00  0.00     0.235 C 
ENDBRANCH  17  18
ENDBRANCH  16  17
ENDBRANCH  13  16
ENDBRANCH  11  12
ENDBRANCH   6  11
BRANCH   7  24
HETATM   24  C   UNL     1     -43.004  56.304 -54.316  1.00  0.00    -0.009 A 
HETATM   25  C   UNL     1     -43.004  55.500 -53.151  1.00  0.00     0.042 A 
HETATM   26 CL   UNL     1     -43.716  55.953 -51.644  1.00  0.00    -0.084 Cl
HETATM   27  C   UNL     1     -42.384  54.241 -53.140  1.00  0.00     0.024 A 
HETATM   28  C   UNL     1     -41.725  53.758 -54.264  1.00  0.00     0.002 A 
HETATM   29  C   UNL     1     -41.652  54.548 -55.400  1.00  0.00     0.001 A 
HETATM   30  C   UNL     1     -42.264  55.804 -55.422  1.00  0.00     0.011 A 
ENDBRANCH   7  24
BRANCH  10  31
HETATM   31  C   UNL     1     -44.515  58.731 -56.597  1.00  0.00     0.294 C 
HETATM   32  O   UNL     1     -45.272  59.677 -56.446  1.00  0.00    -0.259 OA
BRANCH  31  33
HETATM   33  O   UNL     1     -44.716  57.637 -57.357  1.00  0.00    -0.313 OA
BRANCH  33  34
HETATM   34  C   UNL     1     -43.797  57.421 -58.449  1.00  0.00     0.124 C 
HETATM   35  C   UNL     1     -43.794  55.950 -58.834  1.00  0.00     0.040 C 
HETATM   36  C   UNL     1     -44.269  58.295 -59.604  1.00  0.00     0.040 C 
ENDBRANCH  33  34
ENDBRANCH  31  33
ENDBRANCH  10  31
TORSDOF 9
ENDMDL
