MODEL 1
REMARK VINA RESULT:      -8.7      0.000      0.000
REMARK  7 active torsions:
REMARK  status: ('A' for Active; 'I' for Inactive)
REMARK    1  A    between atoms: C_2  and  O_3 
REMARK    2  A    between atoms: O_3  and  C_4 
REMARK    3  A    between atoms: C_5  and  N_6 
REMARK    4  A    between atoms: N_9  and  C_11 
REMARK    5  A    between atoms: C_11  and  C_12 
REMARK       I    between atoms: C_12  and  N_13 
REMARK    6  A    between atoms: N_13  and  C_14 
REMARK    7  A    between atoms: C_15  and  C_16 
ROOT
HETATM    1  C   UNL     1     -42.701  57.574 -54.472  1.00  0.00     0.275 C 
HETATM    2  C   UNL     1     -42.517  58.142 -53.064  1.00  0.00     0.050 C 
ENDROOT
BRANCH   1   3
HETATM    3  N   UNL     1     -42.296  56.074 -54.450  1.00  0.00    -0.056 N 
HETATM    4  C   UNL     1     -40.836  55.781 -54.843  1.00  0.00     0.255 C 
HETATM    5  C   UNL     1     -40.600  54.251 -54.893  1.00  0.00     0.150 C 
HETATM    6  N   UNL     1     -40.973  53.638 -53.598  1.00  0.00    -0.375 N 
HETATM    7  C   UNL     1     -42.351  53.908 -53.160  1.00  0.00     0.150 C 
HETATM    8  C   UNL     1     -42.594  55.426 -53.098  1.00  0.00     0.255 C 
HETATM    9  H   UNL     1     -42.885  55.598 -55.141  1.00  0.00     0.281 HD
BRANCH   6  10
HETATM   10  C   UNL     1     -40.448  52.347 -53.372  1.00  0.00     0.064 A 
HETATM   11  C   UNL     1     -39.790  52.015 -52.155  1.00  0.00     0.095 A 
HETATM   12  C   UNL     1     -39.314  50.711 -51.941  1.00  0.00     0.039 A 
HETATM   13  C   UNL     1     -39.480  49.722 -52.910  1.00  0.00     0.003 A 
HETATM   14  C   UNL     1     -40.122  50.027 -54.101  1.00  0.00     0.002 A 
HETATM   15  C   UNL     1     -40.600  51.320 -54.326  1.00  0.00     0.032 A 
BRANCH  11  16
HETATM   16  O   UNL     1     -39.702  53.012 -51.207  1.00  0.00    -0.349 OA
BRANCH  16  17
HETATM   17  C   UNL     1     -40.412  52.818 -49.983  1.00  0.00     0.171 C 
HETATM   18  C   UNL     1     -40.105  53.990 -49.066  1.00  0.00     0.034 C 
ENDBRANCH  16  17
ENDBRANCH  11  16
ENDBRANCH   6  10
ENDBRANCH   1   3
BRANCH   1  19
HETATM   19  C   UNL     1     -44.142  57.803 -54.977  1.00  0.00     0.253 C 
HETATM   20  N   UNL     1     -44.384  58.275 -56.240  1.00  0.00    -0.325 N 
HETATM   21  H   UNL     1     -45.319  58.039 -56.563  1.00  0.00     0.169 HD
HETATM   22  O   UNL     1     -45.101  57.374 -54.326  1.00  0.00    -0.271 OA
BRANCH  20  23
HETATM   23  C   UNL     1     -43.502  58.817 -57.193  1.00  0.00     0.045 A 
HETATM   24  C   UNL     1     -43.402  58.387 -58.539  1.00  0.00     0.001 A 
HETATM   25  C   UNL     1     -42.538  59.113 -59.388  1.00  0.00     0.014 A 
HETATM   26  C   UNL     1     -41.776  60.185 -58.921  1.00  0.00     0.001 A 
HETATM   27  C   UNL     1     -41.824  60.534 -57.579  1.00  0.00     0.002 A 
HETATM   28  C   UNL     1     -42.666  59.839 -56.715  1.00  0.00     0.030 A 
BRANCH  24  29
HETATM   29  C   UNL     1     -44.028  57.151 -59.066  1.00  0.00    -0.024 A 
HETATM   30  C   UNL     1     -45.210  57.196 -59.832  1.00  0.00     0.012 A 
HETATM   31  C   UNL     1     -45.771  56.034 -60.370  1.00  0.00     0.001 A 
HETATM   32  C   UNL     1     -45.159  54.803 -60.156  1.00  0.00     0.000 A 
HETATM   33  C   UNL     1     -43.987  54.733 -59.409  1.00  0.00     0.001 A 
HETATM   34  C   UNL     1     -43.427  55.896 -58.873  1.00  0.00     0.012 A 
ENDBRANCH  24  29
ENDBRANCH  20  23
ENDBRANCH   1  19
TORSDOF 7
ENDMDL
MODEL 2
REMARK VINA RESULT:      -8.5      3.318      8.893
REMARK  7 active torsions:
REMARK  status: ('A' for Active; 'I' for Inactive)
REMARK    1  A    between atoms: C_2  and  O_3 
REMARK    2  A    between atoms: O_3  and  C_4 
REMARK    3  A    between atoms: C_5  and  N_6 
REMARK    4  A    between atoms: N_9  and  C_11 
REMARK    5  A    between atoms: C_11  and  C_12 
REMARK       I    between atoms: C_12  and  N_13 
REMARK    6  A    between atoms: N_13  and  C_14 
REMARK    7  A    between atoms: C_15  and  C_16 
ROOT
HETATM    1  C   UNL     1     -41.815  55.671 -53.900  1.00  0.00     0.275 C 
HETATM    2  C   UNL     1     -41.897  55.979 -55.395  1.00  0.00     0.050 C 
ENDROOT
BRANCH   1   3
HETATM    3  N   UNL     1     -42.047  56.992 -53.116  1.00  0.00    -0.056 N 
HETATM    4  C   UNL     1     -40.937  58.049 -53.266  1.00  0.00     0.255 C 
HETATM    5  C   UNL     1     -41.235  59.261 -52.347  1.00  0.00     0.150 C 
HETATM    6  N   UNL     1     -42.581  59.804 -52.643  1.00  0.00    -0.375 N 
HETATM    7  C   UNL     1     -43.677  58.828 -52.541  1.00  0.00     0.150 C 
HETATM    8  C   UNL     1     -43.396  57.624 -53.456  1.00  0.00     0.255 C 
HETATM    9  H   UNL     1     -42.080  56.745 -52.121  1.00  0.00     0.281 HD
BRANCH   6  10
HETATM   10  C   UNL     1     -42.815  61.115 -52.175  1.00  0.00     0.064 A 
HETATM   11  C   UNL     1     -43.126  62.178 -53.067  1.00  0.00     0.095 A 
HETATM   12  C   UNL     1     -43.395  63.463 -52.569  1.00  0.00     0.039 A 
HETATM   13  C   UNL     1     -43.367  63.719 -51.199  1.00  0.00     0.003 A 
HETATM   14  C   UNL     1     -43.070  62.694 -50.314  1.00  0.00     0.002 A 
HETATM   15  C   UNL     1     -42.799  61.411 -50.796  1.00  0.00     0.032 A 
BRANCH  11  16
HETATM   16  O   UNL     1     -43.197  61.861 -54.407  1.00  0.00    -0.349 OA
BRANCH  16  17
HETATM   17  C   UNL     1     -44.389  62.224 -55.105  1.00  0.00     0.171 C 
HETATM   18  C   UNL     1     -45.414  61.122 -54.899  1.00  0.00     0.034 C 
ENDBRANCH  16  17
ENDBRANCH  11  16
ENDBRANCH   6  10
ENDBRANCH   1   3
BRANCH   1  19
HETATM   19  C   UNL     1     -42.807  54.554 -53.509  1.00  0.00     0.253 C 
HETATM   20  N   UNL     1     -42.739  53.942 -52.286  1.00  0.00    -0.325 N 
HETATM   21  H   UNL     1     -43.624  53.516 -52.022  1.00  0.00     0.169 HD
HETATM   22  O   UNL     1     -43.801  54.337 -54.211  1.00  0.00    -0.271 OA
BRANCH  20  23
HETATM   23  C   UNL     1     -41.743  54.001 -51.293  1.00  0.00     0.045 A 
HETATM   24  C   UNL     1     -40.531  53.270 -51.318  1.00  0.00     0.001 A 
HETATM   25  C   UNL     1     -39.596  53.530 -50.292  1.00  0.00     0.014 A 
HETATM   26  C   UNL     1     -39.864  54.436 -49.265  1.00  0.00     0.001 A 
HETATM   27  C   UNL     1     -41.094  55.077 -49.211  1.00  0.00     0.002 A 
HETATM   28  C   UNL     1     -42.037  54.843 -50.208  1.00  0.00     0.030 A 
BRANCH  24  29
HETATM   29  C   UNL     1     -40.248  52.160 -52.260  1.00  0.00    -0.024 A 
HETATM   30  C   UNL     1     -40.248  52.362 -53.654  1.00  0.00     0.012 A 
HETATM   31  C   UNL     1     -39.931  51.326 -54.537  1.00  0.00     0.001 A 
HETATM   32  C   UNL     1     -39.605  50.066 -54.044  1.00  0.00     0.000 A 
HETATM   33  C   UNL     1     -39.591  49.844 -52.670  1.00  0.00     0.001 A 
HETATM   34  C   UNL     1     -39.906  50.881 -51.789  1.00  0.00     0.012 A 
ENDBRANCH  24  29
ENDBRANCH  20  23
ENDBRANCH   1  19
TORSDOF 7
ENDMDL
MODEL 3
REMARK VINA RESULT:      -8.5      3.570      8.831
REMARK  7 active torsions:
REMARK  status: ('A' for Active; 'I' for Inactive)
REMARK    1  A    between atoms: C_2  and  O_3 
REMARK    2  A    between atoms: O_3  and  C_4 
REMARK    3  A    between atoms: C_5  and  N_6 
REMARK    4  A    between atoms: N_9  and  C_11 
REMARK    5  A    between atoms: C_11  and  C_12 
REMARK       I    between atoms: C_12  and  N_13 
REMARK    6  A    between atoms: N_13  and  C_14 
REMARK    7  A    between atoms: C_15  and  C_16 
ROOT
HETATM    1  C   UNL     1     -41.566  55.727 -53.687  1.00  0.00     0.275 C 
HETATM    2  C   UNL     1     -40.837  55.433 -54.998  1.00  0.00     0.050 C 
ENDROOT
BRANCH   1   3
HETATM    3  N   UNL     1     -42.160  57.160 -53.769  1.00  0.00    -0.056 N 
HETATM    4  C   UNL     1     -43.139  57.531 -52.640  1.00  0.00     0.255 C 
HETATM    5  C   UNL     1     -43.742  58.933 -52.904  1.00  0.00     0.150 C 
HETATM    6  N   UNL     1     -42.658  59.929 -53.066  1.00  0.00    -0.375 N 
HETATM    7  C   UNL     1     -41.678  59.611 -54.115  1.00  0.00     0.150 C 
HETATM    8  C   UNL     1     -41.065  58.223 -53.858  1.00  0.00     0.255 C 
HETATM    9  H   UNL     1     -42.692  57.211 -54.643  1.00  0.00     0.281 HD
BRANCH   6  10
HETATM   10  C   UNL     1     -43.054  61.277 -52.917  1.00  0.00     0.064 A 
HETATM   11  C   UNL     1     -43.265  61.852 -51.633  1.00  0.00     0.095 A 
HETATM   12  C   UNL     1     -43.618  63.206 -51.515  1.00  0.00     0.039 A 
HETATM   13  C   UNL     1     -43.765  64.007 -52.645  1.00  0.00     0.003 A 
HETATM   14  C   UNL     1     -43.559  63.465 -53.905  1.00  0.00     0.002 A 
HETATM   15  C   UNL     1     -43.208  62.120 -54.037  1.00  0.00     0.032 A 
BRANCH  11  16
HETATM   16  O   UNL     1     -43.052  61.031 -50.546  1.00  0.00    -0.349 OA
BRANCH  16  17
HETATM   17  C   UNL     1     -43.944  61.167 -49.438  1.00  0.00     0.171 C 
HETATM   18  C   UNL     1     -45.234  60.441 -49.777  1.00  0.00     0.034 C 
ENDBRANCH  16  17
ENDBRANCH  11  16
ENDBRANCH   6  10
ENDBRANCH   1   3
BRANCH   1  19
HETATM   19  C   UNL     1     -42.631  54.648 -53.391  1.00  0.00     0.253 C 
HETATM   20  N   UNL     1     -42.664  53.995 -52.188  1.00  0.00    -0.325 N 
HETATM   21  H   UNL     1     -43.582  53.606 -51.989  1.00  0.00     0.169 HD
HETATM   22  O   UNL     1     -43.590  54.501 -54.155  1.00  0.00    -0.271 OA
BRANCH  20  23
HETATM   23  C   UNL     1     -41.727  53.975 -51.137  1.00  0.00     0.045 A 
HETATM   24  C   UNL     1     -40.552  53.186 -51.117  1.00  0.00     0.001 A 
HETATM   25  C   UNL     1     -39.668  53.369 -50.031  1.00  0.00     0.014 A 
HETATM   26  C   UNL     1     -39.952  54.256 -48.991  1.00  0.00     0.001 A 
HETATM   27  C   UNL     1     -41.151  54.955 -48.988  1.00  0.00     0.002 A 
HETATM   28  C   UNL     1     -42.043  54.798 -50.044  1.00  0.00     0.030 A 
BRANCH  24  29
HETATM   29  C   UNL     1     -40.267  52.092 -52.076  1.00  0.00    -0.024 A 
HETATM   30  C   UNL     1     -40.271  52.316 -53.467  1.00  0.00     0.012 A 
HETATM   31  C   UNL     1     -39.953  51.295 -54.367  1.00  0.00     0.001 A 
HETATM   32  C   UNL     1     -39.621  50.029 -53.894  1.00  0.00     0.000 A 
HETATM   33  C   UNL     1     -39.603  49.785 -52.524  1.00  0.00     0.001 A 
HETATM   34  C   UNL     1     -39.919  50.807 -51.627  1.00  0.00     0.012 A 
ENDBRANCH  24  29
ENDBRANCH  20  23
ENDBRANCH   1  19
TORSDOF 7
ENDMDL
MODEL 4
REMARK VINA RESULT:      -8.5      1.794      8.933
REMARK  7 active torsions:
REMARK  status: ('A' for Active; 'I' for Inactive)
REMARK    1  A    between atoms: C_2  and  O_3 
REMARK    2  A    between atoms: O_3  and  C_4 
REMARK    3  A    between atoms: C_5  and  N_6 
REMARK    4  A    between atoms: N_9  and  C_11 
REMARK    5  A    between atoms: C_11  and  C_12 
REMARK       I    between atoms: C_12  and  N_13 
REMARK    6  A    between atoms: N_13  and  C_14 
REMARK    7  A    between atoms: C_15  and  C_16 
ROOT
HETATM    1  C   UNL     1     -42.150  55.794 -54.077  1.00  0.00     0.275 C 
HETATM    2  C   UNL     1     -40.683  55.484 -54.377  1.00  0.00     0.050 C 
ENDROOT
BRANCH   1   3
HETATM    3  N   UNL     1     -42.746  56.560 -55.291  1.00  0.00    -0.056 N 
HETATM    4  C   UNL     1     -42.349  58.045 -55.389  1.00  0.00     0.255 C 
HETATM    5  C   UNL     1     -43.099  58.713 -56.569  1.00  0.00     0.150 C 
HETATM    6  N   UNL     1     -42.837  57.970 -57.823  1.00  0.00    -0.375 N 
HETATM    7  C   UNL     1     -43.173  56.540 -57.775  1.00  0.00     0.150 C 
HETATM    8  C   UNL     1     -42.426  55.863 -56.613  1.00  0.00     0.255 C 
HETATM    9  H   UNL     1     -43.765  56.538 -55.184  1.00  0.00     0.281 HD
BRANCH   6  10
HETATM   10  C   UNL     1     -43.123  58.679 -59.011  1.00  0.00     0.064 A 
HETATM   11  C   UNL     1     -44.447  58.765 -59.523  1.00  0.00     0.095 A 
HETATM   12  C   UNL     1     -44.709  59.511 -60.684  1.00  0.00     0.039 A 
HETATM   13  C   UNL     1     -43.682  60.180 -61.349  1.00  0.00     0.003 A 
HETATM   14  C   UNL     1     -42.386  60.110 -60.862  1.00  0.00     0.002 A 
HETATM   15  C   UNL     1     -42.113  59.371 -59.709  1.00  0.00     0.032 A 
BRANCH  11  16
HETATM   16  O   UNL     1     -45.434  58.134 -58.797  1.00  0.00    -0.349 OA
BRANCH  16  17
HETATM   17  C   UNL     1     -46.720  58.010 -59.406  1.00  0.00     0.171 C 
HETATM   18  C   UNL     1     -46.869  56.586 -59.913  1.00  0.00     0.034 C 
ENDBRANCH  16  17
ENDBRANCH  11  16
ENDBRANCH   6  10
ENDBRANCH   1   3
BRANCH   1  19
HETATM   19  C   UNL     1     -42.929  54.506 -53.734  1.00  0.00     0.253 C 
HETATM   20  N   UNL     1     -42.748  53.864 -52.538  1.00  0.00    -0.325 N 
HETATM   21  H   UNL     1     -43.544  53.280 -52.293  1.00  0.00     0.169 HD
HETATM   22  O   UNL     1     -43.875  54.148 -54.445  1.00  0.00    -0.271 OA
BRANCH  20  23
HETATM   23  C   UNL     1     -41.772  54.054 -51.542  1.00  0.00     0.045 A 
HETATM   24  C   UNL     1     -40.560  53.327 -51.448  1.00  0.00     0.001 A 
HETATM   25  C   UNL     1     -39.645  53.721 -50.447  1.00  0.00     0.014 A 
HETATM   26  C   UNL     1     -39.930  54.755 -49.554  1.00  0.00     0.001 A 
HETATM   27  C   UNL     1     -41.160  55.396 -49.609  1.00  0.00     0.002 A 
HETATM   28  C   UNL     1     -42.084  55.032 -50.584  1.00  0.00     0.030 A 
BRANCH  24  29
HETATM   29  C   UNL     1     -40.261  52.103 -52.229  1.00  0.00    -0.024 A 
HETATM   30  C   UNL     1     -40.275  52.110 -53.637  1.00  0.00     0.012 A 
HETATM   31  C   UNL     1     -39.943  50.966 -54.371  1.00  0.00     0.001 A 
HETATM   32  C   UNL     1     -39.589  49.794 -53.711  1.00  0.00     0.000 A 
HETATM   33  C   UNL     1     -39.561  49.765 -52.320  1.00  0.00     0.001 A 
HETATM   34  C   UNL     1     -39.891  50.908 -51.589  1.00  0.00     0.012 A 
ENDBRANCH  24  29
ENDBRANCH  20  23
ENDBRANCH   1  19
TORSDOF 7
ENDMDL
MODEL 5
REMARK VINA RESULT:      -8.4      1.891      8.865
REMARK  7 active torsions:
REMARK  status: ('A' for Active; 'I' for Inactive)
REMARK    1  A    between atoms: C_2  and  O_3 
REMARK    2  A    between atoms: O_3  and  C_4 
REMARK    3  A    between atoms: C_5  and  N_6 
REMARK    4  A    between atoms: N_9  and  C_11 
REMARK    5  A    between atoms: C_11  and  C_12 
REMARK       I    between atoms: C_12  and  N_13 
REMARK    6  A    between atoms: N_13  and  C_14 
REMARK    7  A    between atoms: C_15  and  C_16 
ROOT
HETATM    1  C   UNL     1     -41.830  55.795 -54.270  1.00  0.00     0.275 C 
HETATM    2  C   UNL     1     -40.442  55.387 -54.764  1.00  0.00     0.050 C 
ENDROOT
BRANCH   1   3
HETATM    3  N   UNL     1     -42.460  56.750 -55.322  1.00  0.00    -0.056 N 
HETATM    4  C   UNL     1     -42.438  56.236 -56.773  1.00  0.00     0.255 C 
HETATM    5  C   UNL     1     -42.987  57.327 -57.727  1.00  0.00     0.150 C 
HETATM    6  N   UNL     1     -44.339  57.746 -57.294  1.00  0.00    -0.375 N 
HETATM    7  C   UNL     1     -44.424  58.221 -55.905  1.00  0.00     0.150 C 
HETATM    8  C   UNL     1     -43.889  57.142 -54.947  1.00  0.00     0.255 C 
HETATM    9  H   UNL     1     -41.906  57.612 -55.310  1.00  0.00     0.281 HD
BRANCH   6  10
HETATM   10  C   UNL     1     -45.100  58.422 -58.272  1.00  0.00     0.064 A 
HETATM   11  C   UNL     1     -45.857  57.714 -59.247  1.00  0.00     0.095 A 
HETATM   12  C   UNL     1     -46.637  58.413 -60.182  1.00  0.00     0.039 A 
HETATM   13  C   UNL     1     -46.687  59.806 -60.171  1.00  0.00     0.003 A 
HETATM   14  C   UNL     1     -45.960  60.513 -59.226  1.00  0.00     0.002 A 
HETATM   15  C   UNL     1     -45.179  59.830 -58.291  1.00  0.00     0.032 A 
BRANCH  11  16
HETATM   16  O   UNL     1     -45.817  56.337 -59.179  1.00  0.00    -0.349 OA
BRANCH  16  17
HETATM   17  C   UNL     1     -45.192  55.645 -60.261  1.00  0.00     0.171 C 
HETATM   18  C   UNL     1     -44.443  54.453 -59.691  1.00  0.00     0.034 C 
ENDBRANCH  16  17
ENDBRANCH  11  16
ENDBRANCH   6  10
ENDBRANCH   1   3
BRANCH   1  19
HETATM   19  C   UNL     1     -42.703  54.555 -53.982  1.00  0.00     0.253 C 
HETATM   20  N   UNL     1     -42.644  53.911 -52.775  1.00  0.00    -0.325 N 
HETATM   21  H   UNL     1     -43.487  53.374 -52.586  1.00  0.00     0.169 HD
HETATM   22  O   UNL     1     -43.614  54.246 -54.758  1.00  0.00    -0.271 OA
BRANCH  20  23
HETATM   23  C   UNL     1     -41.732  54.052 -51.712  1.00  0.00     0.045 A 
HETATM   24  C   UNL     1     -40.559  53.277 -51.544  1.00  0.00     0.001 A 
HETATM   25  C   UNL     1     -39.700  53.625 -50.478  1.00  0.00     0.014 A 
HETATM   26  C   UNL     1     -40.007  54.659 -49.593  1.00  0.00     0.001 A 
HETATM   27  C   UNL     1     -41.204  55.349 -49.724  1.00  0.00     0.002 A 
HETATM   28  C   UNL     1     -42.072  55.032 -50.765  1.00  0.00     0.030 A 
BRANCH  24  29
HETATM   29  C   UNL     1     -40.253  52.051 -52.320  1.00  0.00    -0.024 A 
HETATM   30  C   UNL     1     -40.273  52.049 -53.728  1.00  0.00     0.012 A 
HETATM   31  C   UNL     1     -39.936  50.904 -54.456  1.00  0.00     0.001 A 
HETATM   32  C   UNL     1     -39.569  49.739 -53.791  1.00  0.00     0.000 A 
HETATM   33  C   UNL     1     -39.535  49.718 -52.400  1.00  0.00     0.001 A 
HETATM   34  C   UNL     1     -39.870  50.863 -51.674  1.00  0.00     0.012 A 
ENDBRANCH  24  29
ENDBRANCH  20  23
ENDBRANCH   1  19
TORSDOF 7
ENDMDL
MODEL 6
REMARK VINA RESULT:      -8.4      4.177      9.280
REMARK  7 active torsions:
REMARK  status: ('A' for Active; 'I' for Inactive)
REMARK    1  A    between atoms: C_2  and  O_3 
REMARK    2  A    between atoms: O_3  and  C_4 
REMARK    3  A    between atoms: C_5  and  N_6 
REMARK    4  A    between atoms: N_9  and  C_11 
REMARK    5  A    between atoms: C_11  and  C_12 
REMARK       I    between atoms: C_12  and  N_13 
REMARK    6  A    between atoms: N_13  and  C_14 
REMARK    7  A    between atoms: C_15  and  C_16 
ROOT
HETATM    1  C   UNL     1     -42.378  57.016 -52.466  1.00  0.00     0.275 C 
HETATM    2  C   UNL     1     -41.395  57.503 -53.531  1.00  0.00     0.050 C 
ENDROOT
BRANCH   1   3
HETATM    3  N   UNL     1     -43.469  58.105 -52.274  1.00  0.00    -0.056 N 
HETATM    4  C   UNL     1     -44.501  57.812 -51.169  1.00  0.00     0.255 C 
HETATM    5  C   UNL     1     -45.591  58.913 -51.162  1.00  0.00     0.150 C 
HETATM    6  N   UNL     1     -44.965  60.247 -51.014  1.00  0.00    -0.375 N 
HETATM    7  C   UNL     1     -43.950  60.568 -52.028  1.00  0.00     0.150 C 
HETATM    8  C   UNL     1     -42.856  59.486 -52.039  1.00  0.00     0.255 C 
HETATM    9  H   UNL     1     -43.992  58.161 -53.153  1.00  0.00     0.281 HD
BRANCH   6  10
HETATM   10  C   UNL     1     -45.837  61.277 -50.601  1.00  0.00     0.064 A 
HETATM   11  C   UNL     1     -45.937  61.664 -49.235  1.00  0.00     0.095 A 
HETATM   12  C   UNL     1     -46.782  62.720 -48.859  1.00  0.00     0.039 A 
HETATM   13  C   UNL     1     -47.533  63.408 -49.812  1.00  0.00     0.003 A 
HETATM   14  C   UNL     1     -47.445  63.048 -51.148  1.00  0.00     0.002 A 
HETATM   15  C   UNL     1     -46.608  61.999 -51.535  1.00  0.00     0.032 A 
BRANCH  11  16
HETATM   16  O   UNL     1     -45.132  60.990 -48.342  1.00  0.00    -0.349 OA
BRANCH  16  17
HETATM   17  C   UNL     1     -45.715  60.605 -47.096  1.00  0.00     0.171 C 
HETATM   18  C   UNL     1     -44.819  61.109 -45.978  1.00  0.00     0.034 C 
ENDBRANCH  16  17
ENDBRANCH  11  16
ENDBRANCH   6  10
ENDBRANCH   1   3
BRANCH   1  19
HETATM   19  C   UNL     1     -42.961  55.636 -52.841  1.00  0.00     0.253 C 
HETATM   20  N   UNL     1     -42.683  54.522 -52.095  1.00  0.00    -0.325 N 
HETATM   21  H   UNL     1     -43.385  53.796 -52.216  1.00  0.00     0.169 HD
HETATM   22  O   UNL     1     -43.848  55.553 -53.697  1.00  0.00    -0.271 OA
BRANCH  20  23
HETATM   23  C   UNL     1     -41.740  54.326 -51.069  1.00  0.00     0.045 A 
HETATM   24  C   UNL     1     -40.592  53.504 -51.172  1.00  0.00     0.001 A 
HETATM   25  C   UNL     1     -39.694  53.506 -50.082  1.00  0.00     0.014 A 
HETATM   26  C   UNL     1     -39.940  54.249 -48.926  1.00  0.00     0.001 A 
HETATM   27  C   UNL     1     -41.115  54.980 -48.812  1.00  0.00     0.002 A 
HETATM   28  C   UNL     1     -42.020  55.000 -49.869  1.00  0.00     0.030 A 
BRANCH  24  29
HETATM   29  C   UNL     1     -40.352  52.545 -52.276  1.00  0.00    -0.024 A 
HETATM   30  C   UNL     1     -40.539  52.913 -53.623  1.00  0.00     0.012 A 
HETATM   31  C   UNL     1     -40.264  52.022 -54.664  1.00  0.00     0.001 A 
HETATM   32  C   UNL     1     -39.792  50.744 -54.380  1.00  0.00     0.000 A 
HETATM   33  C   UNL     1     -39.592  50.359 -53.058  1.00  0.00     0.001 A 
HETATM   34  C   UNL     1     -39.866  51.251 -52.019  1.00  0.00     0.012 A 
ENDBRANCH  24  29
ENDBRANCH  20  23
ENDBRANCH   1  19
TORSDOF 7
ENDMDL
MODEL 7
REMARK VINA RESULT:      -8.4      1.962      8.926
REMARK  7 active torsions:
REMARK  status: ('A' for Active; 'I' for Inactive)
REMARK    1  A    between atoms: C_2  and  O_3 
REMARK    2  A    between atoms: O_3  and  C_4 
REMARK    3  A    between atoms: C_5  and  N_6 
REMARK    4  A    between atoms: N_9  and  C_11 
REMARK    5  A    between atoms: C_11  and  C_12 
REMARK       I    between atoms: C_12  and  N_13 
REMARK    6  A    between atoms: N_13  and  C_14 
REMARK    7  A    between atoms: C_15  and  C_16 
ROOT
HETATM    1  C   UNL     1     -42.334  55.873 -54.045  1.00  0.00     0.275 C 
HETATM    2  C   UNL     1     -40.855  55.654 -54.362  1.00  0.00     0.050 C 
ENDROOT
BRANCH   1   3
HETATM    3  N   UNL     1     -42.983  56.627 -55.238  1.00  0.00    -0.056 N 
HETATM    4  C   UNL     1     -42.979  58.163 -55.125  1.00  0.00     0.255 C 
HETATM    5  C   UNL     1     -43.754  58.781 -56.316  1.00  0.00     0.150 C 
HETATM    6  N   UNL     1     -43.183  58.304 -57.596  1.00  0.00    -0.375 N 
HETATM    7  C   UNL     1     -43.137  56.842 -57.746  1.00  0.00     0.150 C 
HETATM    8  C   UNL     1     -42.362  56.217 -56.573  1.00  0.00     0.255 C 
HETATM    9  H   UNL     1     -43.967  56.341 -55.271  1.00  0.00     0.281 HD
BRANCH   6  10
HETATM   10  C   UNL     1     -43.522  59.075 -58.729  1.00  0.00     0.064 A 
HETATM   11  C   UNL     1     -42.693  60.140 -59.179  1.00  0.00     0.095 A 
HETATM   12  C   UNL     1     -43.034  60.863 -60.333  1.00  0.00     0.039 A 
HETATM   13  C   UNL     1     -44.184  60.551 -61.057  1.00  0.00     0.003 A 
HETATM   14  C   UNL     1     -45.002  59.514 -60.636  1.00  0.00     0.002 A 
HETATM   15  C   UNL     1     -44.674  58.788 -59.489  1.00  0.00     0.032 A 
BRANCH  11  16
HETATM   16  O   UNL     1     -41.539  60.371 -58.460  1.00  0.00    -0.349 OA
BRANCH  16  17
HETATM   17  C   UNL     1     -41.307  61.704 -58.003  1.00  0.00     0.171 C 
HETATM   18  C   UNL     1     -40.117  62.265 -58.762  1.00  0.00     0.034 C 
ENDBRANCH  16  17
ENDBRANCH  11  16
ENDBRANCH   6  10
ENDBRANCH   1   3
BRANCH   1  19
HETATM   19  C   UNL     1     -43.035  54.536 -53.722  1.00  0.00     0.253 C 
HETATM   20  N   UNL     1     -42.797  53.875 -52.546  1.00  0.00    -0.325 N 
HETATM   21  H   UNL     1     -43.555  53.242 -52.303  1.00  0.00     0.169 HD
HETATM   22  O   UNL     1     -43.973  54.145 -54.425  1.00  0.00    -0.271 OA
BRANCH  20  23
HETATM   23  C   UNL     1     -41.813  54.094 -51.563  1.00  0.00     0.045 A 
HETATM   24  C   UNL     1     -40.589  53.388 -51.472  1.00  0.00     0.001 A 
HETATM   25  C   UNL     1     -39.670  53.810 -50.487  1.00  0.00     0.014 A 
HETATM   26  C   UNL     1     -39.963  54.849 -49.603  1.00  0.00     0.001 A 
HETATM   27  C   UNL     1     -41.204  55.470 -49.653  1.00  0.00     0.002 A 
HETATM   28  C   UNL     1     -42.132  55.079 -50.614  1.00  0.00     0.030 A 
BRANCH  24  29
HETATM   29  C   UNL     1     -40.278  52.159 -52.242  1.00  0.00    -0.024 A 
HETATM   30  C   UNL     1     -40.317  52.145 -53.649  1.00  0.00     0.012 A 
HETATM   31  C   UNL     1     -39.975  50.998 -54.373  1.00  0.00     0.001 A 
HETATM   32  C   UNL     1     -39.583  49.843 -53.703  1.00  0.00     0.000 A 
HETATM   33  C   UNL     1     -39.530  49.835 -52.312  1.00  0.00     0.001 A 
HETATM   34  C   UNL     1     -39.871  50.982 -51.591  1.00  0.00     0.012 A 
ENDBRANCH  24  29
ENDBRANCH  20  23
ENDBRANCH   1  19
TORSDOF 7
ENDMDL
MODEL 8
REMARK VINA RESULT:      -8.3      1.256      2.990
REMARK  7 active torsions:
REMARK  status: ('A' for Active; 'I' for Inactive)
REMARK    1  A    between atoms: C_2  and  O_3 
REMARK    2  A    between atoms: O_3  and  C_4 
REMARK    3  A    between atoms: C_5  and  N_6 
REMARK    4  A    between atoms: N_9  and  C_11 
REMARK    5  A    between atoms: C_11  and  C_12 
REMARK       I    between atoms: C_12  and  N_13 
REMARK    6  A    between atoms: N_13  and  C_14 
REMARK    7  A    between atoms: C_15  and  C_16 
ROOT
HETATM    1  C   UNL     1     -42.840  57.553 -54.988  1.00  0.00     0.275 C 
HETATM    2  C   UNL     1     -42.727  58.160 -53.590  1.00  0.00     0.050 C 
ENDROOT
BRANCH   1   3
HETATM    3  N   UNL     1     -42.278  56.105 -54.938  1.00  0.00    -0.056 N 
HETATM    4  C   UNL     1     -40.763  55.998 -54.681  1.00  0.00     0.255 C 
HETATM    5  C   UNL     1     -40.317  54.517 -54.772  1.00  0.00     0.150 C 
HETATM    6  N   UNL     1     -41.112  53.689 -53.837  1.00  0.00    -0.375 N 
HETATM    7  C   UNL     1     -42.569  53.775 -54.021  1.00  0.00     0.150 C 
HETATM    8  C   UNL     1     -43.025  55.241 -53.924  1.00  0.00     0.255 C 
HETATM    9  H   UNL     1     -42.446  55.690 -55.860  1.00  0.00     0.281 HD
BRANCH   6  10
HETATM   10  C   UNL     1     -40.557  52.427 -53.532  1.00  0.00     0.064 A 
HETATM   11  C   UNL     1     -39.903  52.183 -52.292  1.00  0.00     0.095 A 
HETATM   12  C   UNL     1     -39.397  50.906 -51.999  1.00  0.00     0.039 A 
HETATM   13  C   UNL     1     -39.528  49.859 -52.911  1.00  0.00     0.003 A 
HETATM   14  C   UNL     1     -40.165  50.078 -54.123  1.00  0.00     0.002 A 
HETATM   15  C   UNL     1     -40.673  51.343 -54.426  1.00  0.00     0.032 A 
BRANCH  11  16
HETATM   16  O   UNL     1     -39.851  53.235 -51.403  1.00  0.00    -0.349 OA
BRANCH  16  17
HETATM   17  C   UNL     1     -40.642  53.133 -50.219  1.00  0.00     0.171 C 
HETATM   18  C   UNL     1     -41.686  54.236 -50.250  1.00  0.00     0.034 C 
ENDBRANCH  16  17
ENDBRANCH  11  16
ENDBRANCH   6  10
ENDBRANCH   1   3
BRANCH   1  19
HETATM   19  C   UNL     1     -44.294  57.618 -55.504  1.00  0.00     0.253 C 
HETATM   20  N   UNL     1     -44.583  57.459 -56.833  1.00  0.00    -0.325 N 
HETATM   21  H   UNL     1     -45.545  57.164 -56.982  1.00  0.00     0.169 HD
HETATM   22  O   UNL     1     -45.235  57.613 -54.703  1.00  0.00    -0.271 OA
BRANCH  20  23
HETATM   23  C   UNL     1     -43.730  57.426 -57.952  1.00  0.00     0.045 A 
HETATM   24  C   UNL     1     -43.071  58.554 -58.499  1.00  0.00     0.001 A 
HETATM   25  C   UNL     1     -42.166  58.323 -59.559  1.00  0.00     0.014 A 
HETATM   26  C   UNL     1     -41.956  57.047 -60.084  1.00  0.00     0.001 A 
HETATM   27  C   UNL     1     -42.677  55.970 -59.590  1.00  0.00     0.002 A 
HETATM   28  C   UNL     1     -43.576  56.162 -58.544  1.00  0.00     0.030 A 
BRANCH  24  29
HETATM   29  C   UNL     1     -43.376  59.957 -58.130  1.00  0.00    -0.024 A 
HETATM   30  C   UNL     1     -44.511  60.619 -58.636  1.00  0.00     0.012 A 
HETATM   31  C   UNL     1     -44.823  61.925 -58.246  1.00  0.00     0.001 A 
HETATM   32  C   UNL     1     -44.007  62.595 -57.340  1.00  0.00     0.000 A 
HETATM   33  C   UNL     1     -42.883  61.959 -56.820  1.00  0.00     0.001 A 
HETATM   34  C   UNL     1     -42.574  60.653 -57.209  1.00  0.00     0.012 A 
ENDBRANCH  24  29
ENDBRANCH  20  23
ENDBRANCH   1  19
TORSDOF 7
ENDMDL
MODEL 9
REMARK VINA RESULT:      -8.1      2.460      9.107
REMARK  7 active torsions:
REMARK  status: ('A' for Active; 'I' for Inactive)
REMARK    1  A    between atoms: C_2  and  O_3 
REMARK    2  A    between atoms: O_3  and  C_4 
REMARK    3  A    between atoms: C_5  and  N_6 
REMARK    4  A    between atoms: N_9  and  C_11 
REMARK    5  A    between atoms: C_11  and  C_12 
REMARK       I    between atoms: C_12  and  N_13 
REMARK    6  A    between atoms: N_13  and  C_14 
REMARK    7  A    between atoms: C_15  and  C_16 
ROOT
HETATM    1  C   UNL     1     -41.766  55.699 -53.855  1.00  0.00     0.275 C 
HETATM    2  C   UNL     1     -40.836  55.338 -55.013  1.00  0.00     0.050 C 
ENDROOT
BRANCH   1   3
HETATM    3  N   UNL     1     -42.506  57.017 -54.215  1.00  0.00    -0.056 N 
HETATM    4  C   UNL     1     -41.921  58.293 -53.581  1.00  0.00     0.255 C 
HETATM    5  C   UNL     1     -42.815  59.511 -53.925  1.00  0.00     0.150 C 
HETATM    6  N   UNL     1     -42.973  59.626 -55.393  1.00  0.00    -0.375 N 
HETATM    7  C   UNL     1     -43.504  58.425 -56.054  1.00  0.00     0.150 C 
HETATM    8  C   UNL     1     -42.618  57.210 -55.727  1.00  0.00     0.255 C 
HETATM    9  H   UNL     1     -43.463  56.928 -53.858  1.00  0.00     0.281 HD
BRANCH   6  10
HETATM   10  C   UNL     1     -43.418  60.885 -55.851  1.00  0.00     0.064 A 
HETATM   11  C   UNL     1     -42.662  61.646 -56.786  1.00  0.00     0.095 A 
HETATM   12  C   UNL     1     -43.150  62.876 -57.256  1.00  0.00     0.039 A 
HETATM   13  C   UNL     1     -44.379  63.370 -56.820  1.00  0.00     0.003 A 
HETATM   14  C   UNL     1     -45.131  62.641 -55.912  1.00  0.00     0.002 A 
HETATM   15  C   UNL     1     -44.657  61.416 -55.437  1.00  0.00     0.032 A 
BRANCH  11  16
HETATM   16  O   UNL     1     -41.482  61.086 -57.227  1.00  0.00    -0.349 OA
BRANCH  16  17
HETATM   17  C   UNL     1     -41.269  61.035 -58.639  1.00  0.00     0.171 C 
HETATM   18  C   UNL     1     -42.093  59.890 -59.202  1.00  0.00     0.034 C 
ENDBRANCH  16  17
ENDBRANCH  11  16
ENDBRANCH   6  10
ENDBRANCH   1   3
BRANCH   1  19
HETATM   19  C   UNL     1     -42.728  54.535 -53.533  1.00  0.00     0.253 C 
HETATM   20  N   UNL     1     -42.675  53.882 -52.331  1.00  0.00    -0.325 N 
HETATM   21  H   UNL     1     -43.552  53.417 -52.109  1.00  0.00     0.169 HD
HETATM   22  O   UNL     1     -43.692  54.309 -54.272  1.00  0.00    -0.271 OA
BRANCH  20  23
HETATM   23  C   UNL     1     -41.712  53.940 -51.306  1.00  0.00     0.045 A 
HETATM   24  C   UNL     1     -40.517  53.182 -51.275  1.00  0.00     0.001 A 
HETATM   25  C   UNL     1     -39.611  53.444 -50.223  1.00  0.00     0.014 A 
HETATM   26  C   UNL     1     -39.891  54.378 -49.225  1.00  0.00     0.001 A 
HETATM   27  C   UNL     1     -41.107  55.047 -49.227  1.00  0.00     0.002 A 
HETATM   28  C   UNL     1     -42.022  54.813 -50.250  1.00  0.00     0.030 A 
BRANCH  24  29
HETATM   29  C   UNL     1     -40.228  52.046 -52.183  1.00  0.00    -0.024 A 
HETATM   30  C   UNL     1     -40.229  52.206 -53.582  1.00  0.00     0.012 A 
HETATM   31  C   UNL     1     -39.908  51.144 -54.433  1.00  0.00     0.001 A 
HETATM   32  C   UNL     1     -39.575  49.902 -53.902  1.00  0.00     0.000 A 
HETATM   33  C   UNL     1     -39.560  49.721 -52.523  1.00  0.00     0.001 A 
HETATM   34  C   UNL     1     -39.880  50.783 -51.673  1.00  0.00     0.012 A 
ENDBRANCH  24  29
ENDBRANCH  20  23
ENDBRANCH   1  19
TORSDOF 7
ENDMDL
MODEL 10
REMARK VINA RESULT:      -7.6      2.251      8.856
REMARK  7 active torsions:
REMARK  status: ('A' for Active; 'I' for Inactive)
REMARK    1  A    between atoms: C_2  and  O_3 
REMARK    2  A    between atoms: O_3  and  C_4 
REMARK    3  A    between atoms: C_5  and  N_6 
REMARK    4  A    between atoms: N_9  and  C_11 
REMARK    5  A    between atoms: C_11  and  C_12 
REMARK       I    between atoms: C_12  and  N_13 
REMARK    6  A    between atoms: N_13  and  C_14 
REMARK    7  A    between atoms: C_15  and  C_16 
ROOT
HETATM    1  C   UNL     1     -42.036  55.527 -54.468  1.00  0.00     0.275 C 
HETATM    2  C   UNL     1     -40.757  54.884 -55.004  1.00  0.00     0.050 C 
ENDROOT
BRANCH   1   3
HETATM    3  N   UNL     1     -42.675  56.366 -55.610  1.00  0.00    -0.056 N 
HETATM    4  C   UNL     1     -42.202  57.829 -55.695  1.00  0.00     0.255 C 
HETATM    5  C   UNL     1     -42.997  58.577 -56.793  1.00  0.00     0.150 C 
HETATM    6  N   UNL     1     -42.874  57.864 -58.085  1.00  0.00    -0.375 N 
HETATM    7  C   UNL     1     -43.288  56.454 -58.054  1.00  0.00     0.150 C 
HETATM    8  C   UNL     1     -42.497  55.697 -56.972  1.00  0.00     0.255 C 
HETATM    9  H   UNL     1     -43.683  56.397 -55.426  1.00  0.00     0.281 HD
BRANCH   6  10
HETATM   10  C   UNL     1     -43.206  58.627 -59.226  1.00  0.00     0.064 A 
HETATM   11  C   UNL     1     -44.560  58.865 -59.591  1.00  0.00     0.095 A 
HETATM   12  C   UNL     1     -44.862  59.663 -60.707  1.00  0.00     0.039 A 
HETATM   13  C   UNL     1     -43.846  60.235 -61.471  1.00  0.00     0.003 A 
HETATM   14  C   UNL     1     -42.520  60.017 -61.128  1.00  0.00     0.002 A 
HETATM   15  C   UNL     1     -42.207  59.226 -60.020  1.00  0.00     0.032 A 
BRANCH  11  16
HETATM   16  O   UNL     1     -45.527  58.324 -58.770  1.00  0.00    -0.349 OA
BRANCH  16  17
HETATM   17  C   UNL     1     -46.752  57.916 -59.381  1.00  0.00     0.171 C 
HETATM   18  C   UNL     1     -46.575  56.499 -59.900  1.00  0.00     0.034 C 
ENDBRANCH  16  17
ENDBRANCH  11  16
ENDBRANCH   6  10
ENDBRANCH   1   3
BRANCH   1  19
HETATM   19  C   UNL     1     -42.994  54.461 -53.893  1.00  0.00     0.253 C 
HETATM   20  N   UNL     1     -42.901  54.054 -52.589  1.00  0.00    -0.325 N 
HETATM   21  H   UNL     1     -43.772  53.653 -52.251  1.00  0.00     0.169 HD
HETATM   22  O   UNL     1     -43.985  54.108 -54.540  1.00  0.00    -0.271 OA
BRANCH  20  23
HETATM   23  C   UNL     1     -41.902  54.299 -51.628  1.00  0.00     0.045 A 
HETATM   24  C   UNL     1     -41.851  55.435 -50.785  1.00  0.00     0.001 A 
HETATM   25  C   UNL     1     -40.836  55.468 -49.804  1.00  0.00     0.014 A 
HETATM   26  C   UNL     1     -39.889  54.449 -49.689  1.00  0.00     0.001 A 
HETATM   27  C   UNL     1     -39.905  53.387 -50.582  1.00  0.00     0.002 A 
HETATM   28  C   UNL     1     -40.893  53.324 -51.560  1.00  0.00     0.030 A 
BRANCH  24  29
HETATM   29  C   UNL     1     -42.695  56.641 -50.961  1.00  0.00    -0.024 A 
HETATM   30  C   UNL     1     -42.128  57.903 -51.223  1.00  0.00     0.012 A 
HETATM   31  C   UNL     1     -42.929  59.028 -51.438  1.00  0.00     0.001 A 
HETATM   32  C   UNL     1     -44.316  58.913 -51.399  1.00  0.00     0.000 A 
HETATM   33  C   UNL     1     -44.900  57.675 -51.149  1.00  0.00     0.001 A 
HETATM   34  C   UNL     1     -44.098  56.552 -50.936  1.00  0.00     0.012 A 
ENDBRANCH  24  29
ENDBRANCH  20  23
ENDBRANCH   1  19
TORSDOF 7
ENDMDL
