MODEL 1
REMARK VINA RESULT:      -8.2      0.000      0.000
REMARK  8 active torsions:
REMARK  status: ('A' for Active; 'I' for Inactive)
REMARK    1  A    between atoms: C_5  and  S_6 
REMARK    2  A    between atoms: S_6  and  C_7 
REMARK    3  A    between atoms: C_7  and  C_8 
REMARK       I    between atoms: C_8  and  N_9 
REMARK    4  A    between atoms: N_9  and  N_10 
REMARK       I    between atoms: N_10  and  C_11 
REMARK    5  A    between atoms: C_11  and  C_12 
REMARK    6  A    between atoms: C_15  and  O_16 
REMARK    7  A    between atoms: C_23  and  C_24 
REMARK    8  A    between atoms: C_24  and  C_25 
ROOT
HETATM    1  C   UNL     1     -41.877  59.943 -51.785  1.00  0.00     0.187 C 
ENDROOT
BRANCH   1   2
HETATM    2  S   UNL     1     -40.903  58.648 -50.975  1.00  0.00    -0.083 SA
BRANCH   2   3
HETATM    3  C   UNL     1     -41.803  57.234 -51.385  1.00  0.00     0.167 A 
HETATM    4  N   UNL     1     -42.632  56.626 -50.491  1.00  0.00    -0.337 N 
HETATM    5  C   UNL     1     -43.151  55.508 -51.095  1.00  0.00     0.032 A 
HETATM    6  H   UNL     1     -42.850  56.976 -49.566  1.00  0.00     0.168 HD
HETATM    7  C   UNL     1     -44.101  54.601 -50.418  1.00  0.00     0.070 C 
HETATM    8  C   UNL     1     -42.575  55.490 -52.357  1.00  0.00     0.063 A 
HETATM    9  N   UNL     1     -41.759  56.594 -52.526  1.00  0.00    -0.227 NA
BRANCH   8  10
HETATM   10  C   UNL     1     -42.760  54.508 -53.464  1.00  0.00     0.100 C 
BRANCH  10  11
HETATM   11  C   UNL     1     -41.655  53.490 -53.318  1.00  0.00    -0.052 A 
HETATM   12  C   UNL     1     -41.309  52.643 -54.381  1.00  0.00     0.007 A 
HETATM   13  C   UNL     1     -40.286  51.704 -54.237  1.00  0.00     0.001 A 
HETATM   14  C   UNL     1     -39.594  51.603 -53.030  1.00  0.00     0.000 A 
HETATM   15  C   UNL     1     -39.929  52.436 -51.966  1.00  0.00     0.001 A 
HETATM   16  C   UNL     1     -40.953  53.373 -52.107  1.00  0.00     0.007 A 
ENDBRANCH  10  11
ENDBRANCH   8  10
ENDBRANCH   2   3
ENDBRANCH   1   2
BRANCH   1  17
HETATM   17  C   UNL     1     -41.958  59.676 -53.274  1.00  0.00     0.245 C 
HETATM   18  N   UNL     1     -43.227  59.408 -53.749  1.00  0.00    -0.267 N 
HETATM   19  H   UNL     1     -43.948  59.029 -53.130  1.00  0.00     0.190 HD
HETATM   20  O   UNL     1     -40.972  59.683 -54.018  1.00  0.00    -0.271 OA
BRANCH  18  21
HETATM   21  N   UNL     1     -43.318  58.975 -55.087  1.00  0.00    -0.263 N 
HETATM   22  C   UNL     1     -44.067  57.839 -55.335  1.00  0.00     0.270 C 
HETATM   23  O   UNL     1     -44.765  57.312 -54.474  1.00  0.00    -0.266 OA
HETATM   24  H   UNL     1     -42.518  59.214 -55.671  1.00  0.00     0.190 HD
BRANCH  22  25
HETATM   25  C   UNL     1     -43.946  57.256 -56.700  1.00  0.00     0.033 A 
HETATM   26  C   UNL     1     -44.730  57.790 -57.727  1.00  0.00     0.020 A 
HETATM   27  C   UNL     1     -44.649  57.261 -59.018  1.00  0.00     0.038 A 
HETATM   28  C   UNL     1     -43.782  56.203 -59.303  1.00  0.00     0.068 A 
HETATM   29  C   UNL     1     -42.987  55.679 -58.283  1.00  0.00     0.038 A 
HETATM   30  C   UNL     1     -43.064  56.205 -56.986  1.00  0.00     0.020 A 
BRANCH  28  31
HETATM   31  O   UNL     1     -43.801  55.781 -60.602  1.00  0.00    -0.356 OA
HETATM   32  C   UNL     1     -44.998  55.167 -61.065  1.00  0.00     0.210 C 
ENDBRANCH  28  31
ENDBRANCH  22  25
ENDBRANCH  18  21
ENDBRANCH   1  17
TORSDOF 8
ENDMDL
MODEL 2
REMARK VINA RESULT:      -8.0      2.822      6.359
REMARK  8 active torsions:
REMARK  status: ('A' for Active; 'I' for Inactive)
REMARK    1  A    between atoms: C_5  and  S_6 
REMARK    2  A    between atoms: S_6  and  C_7 
REMARK    3  A    between atoms: C_7  and  C_8 
REMARK       I    between atoms: C_8  and  N_9 
REMARK    4  A    between atoms: N_9  and  N_10 
REMARK       I    between atoms: N_10  and  C_11 
REMARK    5  A    between atoms: C_11  and  C_12 
REMARK    6  A    between atoms: C_15  and  O_16 
REMARK    7  A    between atoms: C_23  and  C_24 
REMARK    8  A    between atoms: C_24  and  C_25 
ROOT
HETATM    1  C   UNL     1     -42.723  57.631 -57.246  1.00  0.00     0.187 C 
ENDROOT
BRANCH   1   2
HETATM    2  S   UNL     1     -43.783  58.796 -56.352  1.00  0.00    -0.083 SA
BRANCH   2   3
HETATM    3  C   UNL     1     -43.014  58.846 -54.809  1.00  0.00     0.167 A 
HETATM    4  N   UNL     1     -41.661  58.942 -54.683  1.00  0.00    -0.337 N 
HETATM    5  C   UNL     1     -41.360  58.901 -53.344  1.00  0.00     0.032 A 
HETATM    6  H   UNL     1     -41.011  59.067 -55.450  1.00  0.00     0.168 HD
HETATM    7  C   UNL     1     -39.977  58.987 -52.831  1.00  0.00     0.070 C 
HETATM    8  C   UNL     1     -42.587  58.759 -52.712  1.00  0.00     0.063 A 
HETATM    9  N   UNL     1     -43.609  58.757 -53.646  1.00  0.00    -0.227 NA
BRANCH   8  10
HETATM   10  C   UNL     1     -42.892  58.657 -51.256  1.00  0.00     0.100 C 
BRANCH  10  11
HETATM   11  C   UNL     1     -42.649  57.217 -50.872  1.00  0.00    -0.052 A 
HETATM   12  C   UNL     1     -43.599  56.225 -51.156  1.00  0.00     0.007 A 
HETATM   13  C   UNL     1     -43.366  54.896 -50.797  1.00  0.00     0.001 A 
HETATM   14  C   UNL     1     -42.181  54.543 -50.152  1.00  0.00     0.000 A 
HETATM   15  C   UNL     1     -41.231  55.518 -49.861  1.00  0.00     0.001 A 
HETATM   16  C   UNL     1     -41.463  56.847 -50.217  1.00  0.00     0.007 A 
ENDBRANCH  10  11
ENDBRANCH   8  10
ENDBRANCH   2   3
ENDBRANCH   1   2
BRANCH   1  17
HETATM   17  C   UNL     1     -42.649  56.317 -56.495  1.00  0.00     0.245 C 
HETATM   18  N   UNL     1     -41.381  55.954 -56.081  1.00  0.00    -0.267 N 
HETATM   19  H   UNL     1     -40.553  56.303 -56.567  1.00  0.00     0.190 HD
HETATM   20  O   UNL     1     -43.634  55.608 -56.274  1.00  0.00    -0.271 OA
BRANCH  18  21
HETATM   21  N   UNL     1     -41.244  54.658 -55.545  1.00  0.00    -0.263 N 
HETATM   22  C   UNL     1     -40.874  54.559 -54.215  1.00  0.00     0.270 C 
HETATM   23  O   UNL     1     -40.827  55.535 -53.473  1.00  0.00    -0.266 OA
HETATM   24  H   UNL     1     -40.978  53.940 -56.217  1.00  0.00     0.190 HD
BRANCH  22  25
HETATM   25  C   UNL     1     -40.490  53.202 -53.738  1.00  0.00     0.033 A 
HETATM   26  C   UNL     1     -40.191  53.030 -52.383  1.00  0.00     0.020 A 
HETATM   27  C   UNL     1     -39.818  51.772 -51.902  1.00  0.00     0.038 A 
HETATM   28  C   UNL     1     -39.746  50.672 -52.761  1.00  0.00     0.068 A 
HETATM   29  C   UNL     1     -40.058  50.838 -54.111  1.00  0.00     0.038 A 
HETATM   30  C   UNL     1     -40.433  52.097 -54.599  1.00  0.00     0.020 A 
BRANCH  28  31
HETATM   31  O   UNL     1     -39.367  49.503 -52.163  1.00  0.00    -0.356 OA
HETATM   32  C   UNL     1     -39.309  49.492 -50.742  1.00  0.00     0.210 C 
ENDBRANCH  28  31
ENDBRANCH  22  25
ENDBRANCH  18  21
ENDBRANCH   1  17
TORSDOF 8
ENDMDL
MODEL 3
REMARK VINA RESULT:      -7.9      2.812      6.331
REMARK  8 active torsions:
REMARK  status: ('A' for Active; 'I' for Inactive)
REMARK    1  A    between atoms: C_5  and  S_6 
REMARK    2  A    between atoms: S_6  and  C_7 
REMARK    3  A    between atoms: C_7  and  C_8 
REMARK       I    between atoms: C_8  and  N_9 
REMARK    4  A    between atoms: N_9  and  N_10 
REMARK       I    between atoms: N_10  and  C_11 
REMARK    5  A    between atoms: C_11  and  C_12 
REMARK    6  A    between atoms: C_15  and  O_16 
REMARK    7  A    between atoms: C_23  and  C_24 
REMARK    8  A    between atoms: C_24  and  C_25 
ROOT
HETATM    1  C   UNL     1     -44.036  58.110 -56.903  1.00  0.00     0.187 C 
ENDROOT
BRANCH   1   2
HETATM    2  S   UNL     1     -45.540  57.993 -55.901  1.00  0.00    -0.083 SA
BRANCH   2   3
HETATM    3  C   UNL     1     -44.907  58.185 -54.307  1.00  0.00     0.167 A 
HETATM    4  N   UNL     1     -44.913  57.164 -53.404  1.00  0.00    -0.337 N 
HETATM    5  C   UNL     1     -44.400  57.644 -52.225  1.00  0.00     0.032 A 
HETATM    6  H   UNL     1     -45.205  56.214 -53.600  1.00  0.00     0.168 HD
HETATM    7  C   UNL     1     -44.250  56.806 -51.018  1.00  0.00     0.070 C 
HETATM    8  C   UNL     1     -44.120  58.979 -52.481  1.00  0.00     0.063 A 
HETATM    9  N   UNL     1     -44.418  59.286 -53.797  1.00  0.00    -0.227 NA
BRANCH   8  10
HETATM   10  C   UNL     1     -43.546  60.012 -51.573  1.00  0.00     0.100 C 
BRANCH  10  11
HETATM   11  C   UNL     1     -42.070  59.713 -51.467  1.00  0.00    -0.052 A 
HETATM   12  C   UNL     1     -41.357  59.204 -52.562  1.00  0.00     0.007 A 
HETATM   13  C   UNL     1     -39.992  58.930 -52.455  1.00  0.00     0.001 A 
HETATM   14  C   UNL     1     -39.324  59.165 -51.254  1.00  0.00     0.000 A 
HETATM   15  C   UNL     1     -40.020  59.668 -50.158  1.00  0.00     0.001 A 
HETATM   16  C   UNL     1     -41.384  59.940 -50.262  1.00  0.00     0.007 A 
ENDBRANCH  10  11
ENDBRANCH   8  10
ENDBRANCH   2   3
ENDBRANCH   1   2
BRANCH   1  17
HETATM   17  C   UNL     1     -43.005  57.115 -56.410  1.00  0.00     0.245 C 
HETATM   18  N   UNL     1     -43.354  55.788 -56.569  1.00  0.00    -0.267 N 
HETATM   19  H   UNL     1     -44.337  55.509 -56.625  1.00  0.00     0.190 HD
HETATM   20  O   UNL     1     -41.936  57.449 -55.892  1.00  0.00    -0.271 OA
BRANCH  18  21
HETATM   21  N   UNL     1     -42.510  54.839 -55.959  1.00  0.00    -0.263 N 
HETATM   22  C   UNL     1     -42.890  54.358 -54.720  1.00  0.00     0.270 C 
HETATM   23  O   UNL     1     -43.989  54.603 -54.229  1.00  0.00    -0.266 OA
HETATM   24  H   UNL     1     -41.526  54.913 -56.214  1.00  0.00     0.190 HD
BRANCH  22  25
HETATM   25  C   UNL     1     -41.873  53.559 -53.983  1.00  0.00     0.033 A 
HETATM   26  C   UNL     1     -41.677  53.816 -52.623  1.00  0.00     0.020 A 
HETATM   27  C   UNL     1     -40.724  53.091 -51.902  1.00  0.00     0.038 A 
HETATM   28  C   UNL     1     -39.963  52.098 -52.524  1.00  0.00     0.068 A 
HETATM   29  C   UNL     1     -40.167  51.829 -53.878  1.00  0.00     0.038 A 
HETATM   30  C   UNL     1     -41.122  52.552 -54.606  1.00  0.00     0.020 A 
BRANCH  28  31
HETATM   31  O   UNL     1     -39.067  51.467 -51.707  1.00  0.00    -0.356 OA
HETATM   32  C   UNL     1     -39.483  50.242 -51.115  1.00  0.00     0.210 C 
ENDBRANCH  28  31
ENDBRANCH  22  25
ENDBRANCH  18  21
ENDBRANCH   1  17
TORSDOF 8
ENDMDL
MODEL 4
REMARK VINA RESULT:      -7.9      2.781      7.353
REMARK  8 active torsions:
REMARK  status: ('A' for Active; 'I' for Inactive)
REMARK    1  A    between atoms: C_5  and  S_6 
REMARK    2  A    between atoms: S_6  and  C_7 
REMARK    3  A    between atoms: C_7  and  C_8 
REMARK       I    between atoms: C_8  and  N_9 
REMARK    4  A    between atoms: N_9  and  N_10 
REMARK       I    between atoms: N_10  and  C_11 
REMARK    5  A    between atoms: C_11  and  C_12 
REMARK    6  A    between atoms: C_15  and  O_16 
REMARK    7  A    between atoms: C_23  and  C_24 
REMARK    8  A    between atoms: C_24  and  C_25 
ROOT
HETATM    1  C   UNL     1     -41.873  60.187 -54.113  1.00  0.00     0.187 C 
ENDROOT
BRANCH   1   2
HETATM    2  S   UNL     1     -43.374  59.705 -55.006  1.00  0.00    -0.083 SA
BRANCH   2   3
HETATM    3  C   UNL     1     -42.782  59.560 -56.620  1.00  0.00     0.167 A 
HETATM    4  N   UNL     1     -42.536  60.652 -57.396  1.00  0.00    -0.337 N 
HETATM    5  C   UNL     1     -42.135  60.208 -58.631  1.00  0.00     0.032 A 
HETATM    6  H   UNL     1     -42.600  61.615 -57.086  1.00  0.00     0.168 HD
HETATM    7  C   UNL     1     -41.776  61.124 -59.734  1.00  0.00     0.070 C 
HETATM    8  C   UNL     1     -42.178  58.824 -58.538  1.00  0.00     0.063 A 
HETATM    9  N   UNL     1     -42.557  58.442 -57.263  1.00  0.00    -0.227 NA
BRANCH   8  10
HETATM   10  C   UNL     1     -41.850  57.799 -59.570  1.00  0.00     0.100 C 
BRANCH  10  11
HETATM   11  C   UNL     1     -43.099  56.972 -59.759  1.00  0.00    -0.052 A 
HETATM   12  C   UNL     1     -43.095  55.592 -59.508  1.00  0.00     0.007 A 
HETATM   13  C   UNL     1     -44.254  54.835 -59.685  1.00  0.00     0.001 A 
HETATM   14  C   UNL     1     -45.432  55.448 -60.114  1.00  0.00     0.000 A 
HETATM   15  C   UNL     1     -45.449  56.817 -60.369  1.00  0.00     0.001 A 
HETATM   16  C   UNL     1     -44.291  57.575 -60.194  1.00  0.00     0.007 A 
ENDBRANCH  10  11
ENDBRANCH   8  10
ENDBRANCH   2   3
ENDBRANCH   1   2
BRANCH   1  17
HETATM   17  C   UNL     1     -41.064  58.957 -53.755  1.00  0.00     0.245 C 
HETATM   18  N   UNL     1     -41.654  57.754 -54.094  1.00  0.00    -0.267 N 
HETATM   19  H   UNL     1     -42.669  57.678 -54.191  1.00  0.00     0.190 HD
HETATM   20  O   UNL     1     -39.966  59.009 -53.194  1.00  0.00    -0.271 OA
BRANCH  18  21
HETATM   21  N   UNL     1     -41.022  56.589 -53.615  1.00  0.00    -0.263 N 
HETATM   22  C   UNL     1     -41.091  55.460 -54.411  1.00  0.00     0.270 C 
HETATM   23  O   UNL     1     -41.529  55.489 -55.557  1.00  0.00    -0.266 OA
HETATM   24  H   UNL     1     -40.972  56.513 -52.601  1.00  0.00     0.190 HD
BRANCH  22  25
HETATM   25  C   UNL     1     -40.645  54.185 -53.784  1.00  0.00     0.033 A 
HETATM   26  C   UNL     1     -40.614  54.101 -52.389  1.00  0.00     0.020 A 
HETATM   27  C   UNL     1     -40.193  52.922 -51.767  1.00  0.00     0.038 A 
HETATM   28  C   UNL     1     -39.805  51.814 -52.524  1.00  0.00     0.068 A 
HETATM   29  C   UNL     1     -39.849  51.891 -53.917  1.00  0.00     0.038 A 
HETATM   30  C   UNL     1     -40.272  53.069 -54.546  1.00  0.00     0.020 A 
BRANCH  28  31
HETATM   31  O   UNL     1     -39.414  50.729 -51.792  1.00  0.00    -0.356 OA
HETATM   32  C   UNL     1     -39.590  49.449 -52.388  1.00  0.00     0.210 C 
ENDBRANCH  28  31
ENDBRANCH  22  25
ENDBRANCH  18  21
ENDBRANCH   1  17
TORSDOF 8
ENDMDL
MODEL 5
REMARK VINA RESULT:      -7.8      2.383      6.871
REMARK  8 active torsions:
REMARK  status: ('A' for Active; 'I' for Inactive)
REMARK    1  A    between atoms: C_5  and  S_6 
REMARK    2  A    between atoms: S_6  and  C_7 
REMARK    3  A    between atoms: C_7  and  C_8 
REMARK       I    between atoms: C_8  and  N_9 
REMARK    4  A    between atoms: N_9  and  N_10 
REMARK       I    between atoms: N_10  and  C_11 
REMARK    5  A    between atoms: C_11  and  C_12 
REMARK    6  A    between atoms: C_15  and  O_16 
REMARK    7  A    between atoms: C_23  and  C_24 
REMARK    8  A    between atoms: C_24  and  C_25 
ROOT
HETATM    1  C   UNL     1     -42.222  60.272 -54.255  1.00  0.00     0.187 C 
ENDROOT
BRANCH   1   2
HETATM    2  S   UNL     1     -43.970  59.917 -53.939  1.00  0.00    -0.083 SA
BRANCH   2   3
HETATM    3  C   UNL     1     -44.524  59.486 -55.515  1.00  0.00     0.167 A 
HETATM    4  N   UNL     1     -45.810  59.100 -55.744  1.00  0.00    -0.337 N 
HETATM    5  C   UNL     1     -45.919  58.771 -57.072  1.00  0.00     0.032 A 
HETATM    6  H   UNL     1     -46.552  59.105 -55.054  1.00  0.00     0.168 HD
HETATM    7  C   UNL     1     -47.185  58.311 -57.681  1.00  0.00     0.070 C 
HETATM    8  C   UNL     1     -44.646  58.965 -57.588  1.00  0.00     0.063 A 
HETATM    9  N   UNL     1     -43.798  59.440 -56.603  1.00  0.00    -0.227 NA
BRANCH   8  10
HETATM   10  C   UNL     1     -44.154  58.767 -58.981  1.00  0.00     0.100 C 
BRANCH  10  11
HETATM   11  C   UNL     1     -44.256  57.287 -59.262  1.00  0.00    -0.052 A 
HETATM   12  C   UNL     1     -43.463  56.364 -58.564  1.00  0.00     0.007 A 
HETATM   13  C   UNL     1     -43.564  54.997 -58.830  1.00  0.00     0.001 A 
HETATM   14  C   UNL     1     -44.461  54.537 -59.794  1.00  0.00     0.000 A 
HETATM   15  C   UNL     1     -45.253  55.442 -60.496  1.00  0.00     0.001 A 
HETATM   16  C   UNL     1     -45.151  56.809 -60.233  1.00  0.00     0.007 A 
ENDBRANCH  10  11
ENDBRANCH   8  10
ENDBRANCH   2   3
ENDBRANCH   1   2
BRANCH   1  17
HETATM   17  C   UNL     1     -41.375  59.071 -53.887  1.00  0.00     0.245 C 
HETATM   18  N   UNL     1     -41.958  57.845 -54.145  1.00  0.00    -0.267 N 
HETATM   19  H   UNL     1     -42.975  57.750 -54.187  1.00  0.00     0.190 HD
HETATM   20  O   UNL     1     -40.251  59.164 -53.385  1.00  0.00    -0.271 OA
BRANCH  18  21
HETATM   21  N   UNL     1     -41.283  56.712 -53.650  1.00  0.00    -0.263 N 
HETATM   22  C   UNL     1     -41.298  55.574 -54.436  1.00  0.00     0.270 C 
HETATM   23  O   UNL     1     -41.727  55.575 -55.585  1.00  0.00    -0.266 OA
HETATM   24  H   UNL     1     -41.238  56.648 -52.634  1.00  0.00     0.190 HD
BRANCH  22  25
HETATM   25  C   UNL     1     -40.804  54.324 -53.794  1.00  0.00     0.033 A 
HETATM   26  C   UNL     1     -40.426  53.256 -54.612  1.00  0.00     0.020 A 
HETATM   27  C   UNL     1     -39.966  52.066 -54.043  1.00  0.00     0.038 A 
HETATM   28  C   UNL     1     -39.870  51.928 -52.656  1.00  0.00     0.068 A 
HETATM   29  C   UNL     1     -40.232  52.998 -51.838  1.00  0.00     0.038 A 
HETATM   30  C   UNL     1     -40.694  54.194 -52.402  1.00  0.00     0.020 A 
BRANCH  28  31
HETATM   31  O   UNL     1     -39.408  50.714 -52.233  1.00  0.00    -0.356 OA
HETATM   32  C   UNL     1     -39.612  49.605 -53.100  1.00  0.00     0.210 C 
ENDBRANCH  28  31
ENDBRANCH  22  25
ENDBRANCH  18  21
ENDBRANCH   1  17
TORSDOF 8
ENDMDL
MODEL 6
REMARK VINA RESULT:      -7.4      2.351      3.131
REMARK  8 active torsions:
REMARK  status: ('A' for Active; 'I' for Inactive)
REMARK    1  A    between atoms: C_5  and  S_6 
REMARK    2  A    between atoms: S_6  and  C_7 
REMARK    3  A    between atoms: C_7  and  C_8 
REMARK       I    between atoms: C_8  and  N_9 
REMARK    4  A    between atoms: N_9  and  N_10 
REMARK       I    between atoms: N_10  and  C_11 
REMARK    5  A    between atoms: C_11  and  C_12 
REMARK    6  A    between atoms: C_15  and  O_16 
REMARK    7  A    between atoms: C_23  and  C_24 
REMARK    8  A    between atoms: C_24  and  C_25 
ROOT
HETATM    1  C   UNL     1     -44.696  58.525 -53.437  1.00  0.00     0.187 C 
ENDROOT
BRANCH   1   2
HETATM    2  S   UNL     1     -42.916  58.607 -53.110  1.00  0.00    -0.083 SA
BRANCH   2   3
HETATM    3  C   UNL     1     -42.618  57.050 -52.431  1.00  0.00     0.167 A 
HETATM    4  N   UNL     1     -43.634  56.202 -52.104  1.00  0.00    -0.337 N 
HETATM    5  C   UNL     1     -43.079  55.081 -51.539  1.00  0.00     0.032 A 
HETATM    6  H   UNL     1     -44.616  56.368 -52.292  1.00  0.00     0.168 HD
HETATM    7  C   UNL     1     -43.889  53.939 -51.066  1.00  0.00     0.070 C 
HETATM    8  C   UNL     1     -41.713  55.326 -51.540  1.00  0.00     0.063 A 
HETATM    9  N   UNL     1     -41.447  56.550 -52.128  1.00  0.00    -0.227 NA
BRANCH   8  10
HETATM   10  C   UNL     1     -40.601  54.464 -51.048  1.00  0.00     0.100 C 
BRANCH  10  11
HETATM   11  C   UNL     1     -40.377  53.412 -52.107  1.00  0.00    -0.052 A 
HETATM   12  C   UNL     1     -40.682  53.667 -53.452  1.00  0.00     0.007 A 
HETATM   13  C   UNL     1     -40.472  52.689 -54.426  1.00  0.00     0.001 A 
HETATM   14  C   UNL     1     -39.952  51.445 -54.066  1.00  0.00     0.000 A 
HETATM   15  C   UNL     1     -39.647  51.178 -52.734  1.00  0.00     0.001 A 
HETATM   16  C   UNL     1     -39.859  52.154 -51.760  1.00  0.00     0.007 A 
ENDBRANCH  10  11
ENDBRANCH   8  10
ENDBRANCH   2   3
ENDBRANCH   1   2
BRANCH   1  17
HETATM   17  C   UNL     1     -44.946  57.884 -54.787  1.00  0.00     0.245 C 
HETATM   18  N   UNL     1     -45.898  58.516 -55.564  1.00  0.00    -0.267 N 
HETATM   19  H   UNL     1     -46.631  59.084 -55.132  1.00  0.00     0.190 HD
HETATM   20  O   UNL     1     -44.360  56.869 -55.173  1.00  0.00    -0.271 OA
BRANCH  18  21
HETATM   21  N   UNL     1     -46.290  57.849 -56.742  1.00  0.00    -0.263 N 
HETATM   22  C   UNL     1     -45.774  58.319 -57.936  1.00  0.00     0.270 C 
HETATM   23  O   UNL     1     -44.886  59.165 -57.979  1.00  0.00    -0.266 OA
HETATM   24  H   UNL     1     -47.211  57.415 -56.703  1.00  0.00     0.190 HD
BRANCH  22  25
HETATM   25  C   UNL     1     -46.388  57.774 -59.178  1.00  0.00     0.033 A 
HETATM   26  C   UNL     1     -47.173  58.624 -59.964  1.00  0.00     0.020 A 
HETATM   27  C   UNL     1     -47.771  58.143 -61.132  1.00  0.00     0.038 A 
HETATM   28  C   UNL     1     -47.589  56.818 -61.534  1.00  0.00     0.068 A 
HETATM   29  C   UNL     1     -46.795  55.972 -60.759  1.00  0.00     0.038 A 
HETATM   30  C   UNL     1     -46.191  56.448 -59.587  1.00  0.00     0.020 A 
BRANCH  28  31
HETATM   31  O   UNL     1     -48.231  56.478 -62.692  1.00  0.00    -0.356 OA
HETATM   32  C   UNL     1     -48.776  57.541 -63.465  1.00  0.00     0.210 C 
ENDBRANCH  28  31
ENDBRANCH  22  25
ENDBRANCH  18  21
ENDBRANCH   1  17
TORSDOF 8
ENDMDL
MODEL 7
REMARK VINA RESULT:      -7.4      2.708      7.120
REMARK  8 active torsions:
REMARK  status: ('A' for Active; 'I' for Inactive)
REMARK    1  A    between atoms: C_5  and  S_6 
REMARK    2  A    between atoms: S_6  and  C_7 
REMARK    3  A    between atoms: C_7  and  C_8 
REMARK       I    between atoms: C_8  and  N_9 
REMARK    4  A    between atoms: N_9  and  N_10 
REMARK       I    between atoms: N_10  and  C_11 
REMARK    5  A    between atoms: C_11  and  C_12 
REMARK    6  A    between atoms: C_15  and  O_16 
REMARK    7  A    between atoms: C_23  and  C_24 
REMARK    8  A    between atoms: C_24  and  C_25 
ROOT
HETATM    1  C   UNL     1     -44.922  58.573 -53.875  1.00  0.00     0.187 C 
ENDROOT
BRANCH   1   2
HETATM    2  S   UNL     1     -43.585  59.792 -53.810  1.00  0.00    -0.083 SA
BRANCH   2   3
HETATM    3  C   UNL     1     -43.260  60.038 -55.486  1.00  0.00     0.167 A 
HETATM    4  N   UNL     1     -42.164  60.726 -55.913  1.00  0.00    -0.337 N 
HETATM    5  C   UNL     1     -42.220  60.797 -57.283  1.00  0.00     0.032 A 
HETATM    6  H   UNL     1     -41.426  61.077 -55.314  1.00  0.00     0.168 HD
HETATM    7  C   UNL     1     -41.184  61.471 -58.092  1.00  0.00     0.070 C 
HETATM    8  C   UNL     1     -43.395  60.141 -57.621  1.00  0.00     0.063 A 
HETATM    9  N   UNL     1     -44.013  59.650 -56.484  1.00  0.00    -0.227 NA
BRANCH   8  10
HETATM   10  C   UNL     1     -43.987  59.902 -58.968  1.00  0.00     0.100 C 
BRANCH  10  11
HETATM   11  C   UNL     1     -43.792  58.434 -59.263  1.00  0.00    -0.052 A 
HETATM   12  C   UNL     1     -44.877  57.545 -59.247  1.00  0.00     0.007 A 
HETATM   13  C   UNL     1     -44.688  56.189 -59.521  1.00  0.00     0.001 A 
HETATM   14  C   UNL     1     -43.413  55.706 -59.817  1.00  0.00     0.000 A 
HETATM   15  C   UNL     1     -42.327  56.578 -59.834  1.00  0.00     0.001 A 
HETATM   16  C   UNL     1     -42.513  57.932 -59.558  1.00  0.00     0.007 A 
ENDBRANCH  10  11
ENDBRANCH   8  10
ENDBRANCH   2   3
ENDBRANCH   1   2
BRANCH   1  17
HETATM   17  C   UNL     1     -44.345  57.174 -53.942  1.00  0.00     0.245 C 
HETATM   18  N   UNL     1     -44.188  56.550 -52.719  1.00  0.00    -0.267 N 
HETATM   19  H   UNL     1     -44.080  57.099 -51.863  1.00  0.00     0.190 HD
HETATM   20  O   UNL     1     -44.026  56.623 -54.999  1.00  0.00    -0.271 OA
BRANCH  18  21
HETATM   21  N   UNL     1     -43.487  55.327 -52.724  1.00  0.00    -0.263 N 
HETATM   22  C   UNL     1     -42.159  55.358 -52.339  1.00  0.00     0.270 C 
HETATM   23  O   UNL     1     -41.639  56.357 -51.852  1.00  0.00    -0.266 OA
HETATM   24  H   UNL     1     -43.822  54.643 -53.400  1.00  0.00     0.190 HD
BRANCH  22  25
HETATM   25  C   UNL     1     -41.373  54.119 -52.590  1.00  0.00     0.033 A 
HETATM   26  C   UNL     1     -41.345  53.595 -53.886  1.00  0.00     0.020 A 
HETATM   27  C   UNL     1     -40.624  52.429 -54.156  1.00  0.00     0.038 A 
HETATM   28  C   UNL     1     -39.917  51.776 -53.143  1.00  0.00     0.068 A 
HETATM   29  C   UNL     1     -39.931  52.305 -51.851  1.00  0.00     0.038 A 
HETATM   30  C   UNL     1     -40.652  53.474 -51.575  1.00  0.00     0.020 A 
BRANCH  28  31
HETATM   31  O   UNL     1     -39.258  50.647 -53.540  1.00  0.00    -0.356 OA
HETATM   32  C   UNL     1     -39.887  49.847 -54.534  1.00  0.00     0.210 C 
ENDBRANCH  28  31
ENDBRANCH  22  25
ENDBRANCH  18  21
ENDBRANCH   1  17
TORSDOF 8
ENDMDL
MODEL 8
REMARK VINA RESULT:      -7.4      2.818      6.933
REMARK  8 active torsions:
REMARK  status: ('A' for Active; 'I' for Inactive)
REMARK    1  A    between atoms: C_5  and  S_6 
REMARK    2  A    between atoms: S_6  and  C_7 
REMARK    3  A    between atoms: C_7  and  C_8 
REMARK       I    between atoms: C_8  and  N_9 
REMARK    4  A    between atoms: N_9  and  N_10 
REMARK       I    between atoms: N_10  and  C_11 
REMARK    5  A    between atoms: C_11  and  C_12 
REMARK    6  A    between atoms: C_15  and  O_16 
REMARK    7  A    between atoms: C_23  and  C_24 
REMARK    8  A    between atoms: C_24  and  C_25 
ROOT
HETATM    1  C   UNL     1     -45.316  59.808 -51.563  1.00  0.00     0.187 C 
ENDROOT
BRANCH   1   2
HETATM    2  S   UNL     1     -44.191  60.497 -52.803  1.00  0.00    -0.083 SA
BRANCH   2   3
HETATM    3  C   UNL     1     -44.348  59.353 -54.085  1.00  0.00     0.167 A 
HETATM    4  N   UNL     1     -45.385  59.402 -54.968  1.00  0.00    -0.337 N 
HETATM    5  C   UNL     1     -45.259  58.334 -55.821  1.00  0.00     0.032 A 
HETATM    6  H   UNL     1     -46.089  60.130 -55.002  1.00  0.00     0.168 HD
HETATM    7  C   UNL     1     -46.211  58.071 -56.920  1.00  0.00     0.070 C 
HETATM    8  C   UNL     1     -44.126  57.665 -55.382  1.00  0.00     0.063 A 
HETATM    9  N   UNL     1     -43.557  58.336 -54.314  1.00  0.00    -0.227 NA
BRANCH   8  10
HETATM   10  C   UNL     1     -43.494  56.426 -55.921  1.00  0.00     0.100 C 
BRANCH  10  11
HETATM   11  C   UNL     1     -43.041  56.756 -57.323  1.00  0.00    -0.052 A 
HETATM   12  C   UNL     1     -43.350  55.911 -58.399  1.00  0.00     0.007 A 
HETATM   13  C   UNL     1     -42.927  56.224 -59.692  1.00  0.00     0.001 A 
HETATM   14  C   UNL     1     -42.191  57.385 -59.925  1.00  0.00     0.000 A 
HETATM   15  C   UNL     1     -41.875  58.232 -58.866  1.00  0.00     0.001 A 
HETATM   16  C   UNL     1     -42.295  57.920 -57.573  1.00  0.00     0.007 A 
ENDBRANCH  10  11
ENDBRANCH   8  10
ENDBRANCH   2   3
ENDBRANCH   1   2
BRANCH   1  17
HETATM   17  C   UNL     1     -44.824  58.446 -51.116  1.00  0.00     0.245 C 
HETATM   18  N   UNL     1     -43.453  58.335 -50.988  1.00  0.00    -0.267 N 
HETATM   19  H   UNL     1     -42.828  58.947 -51.517  1.00  0.00     0.190 HD
HETATM   20  O   UNL     1     -45.578  57.494 -50.891  1.00  0.00    -0.271 OA
BRANCH  18  21
HETATM   21  N   UNL     1     -42.947  57.041 -50.755  1.00  0.00    -0.263 N 
HETATM   22  C   UNL     1     -41.582  56.861 -50.893  1.00  0.00     0.270 C 
HETATM   23  O   UNL     1     -40.808  57.801 -51.044  1.00  0.00    -0.266 OA
HETATM   24  H   UNL     1     -43.598  56.283 -50.953  1.00  0.00     0.190 HD
BRANCH  22  25
HETATM   25  C   UNL     1     -41.101  55.452 -50.893  1.00  0.00     0.033 A 
HETATM   26  C   UNL     1     -41.090  54.750 -52.102  1.00  0.00     0.020 A 
HETATM   27  C   UNL     1     -40.652  53.423 -52.138  1.00  0.00     0.038 A 
HETATM   28  C   UNL     1     -40.214  52.784 -50.975  1.00  0.00     0.068 A 
HETATM   29  C   UNL     1     -40.210  53.488 -49.771  1.00  0.00     0.038 A 
HETATM   30  C   UNL     1     -40.647  54.819 -49.728  1.00  0.00     0.020 A 
BRANCH  28  31
HETATM   31  O   UNL     1     -39.816  51.489 -51.150  1.00  0.00    -0.356 OA
HETATM   32  C   UNL     1     -40.204  50.553 -50.151  1.00  0.00     0.210 C 
ENDBRANCH  28  31
ENDBRANCH  22  25
ENDBRANCH  18  21
ENDBRANCH   1  17
TORSDOF 8
ENDMDL
MODEL 9
REMARK VINA RESULT:      -7.4      2.575      6.750
REMARK  8 active torsions:
REMARK  status: ('A' for Active; 'I' for Inactive)
REMARK    1  A    between atoms: C_5  and  S_6 
REMARK    2  A    between atoms: S_6  and  C_7 
REMARK    3  A    between atoms: C_7  and  C_8 
REMARK       I    between atoms: C_8  and  N_9 
REMARK    4  A    between atoms: N_9  and  N_10 
REMARK       I    between atoms: N_10  and  C_11 
REMARK    5  A    between atoms: C_11  and  C_12 
REMARK    6  A    between atoms: C_15  and  O_16 
REMARK    7  A    between atoms: C_23  and  C_24 
REMARK    8  A    between atoms: C_24  and  C_25 
ROOT
HETATM    1  C   UNL     1     -43.721  59.093 -51.636  1.00  0.00     0.187 C 
ENDROOT
BRANCH   1   2
HETATM    2  S   UNL     1     -45.226  58.860 -52.616  1.00  0.00    -0.083 SA
BRANCH   2   3
HETATM    3  C   UNL     1     -44.641  59.137 -54.215  1.00  0.00     0.167 A 
HETATM    4  N   UNL     1     -45.474  59.493 -55.233  1.00  0.00    -0.337 N 
HETATM    5  C   UNL     1     -44.723  59.581 -56.378  1.00  0.00     0.032 A 
HETATM    6  H   UNL     1     -46.462  59.695 -55.135  1.00  0.00     0.168 HD
HETATM    7  C   UNL     1     -45.300  59.953 -57.687  1.00  0.00     0.070 C 
HETATM    8  C   UNL     1     -43.437  59.247 -55.982  1.00  0.00     0.063 A 
HETATM    9  N   UNL     1     -43.404  59.001 -54.620  1.00  0.00    -0.227 NA
BRANCH   8  10
HETATM   10  C   UNL     1     -42.190  59.168 -56.796  1.00  0.00     0.100 C 
BRANCH  10  11
HETATM   11  C   UNL     1     -42.393  58.039 -57.777  1.00  0.00    -0.052 A 
HETATM   12  C   UNL     1     -42.955  56.821 -57.369  1.00  0.00     0.007 A 
HETATM   13  C   UNL     1     -43.140  55.782 -58.283  1.00  0.00     0.001 A 
HETATM   14  C   UNL     1     -42.766  55.950 -59.617  1.00  0.00     0.000 A 
HETATM   15  C   UNL     1     -42.205  57.153 -60.035  1.00  0.00     0.001 A 
HETATM   16  C   UNL     1     -42.017  58.192 -59.122  1.00  0.00     0.007 A 
ENDBRANCH  10  11
ENDBRANCH   8  10
ENDBRANCH   2   3
ENDBRANCH   1   2
BRANCH   1  17
HETATM   17  C   UNL     1     -43.010  57.767 -51.452  1.00  0.00     0.245 C 
HETATM   18  N   UNL     1     -41.750  57.699 -52.015  1.00  0.00    -0.267 N 
HETATM   19  H   UNL     1     -41.496  58.301 -52.801  1.00  0.00     0.190 HD
HETATM   20  O   UNL     1     -43.511  56.808 -50.857  1.00  0.00    -0.271 OA
BRANCH  18  21
HETATM   21  N   UNL     1     -41.136  56.431 -52.027  1.00  0.00    -0.263 N 
HETATM   22  C   UNL     1     -41.143  55.735 -53.222  1.00  0.00     0.270 C 
HETATM   23  O   UNL     1     -41.511  56.245 -54.276  1.00  0.00    -0.266 OA
HETATM   24  H   UNL     1     -41.148  55.939 -51.134  1.00  0.00     0.190 HD
BRANCH  22  25
HETATM   25  C   UNL     1     -40.722  54.308 -53.156  1.00  0.00     0.033 A 
HETATM   26  C   UNL     1     -40.494  53.736 -51.900  1.00  0.00     0.020 A 
HETATM   27  C   UNL     1     -40.089  52.402 -51.801  1.00  0.00     0.038 A 
HETATM   28  C   UNL     1     -39.915  51.622 -52.947  1.00  0.00     0.068 A 
HETATM   29  C   UNL     1     -40.157  52.186 -54.200  1.00  0.00     0.038 A 
HETATM   30  C   UNL     1     -40.563  53.523 -54.306  1.00  0.00     0.020 A 
BRANCH  28  31
HETATM   31  O   UNL     1     -39.516  50.337 -52.709  1.00  0.00    -0.356 OA
HETATM   32  C   UNL     1     -39.493  49.907 -51.353  1.00  0.00     0.210 C 
ENDBRANCH  28  31
ENDBRANCH  22  25
ENDBRANCH  18  21
ENDBRANCH   1  17
TORSDOF 8
ENDMDL
MODEL 10
REMARK VINA RESULT:      -7.1     16.042     17.814
REMARK  8 active torsions:
REMARK  status: ('A' for Active; 'I' for Inactive)
REMARK    1  A    between atoms: C_5  and  S_6 
REMARK    2  A    between atoms: S_6  and  C_7 
REMARK    3  A    between atoms: C_7  and  C_8 
REMARK       I    between atoms: C_8  and  N_9 
REMARK    4  A    between atoms: N_9  and  N_10 
REMARK       I    between atoms: N_10  and  C_11 
REMARK    5  A    between atoms: C_11  and  C_12 
REMARK    6  A    between atoms: C_15  and  O_16 
REMARK    7  A    between atoms: C_23  and  C_24 
REMARK    8  A    between atoms: C_24  and  C_25 
ROOT
HETATM    1  C   UNL     1     -36.751  40.093 -49.374  1.00  0.00     0.187 C 
ENDROOT
BRANCH   1   2
HETATM    2  S   UNL     1     -36.707  38.458 -48.596  1.00  0.00    -0.083 SA
BRANCH   2   3
HETATM    3  C   UNL     1     -38.361  38.243 -48.155  1.00  0.00     0.167 A 
HETATM    4  N   UNL     1     -39.376  38.489 -49.029  1.00  0.00    -0.337 N 
HETATM    5  C   UNL     1     -40.560  38.282 -48.367  1.00  0.00     0.032 A 
HETATM    6  H   UNL     1     -39.259  38.737 -50.005  1.00  0.00     0.168 HD
HETATM    7  C   UNL     1     -41.879  38.452 -49.012  1.00  0.00     0.070 C 
HETATM    8  C   UNL     1     -40.185  37.926 -47.079  1.00  0.00     0.063 A 
HETATM    9  N   UNL     1     -38.806  37.880 -46.978  1.00  0.00    -0.227 NA
BRANCH   8  10
HETATM   10  C   UNL     1     -41.043  37.583 -45.909  1.00  0.00     0.100 C 
BRANCH  10  11
HETATM   11  C   UNL     1     -41.033  38.793 -45.006  1.00  0.00    -0.052 A 
HETATM   12  C   UNL     1     -40.639  38.689 -43.664  1.00  0.00     0.007 A 
HETATM   13  C   UNL     1     -40.633  39.813 -42.836  1.00  0.00     0.001 A 
HETATM   14  C   UNL     1     -41.019  41.055 -43.341  1.00  0.00     0.000 A 
HETATM   15  C   UNL     1     -41.415  41.173 -44.670  1.00  0.00     0.001 A 
HETATM   16  C   UNL     1     -41.424  40.050 -45.499  1.00  0.00     0.007 A 
ENDBRANCH  10  11
ENDBRANCH   8  10
ENDBRANCH   2   3
ENDBRANCH   1   2
BRANCH   1  17
HETATM   17  C   UNL     1     -36.655  39.954 -50.879  1.00  0.00     0.245 C 
HETATM   18  N   UNL     1     -35.605  40.637 -51.462  1.00  0.00    -0.267 N 
HETATM   19  H   UNL     1     -35.197  41.456 -51.005  1.00  0.00     0.190 HD
HETATM   20  O   UNL     1     -37.454  39.293 -51.550  1.00  0.00    -0.271 OA
BRANCH  18  21
HETATM   21  N   UNL     1     -35.590  40.683 -52.870  1.00  0.00    -0.263 N 
HETATM   22  C   UNL     1     -35.665  41.931 -53.463  1.00  0.00     0.270 C 
HETATM   23  O   UNL     1     -35.581  42.971 -52.817  1.00  0.00    -0.266 OA
HETATM   24  H   UNL     1     -35.973  39.859 -53.331  1.00  0.00     0.190 HD
BRANCH  22  25
HETATM   25  C   UNL     1     -35.902  41.947 -54.933  1.00  0.00     0.033 A 
HETATM   26  C   UNL     1     -37.220  41.891 -55.398  1.00  0.00     0.020 A 
HETATM   27  C   UNL     1     -37.479  41.896 -56.771  1.00  0.00     0.038 A 
HETATM   28  C   UNL     1     -36.433  41.966 -57.695  1.00  0.00     0.068 A 
HETATM   29  C   UNL     1     -35.118  42.038 -57.233  1.00  0.00     0.038 A 
HETATM   30  C   UNL     1     -34.852  42.033 -55.857  1.00  0.00     0.020 A 
BRANCH  28  31
HETATM   31  O   UNL     1     -36.824  41.961 -59.004  1.00  0.00    -0.356 OA
HETATM   32  C   UNL     1     -37.517  40.808 -59.468  1.00  0.00     0.210 C 
ENDBRANCH  28  31
ENDBRANCH  22  25
ENDBRANCH  18  21
ENDBRANCH   1  17
TORSDOF 8
ENDMDL
