MODEL 1
REMARK VINA RESULT:      -7.4      0.000      0.000
REMARK  9 active torsions:
REMARK  status: ('A' for Active; 'I' for Inactive)
REMARK    1  A    between atoms: C_3  and  C_4 
REMARK       I    between atoms: C_4  and  N_5 
REMARK    2  A    between atoms: N_5  and  N_6 
REMARK    3  A    between atoms: N_6  and  C_7 
REMARK    4  A    between atoms: C_7  and  N_8 
REMARK    5  A    between atoms: N_8  and  C_9 
REMARK    6  A    between atoms: C_9  and  C_10 
REMARK    7  A    between atoms: C_18  and  C_19 
REMARK    8  A    between atoms: C_19  and  O_20 
REMARK    9  A    between atoms: O_20  and  C_21 
ROOT
HETATM    1  C   UNL     1     -40.312  53.181 -50.939  1.00  0.00     0.069 A 
HETATM    2  C   UNL     1     -39.973  51.872 -50.601  1.00  0.00     0.038 A 
HETATM    3  C   UNL     1     -39.776  50.916 -51.606  1.00  0.00     0.025 A 
HETATM    4  C   UNL     1     -39.919  51.265 -52.953  1.00  0.00     0.044 A 
HETATM    5  C   UNL     1     -39.717  50.283 -53.978  1.00  0.00     0.099 C 
HETATM    6  N   UNL     1     -39.555  49.485 -54.805  1.00  0.00    -0.191 NA
HETATM    7  C   UNL     1     -40.260  52.576 -53.292  1.00  0.00     0.025 A 
HETATM    8  C   UNL     1     -40.453  53.527 -52.287  1.00  0.00     0.038 A 
ENDROOT
BRANCH   1   9
HETATM    9  O   UNL     1     -40.526  54.209 -50.067  1.00  0.00    -0.347 OA
BRANCH   9  10
HETATM   10  C   UNL     1     -41.869  54.652 -49.886  1.00  0.00     0.214 C 
BRANCH  10  11
HETATM   11  C   UNL     1     -41.946  56.071 -50.398  1.00  0.00    -0.033 A 
HETATM   12  C   UNL     1     -43.091  56.511 -51.084  1.00  0.00     0.026 A 
HETATM   13  C   UNL     1     -43.200  57.839 -51.517  1.00  0.00     0.034 A 
HETATM   14  C   UNL     1     -42.139  58.723 -51.279  1.00  0.00     0.017 A 
HETATM   15  C   UNL     1     -40.999  58.294 -50.598  1.00  0.00     0.002 A 
HETATM   16  C   UNL     1     -40.906  56.977 -50.150  1.00  0.00     0.009 A 
BRANCH  13  17
HETATM   17  C   UNL     1     -44.406  58.370 -52.220  1.00  0.00     0.270 C 
HETATM   18  N   UNL     1     -44.227  58.855 -53.500  1.00  0.00    -0.264 N 
HETATM   19  H   UNL     1     -43.362  58.800 -54.028  1.00  0.00     0.190 HD
HETATM   20  O   UNL     1     -45.511  58.345 -51.681  1.00  0.00    -0.266 OA
BRANCH  18  21
HETATM   21  N   UNL     1     -45.362  59.258 -54.215  1.00  0.00    -0.274 N 
HETATM   22  H   UNL     1     -45.857  60.042 -53.795  1.00  0.00     0.189 HD
BRANCH  21  23
HETATM   23  C   UNL     1     -45.458  59.036 -55.566  1.00  0.00     0.186 C 
HETATM   24  S   UNL     1     -45.855  60.195 -56.706  1.00  0.00    -0.040 SA
BRANCH  23  25
HETATM   25  N   UNL     1     -45.137  57.781 -55.994  1.00  0.00    -0.364 N 
HETATM   26  H   UNL     1     -45.947  57.235 -56.281  1.00  0.00     0.162 HD
BRANCH  25  27
HETATM   27  C   UNL     1     -43.879  57.378 -56.612  1.00  0.00     0.154 C 
BRANCH  27  28
HETATM   28  C   UNL     1     -43.145  56.343 -55.759  1.00  0.00     0.139 C 
HETATM   29  O   UNL     1     -43.954  55.971 -54.629  1.00  0.00    -0.384 OA
HETATM   30  C   UNL     1     -43.470  54.699 -54.187  1.00  0.00     0.168 C 
HETATM   31  C   UNL     1     -42.951  53.980 -55.416  1.00  0.00     0.029 C 
HETATM   32  C   UNL     1     -42.880  55.042 -56.495  1.00  0.00     0.035 C 
ENDBRANCH  27  28
ENDBRANCH  25  27
ENDBRANCH  23  25
ENDBRANCH  21  23
ENDBRANCH  18  21
ENDBRANCH  13  17
ENDBRANCH  10  11
ENDBRANCH   9  10
ENDBRANCH   1   9
TORSDOF 9
ENDMDL
MODEL 2
REMARK VINA RESULT:      -7.3      2.046      2.531
REMARK  9 active torsions:
REMARK  status: ('A' for Active; 'I' for Inactive)
REMARK    1  A    between atoms: C_3  and  C_4 
REMARK       I    between atoms: C_4  and  N_5 
REMARK    2  A    between atoms: N_5  and  N_6 
REMARK    3  A    between atoms: N_6  and  C_7 
REMARK    4  A    between atoms: C_7  and  N_8 
REMARK    5  A    between atoms: N_8  and  C_9 
REMARK    6  A    between atoms: C_9  and  C_10 
REMARK    7  A    between atoms: C_18  and  C_19 
REMARK    8  A    between atoms: C_19  and  O_20 
REMARK    9  A    between atoms: O_20  and  C_21 
ROOT
HETATM    1  C   UNL     1     -40.462  53.922 -51.706  1.00  0.00     0.069 A 
HETATM    2  C   UNL     1     -39.816  52.845 -51.102  1.00  0.00     0.038 A 
HETATM    3  C   UNL     1     -39.562  51.678 -51.834  1.00  0.00     0.025 A 
HETATM    4  C   UNL     1     -39.956  51.583 -53.173  1.00  0.00     0.044 A 
HETATM    5  C   UNL     1     -39.695  50.386 -53.919  1.00  0.00     0.099 C 
HETATM    6  N   UNL     1     -39.484  49.415 -54.518  1.00  0.00    -0.191 NA
HETATM    7  C   UNL     1     -40.605  52.661 -53.779  1.00  0.00     0.025 A 
HETATM    8  C   UNL     1     -40.853  53.824 -53.046  1.00  0.00     0.038 A 
ENDROOT
BRANCH   1   9
HETATM    9  O   UNL     1     -40.764  55.115 -51.115  1.00  0.00    -0.347 OA
BRANCH   9  10
HETATM   10  C   UNL     1     -42.053  55.248 -50.520  1.00  0.00     0.214 C 
BRANCH  10  11
HETATM   11  C   UNL     1     -42.723  56.438 -51.165  1.00  0.00    -0.033 A 
HETATM   12  C   UNL     1     -41.992  57.279 -52.021  1.00  0.00     0.026 A 
HETATM   13  C   UNL     1     -42.614  58.356 -52.669  1.00  0.00     0.034 A 
HETATM   14  C   UNL     1     -43.974  58.600 -52.433  1.00  0.00     0.017 A 
HETATM   15  C   UNL     1     -44.707  57.768 -51.586  1.00  0.00     0.002 A 
HETATM   16  C   UNL     1     -44.088  56.686 -50.962  1.00  0.00     0.009 A 
BRANCH  13  17
HETATM   17  C   UNL     1     -41.897  59.261 -53.614  1.00  0.00     0.270 C 
HETATM   18  N   UNL     1     -42.640  59.832 -54.629  1.00  0.00    -0.264 N 
HETATM   19  H   UNL     1     -43.646  59.752 -54.729  1.00  0.00     0.190 HD
HETATM   20  O   UNL     1     -40.699  59.503 -53.470  1.00  0.00    -0.266 OA
BRANCH  18  21
HETATM   21  N   UNL     1     -42.009  60.766 -55.461  1.00  0.00    -0.274 N 
HETATM   22  H   UNL     1     -41.193  61.206 -55.042  1.00  0.00     0.189 HD
BRANCH  21  23
HETATM   23  C   UNL     1     -42.109  60.673 -56.826  1.00  0.00     0.186 C 
HETATM   24  S   UNL     1     -42.501  61.936 -57.851  1.00  0.00    -0.040 SA
BRANCH  23  25
HETATM   25  N   UNL     1     -41.797  59.462 -57.371  1.00  0.00    -0.364 N 
HETATM   26  H   UNL     1     -41.099  58.949 -56.837  1.00  0.00     0.162 HD
BRANCH  25  27
HETATM   27  C   UNL     1     -42.678  58.630 -58.182  1.00  0.00     0.154 C 
BRANCH  27  28
HETATM   28  C   UNL     1     -43.086  57.358 -57.437  1.00  0.00     0.139 C 
HETATM   29  O   UNL     1     -42.088  57.017 -56.460  1.00  0.00    -0.384 OA
HETATM   30  C   UNL     1     -42.733  56.175 -55.500  1.00  0.00     0.168 C 
HETATM   31  C   UNL     1     -44.183  56.613 -55.443  1.00  0.00     0.029 C 
HETATM   32  C   UNL     1     -44.371  57.516 -56.645  1.00  0.00     0.035 C 
ENDBRANCH  27  28
ENDBRANCH  25  27
ENDBRANCH  23  25
ENDBRANCH  21  23
ENDBRANCH  18  21
ENDBRANCH  13  17
ENDBRANCH  10  11
ENDBRANCH   9  10
ENDBRANCH   1   9
TORSDOF 9
ENDMDL
MODEL 3
REMARK VINA RESULT:      -7.1      2.603      3.702
REMARK  9 active torsions:
REMARK  status: ('A' for Active; 'I' for Inactive)
REMARK    1  A    between atoms: C_3  and  C_4 
REMARK       I    between atoms: C_4  and  N_5 
REMARK    2  A    between atoms: N_5  and  N_6 
REMARK    3  A    between atoms: N_6  and  C_7 
REMARK    4  A    between atoms: C_7  and  N_8 
REMARK    5  A    between atoms: N_8  and  C_9 
REMARK    6  A    between atoms: C_9  and  C_10 
REMARK    7  A    between atoms: C_18  and  C_19 
REMARK    8  A    between atoms: C_19  and  O_20 
REMARK    9  A    between atoms: O_20  and  C_21 
ROOT
HETATM    1  C   UNL     1     -40.840  54.190 -52.405  1.00  0.00     0.069 A 
HETATM    2  C   UNL     1     -40.163  53.273 -51.602  1.00  0.00     0.038 A 
HETATM    3  C   UNL     1     -39.773  52.035 -52.126  1.00  0.00     0.025 A 
HETATM    4  C   UNL     1     -40.061  51.705 -53.455  1.00  0.00     0.044 A 
HETATM    5  C   UNL     1     -39.661  50.436 -53.987  1.00  0.00     0.099 C 
HETATM    6  N   UNL     1     -39.337  49.405 -54.413  1.00  0.00    -0.191 NA
HETATM    7  C   UNL     1     -40.741  52.622 -54.260  1.00  0.00     0.025 A 
HETATM    8  C   UNL     1     -41.126  53.858 -53.734  1.00  0.00     0.038 A 
ENDROOT
BRANCH   1   9
HETATM    9  O   UNL     1     -41.271  55.429 -52.027  1.00  0.00    -0.347 OA
BRANCH   9  10
HETATM   10  C   UNL     1     -42.456  55.504 -51.240  1.00  0.00     0.214 C 
BRANCH  10  11
HETATM   11  C   UNL     1     -43.314  56.601 -51.823  1.00  0.00    -0.033 A 
HETATM   12  C   UNL     1     -43.513  56.676 -53.212  1.00  0.00     0.026 A 
HETATM   13  C   UNL     1     -44.350  57.656 -53.764  1.00  0.00     0.034 A 
HETATM   14  C   UNL     1     -44.970  58.581 -52.912  1.00  0.00     0.017 A 
HETATM   15  C   UNL     1     -44.779  58.512 -51.532  1.00  0.00     0.002 A 
HETATM   16  C   UNL     1     -43.963  57.521 -50.988  1.00  0.00     0.009 A 
BRANCH  13  17
HETATM   17  C   UNL     1     -44.623  57.763 -55.227  1.00  0.00     0.270 C 
HETATM   18  N   UNL     1     -44.124  56.761 -56.037  1.00  0.00    -0.264 N 
HETATM   19  H   UNL     1     -43.664  55.921 -55.706  1.00  0.00     0.190 HD
HETATM   20  O   UNL     1     -45.289  58.694 -55.678  1.00  0.00    -0.266 OA
BRANCH  18  21
HETATM   21  N   UNL     1     -44.460  56.787 -57.397  1.00  0.00    -0.274 N 
HETATM   22  H   UNL     1     -45.281  57.351 -57.609  1.00  0.00     0.189 HD
BRANCH  21  23
HETATM   23  C   UNL     1     -43.506  56.582 -58.362  1.00  0.00     0.186 C 
HETATM   24  S   UNL     1     -43.772  55.839 -59.837  1.00  0.00    -0.040 SA
BRANCH  23  25
HETATM   25  N   UNL     1     -42.267  57.091 -58.100  1.00  0.00    -0.364 N 
HETATM   26  H   UNL     1     -41.608  56.392 -57.765  1.00  0.00     0.162 HD
BRANCH  25  27
HETATM   27  C   UNL     1     -41.656  58.244 -58.751  1.00  0.00     0.154 C 
BRANCH  27  28
HETATM   28  C   UNL     1     -42.347  59.547 -58.344  1.00  0.00     0.139 C 
HETATM   29  O   UNL     1     -42.286  59.712 -56.916  1.00  0.00    -0.384 OA
HETATM   30  C   UNL     1     -42.471  61.107 -56.663  1.00  0.00     0.168 C 
HETATM   31  C   UNL     1     -41.891  61.846 -57.852  1.00  0.00     0.029 C 
HETATM   32  C   UNL     1     -41.671  60.783 -58.909  1.00  0.00     0.035 C 
ENDBRANCH  27  28
ENDBRANCH  25  27
ENDBRANCH  23  25
ENDBRANCH  21  23
ENDBRANCH  18  21
ENDBRANCH  13  17
ENDBRANCH  10  11
ENDBRANCH   9  10
ENDBRANCH   1   9
TORSDOF 9
ENDMDL
MODEL 4
REMARK VINA RESULT:      -7.0      2.834      5.468
REMARK  9 active torsions:
REMARK  status: ('A' for Active; 'I' for Inactive)
REMARK    1  A    between atoms: C_3  and  C_4 
REMARK       I    between atoms: C_4  and  N_5 
REMARK    2  A    between atoms: N_5  and  N_6 
REMARK    3  A    between atoms: N_6  and  C_7 
REMARK    4  A    between atoms: C_7  and  N_8 
REMARK    5  A    between atoms: N_8  and  C_9 
REMARK    6  A    between atoms: C_9  and  C_10 
REMARK    7  A    between atoms: C_18  and  C_19 
REMARK    8  A    between atoms: C_19  and  O_20 
REMARK    9  A    between atoms: O_20  and  C_21 
ROOT
HETATM    1  C   UNL     1     -40.933  54.519 -53.314  1.00  0.00     0.069 A 
HETATM    2  C   UNL     1     -40.526  53.308 -52.756  1.00  0.00     0.038 A 
HETATM    3  C   UNL     1     -40.483  53.156 -51.364  1.00  0.00     0.025 A 
HETATM    4  C   UNL     1     -40.843  54.215 -50.524  1.00  0.00     0.044 A 
HETATM    5  C   UNL     1     -40.796  54.055 -49.100  1.00  0.00     0.099 C 
HETATM    6  N   UNL     1     -40.754  53.923 -47.948  1.00  0.00    -0.191 NA
HETATM    7  C   UNL     1     -41.249  55.429 -51.083  1.00  0.00     0.025 A 
HETATM    8  C   UNL     1     -41.294  55.576 -52.471  1.00  0.00     0.038 A 
ENDROOT
BRANCH   1   9
HETATM    9  O   UNL     1     -41.028  54.801 -54.646  1.00  0.00    -0.347 OA
BRANCH   9  10
HETATM   10  C   UNL     1     -42.292  54.603 -55.274  1.00  0.00     0.214 C 
BRANCH  10  11
HETATM   11  C   UNL     1     -42.537  55.790 -56.173  1.00  0.00    -0.033 A 
HETATM   12  C   UNL     1     -42.305  57.093 -55.699  1.00  0.00     0.026 A 
HETATM   13  C   UNL     1     -42.475  58.202 -56.539  1.00  0.00     0.034 A 
HETATM   14  C   UNL     1     -42.906  57.999 -57.857  1.00  0.00     0.017 A 
HETATM   15  C   UNL     1     -43.137  56.709 -58.336  1.00  0.00     0.002 A 
HETATM   16  C   UNL     1     -42.944  55.609 -57.502  1.00  0.00     0.009 A 
BRANCH  13  17
HETATM   17  C   UNL     1     -42.212  59.604 -56.099  1.00  0.00     0.270 C 
HETATM   18  N   UNL     1     -42.855  60.039 -54.957  1.00  0.00    -0.264 N 
HETATM   19  H   UNL     1     -43.421  59.455 -54.350  1.00  0.00     0.190 HD
HETATM   20  O   UNL     1     -41.432  60.324 -56.721  1.00  0.00    -0.266 OA
BRANCH  18  21
HETATM   21  N   UNL     1     -42.540  61.314 -54.469  1.00  0.00    -0.274 N 
HETATM   22  H   UNL     1     -42.056  61.905 -55.142  1.00  0.00     0.189 HD
BRANCH  21  23
HETATM   23  C   UNL     1     -43.281  61.887 -53.467  1.00  0.00     0.186 C 
HETATM   24  S   UNL     1     -44.556  62.946 -53.698  1.00  0.00    -0.040 SA
BRANCH  23  25
HETATM   25  N   UNL     1     -42.978  61.497 -52.195  1.00  0.00    -0.364 N 
HETATM   26  H   UNL     1     -42.878  62.276 -51.548  1.00  0.00     0.162 HD
BRANCH  25  27
HETATM   27  C   UNL     1     -43.345  60.230 -51.572  1.00  0.00     0.154 C 
BRANCH  27  28
HETATM   28  C   UNL     1     -42.124  59.332 -51.369  1.00  0.00     0.139 C 
HETATM   29  O   UNL     1     -41.271  59.390 -52.526  1.00  0.00    -0.384 OA
HETATM   30  C   UNL     1     -39.974  58.971 -52.094  1.00  0.00     0.168 C 
HETATM   31  C   UNL     1     -39.842  59.392 -50.644  1.00  0.00     0.029 C 
HETATM   32  C   UNL     1     -41.244  59.773 -50.214  1.00  0.00     0.035 C 
ENDBRANCH  27  28
ENDBRANCH  25  27
ENDBRANCH  23  25
ENDBRANCH  21  23
ENDBRANCH  18  21
ENDBRANCH  13  17
ENDBRANCH  10  11
ENDBRANCH   9  10
ENDBRANCH   1   9
TORSDOF 9
ENDMDL
MODEL 5
REMARK VINA RESULT:      -6.9      2.711      3.428
REMARK  9 active torsions:
REMARK  status: ('A' for Active; 'I' for Inactive)
REMARK    1  A    between atoms: C_3  and  C_4 
REMARK       I    between atoms: C_4  and  N_5 
REMARK    2  A    between atoms: N_5  and  N_6 
REMARK    3  A    between atoms: N_6  and  C_7 
REMARK    4  A    between atoms: C_7  and  N_8 
REMARK    5  A    between atoms: N_8  and  C_9 
REMARK    6  A    between atoms: C_9  and  C_10 
REMARK    7  A    between atoms: C_18  and  C_19 
REMARK    8  A    between atoms: C_19  and  O_20 
REMARK    9  A    between atoms: O_20  and  C_21 
ROOT
HETATM    1  C   UNL     1     -40.835  54.473 -52.983  1.00  0.00     0.069 A 
HETATM    2  C   UNL     1     -40.741  54.084 -54.318  1.00  0.00     0.038 A 
HETATM    3  C   UNL     1     -40.353  52.778 -54.643  1.00  0.00     0.025 A 
HETATM    4  C   UNL     1     -40.054  51.856 -53.634  1.00  0.00     0.044 A 
HETATM    5  C   UNL     1     -39.656  50.521 -53.971  1.00  0.00     0.099 C 
HETATM    6  N   UNL     1     -39.332  49.441 -54.248  1.00  0.00    -0.191 NA
HETATM    7  C   UNL     1     -40.146  52.246 -52.296  1.00  0.00     0.025 A 
HETATM    8  C   UNL     1     -40.536  53.549 -51.976  1.00  0.00     0.038 A 
ENDROOT
BRANCH   1   9
HETATM    9  O   UNL     1     -41.205  55.706 -52.526  1.00  0.00    -0.347 OA
BRANCH   9  10
HETATM   10  C   UNL     1     -42.310  55.771 -51.628  1.00  0.00     0.214 C 
BRANCH  10  11
HETATM   11  C   UNL     1     -43.109  57.001 -51.988  1.00  0.00    -0.033 A 
HETATM   12  C   UNL     1     -42.732  57.786 -53.092  1.00  0.00     0.026 A 
HETATM   13  C   UNL     1     -43.495  58.899 -53.472  1.00  0.00     0.034 A 
HETATM   14  C   UNL     1     -44.629  59.236 -52.721  1.00  0.00     0.017 A 
HETATM   15  C   UNL     1     -45.010  58.461 -51.625  1.00  0.00     0.002 A 
HETATM   16  C   UNL     1     -44.260  57.342 -51.266  1.00  0.00     0.009 A 
BRANCH  13  17
HETATM   17  C   UNL     1     -43.163  59.749 -54.653  1.00  0.00     0.270 C 
HETATM   18  N   UNL     1     -42.178  59.288 -55.505  1.00  0.00    -0.264 N 
HETATM   19  H   UNL     1     -41.727  58.382 -55.437  1.00  0.00     0.190 HD
HETATM   20  O   UNL     1     -43.765  60.800 -54.863  1.00  0.00    -0.266 OA
BRANCH  18  21
HETATM   21  N   UNL     1     -41.925  60.017 -56.674  1.00  0.00    -0.274 N 
HETATM   22  H   UNL     1     -41.075  60.576 -56.636  1.00  0.00     0.189 HD
BRANCH  21  23
HETATM   23  C   UNL     1     -42.409  59.592 -57.886  1.00  0.00     0.186 C 
HETATM   24  S   UNL     1     -42.525  60.539 -59.261  1.00  0.00    -0.040 SA
BRANCH  23  25
HETATM   25  N   UNL     1     -42.755  58.275 -57.968  1.00  0.00    -0.364 N 
HETATM   26  H   UNL     1     -43.537  58.027 -57.365  1.00  0.00     0.162 HD
BRANCH  25  27
HETATM   27  C   UNL     1     -42.581  57.410 -59.129  1.00  0.00     0.154 C 
BRANCH  27  28
HETATM   28  C   UNL     1     -43.828  56.562 -59.386  1.00  0.00     0.139 C 
HETATM   29  O   UNL     1     -43.996  56.347 -60.798  1.00  0.00    -0.384 OA
HETATM   30  C   UNL     1     -44.823  55.188 -60.935  1.00  0.00     0.168 C 
HETATM   31  C   UNL     1     -44.525  54.299 -59.744  1.00  0.00     0.029 C 
HETATM   32  C   UNL     1     -43.737  55.170 -58.788  1.00  0.00     0.035 C 
ENDBRANCH  27  28
ENDBRANCH  25  27
ENDBRANCH  23  25
ENDBRANCH  21  23
ENDBRANCH  18  21
ENDBRANCH  13  17
ENDBRANCH  10  11
ENDBRANCH   9  10
ENDBRANCH   1   9
TORSDOF 9
ENDMDL
MODEL 6
REMARK VINA RESULT:      -6.9      2.000      2.479
REMARK  9 active torsions:
REMARK  status: ('A' for Active; 'I' for Inactive)
REMARK    1  A    between atoms: C_3  and  C_4 
REMARK       I    between atoms: C_4  and  N_5 
REMARK    2  A    between atoms: N_5  and  N_6 
REMARK    3  A    between atoms: N_6  and  C_7 
REMARK    4  A    between atoms: C_7  and  N_8 
REMARK    5  A    between atoms: N_8  and  C_9 
REMARK    6  A    between atoms: C_9  and  C_10 
REMARK    7  A    between atoms: C_18  and  C_19 
REMARK    8  A    between atoms: C_19  and  O_20 
REMARK    9  A    between atoms: O_20  and  C_21 
ROOT
HETATM    1  C   UNL     1     -40.698  54.261 -53.057  1.00  0.00     0.069 A 
HETATM    2  C   UNL     1     -40.637  53.615 -54.292  1.00  0.00     0.038 A 
HETATM    3  C   UNL     1     -40.281  52.262 -54.359  1.00  0.00     0.025 A 
HETATM    4  C   UNL     1     -39.982  51.550 -53.193  1.00  0.00     0.044 A 
HETATM    5  C   UNL     1     -39.617  50.165 -53.267  1.00  0.00     0.099 C 
HETATM    6  N   UNL     1     -39.320  49.045 -53.331  1.00  0.00    -0.191 NA
HETATM    7  C   UNL     1     -40.041  52.196 -51.956  1.00  0.00     0.025 A 
HETATM    8  C   UNL     1     -40.399  53.545 -51.893  1.00  0.00     0.038 A 
ENDROOT
BRANCH   1   9
HETATM    9  O   UNL     1     -41.035  55.567 -52.847  1.00  0.00    -0.347 OA
BRANCH   9  10
HETATM   10  C   UNL     1     -41.672  55.893 -51.614  1.00  0.00     0.214 C 
BRANCH  10  11
HETATM   11  C   UNL     1     -41.586  57.391 -51.447  1.00  0.00    -0.033 A 
HETATM   12  C   UNL     1     -42.168  58.241 -52.403  1.00  0.00     0.026 A 
HETATM   13  C   UNL     1     -42.143  59.632 -52.234  1.00  0.00     0.034 A 
HETATM   14  C   UNL     1     -41.507  60.171 -51.107  1.00  0.00     0.017 A 
HETATM   15  C   UNL     1     -40.928  59.334 -50.153  1.00  0.00     0.002 A 
HETATM   16  C   UNL     1     -40.976  57.950 -50.316  1.00  0.00     0.009 A 
BRANCH  13  17
HETATM   17  C   UNL     1     -42.773  60.580 -53.199  1.00  0.00     0.270 C 
HETATM   18  N   UNL     1     -42.128  60.775 -54.405  1.00  0.00    -0.264 N 
HETATM   19  H   UNL     1     -41.312  60.261 -54.717  1.00  0.00     0.190 HD
HETATM   20  O   UNL     1     -43.836  61.139 -52.932  1.00  0.00    -0.266 OA
BRANCH  18  21
HETATM   21  N   UNL     1     -42.758  61.578 -55.366  1.00  0.00    -0.274 N 
HETATM   22  H   UNL     1     -42.516  62.564 -55.301  1.00  0.00     0.189 HD
BRANCH  21  23
HETATM   23  C   UNL     1     -43.161  61.051 -56.567  1.00  0.00     0.186 C 
HETATM   24  S   UNL     1     -43.722  61.942 -57.868  1.00  0.00    -0.040 SA
BRANCH  23  25
HETATM   25  N   UNL     1     -43.023  59.702 -56.710  1.00  0.00    -0.364 N 
HETATM   26  H   UNL     1     -42.799  59.226 -55.839  1.00  0.00     0.162 HD
BRANCH  25  27
HETATM   27  C   UNL     1     -43.686  58.869 -57.707  1.00  0.00     0.154 C 
BRANCH  27  28
HETATM   28  C   UNL     1     -43.907  57.448 -57.190  1.00  0.00     0.139 C 
HETATM   29  O   UNL     1     -42.884  56.573 -57.696  1.00  0.00    -0.384 OA
HETATM   30  C   UNL     1     -42.843  55.447 -56.816  1.00  0.00     0.168 C 
HETATM   31  C   UNL     1     -43.236  55.954 -55.443  1.00  0.00     0.029 C 
HETATM   32  C   UNL     1     -43.802  57.338 -55.680  1.00  0.00     0.035 C 
ENDBRANCH  27  28
ENDBRANCH  25  27
ENDBRANCH  23  25
ENDBRANCH  21  23
ENDBRANCH  18  21
ENDBRANCH  13  17
ENDBRANCH  10  11
ENDBRANCH   9  10
ENDBRANCH   1   9
TORSDOF 9
ENDMDL
MODEL 7
REMARK VINA RESULT:      -6.8      2.447      3.339
REMARK  9 active torsions:
REMARK  status: ('A' for Active; 'I' for Inactive)
REMARK    1  A    between atoms: C_3  and  C_4 
REMARK       I    between atoms: C_4  and  N_5 
REMARK    2  A    between atoms: N_5  and  N_6 
REMARK    3  A    between atoms: N_6  and  C_7 
REMARK    4  A    between atoms: C_7  and  N_8 
REMARK    5  A    between atoms: N_8  and  C_9 
REMARK    6  A    between atoms: C_9  and  C_10 
REMARK    7  A    between atoms: C_18  and  C_19 
REMARK    8  A    between atoms: C_19  and  O_20 
REMARK    9  A    between atoms: O_20  and  C_21 
ROOT
HETATM    1  C   UNL     1     -40.852  55.012 -53.755  1.00  0.00     0.069 A 
HETATM    2  C   UNL     1     -40.959  54.182 -52.639  1.00  0.00     0.038 A 
HETATM    3  C   UNL     1     -40.664  52.817 -52.748  1.00  0.00     0.025 A 
HETATM    4  C   UNL     1     -40.264  52.275 -53.974  1.00  0.00     0.044 A 
HETATM    5  C   UNL     1     -39.965  50.878 -54.082  1.00  0.00     0.099 C 
HETATM    6  N   UNL     1     -39.725  49.744 -54.166  1.00  0.00    -0.191 NA
HETATM    7  C   UNL     1     -40.159  53.105 -55.093  1.00  0.00     0.025 A 
HETATM    8  C   UNL     1     -40.450  54.466 -54.979  1.00  0.00     0.038 A 
ENDROOT
BRANCH   1   9
HETATM    9  O   UNL     1     -41.101  56.354 -53.788  1.00  0.00    -0.347 OA
BRANCH   9  10
HETATM   10  C   UNL     1     -41.276  57.023 -52.542  1.00  0.00     0.214 C 
BRANCH  10  11
HETATM   11  C   UNL     1     -42.645  57.660 -52.563  1.00  0.00    -0.033 A 
HETATM   12  C   UNL     1     -43.097  58.318 -53.721  1.00  0.00     0.026 A 
HETATM   13  C   UNL     1     -44.385  58.867 -53.775  1.00  0.00     0.034 A 
HETATM   14  C   UNL     1     -45.214  58.773 -52.649  1.00  0.00     0.017 A 
HETATM   15  C   UNL     1     -44.774  58.120 -51.497  1.00  0.00     0.002 A 
HETATM   16  C   UNL     1     -43.499  57.557 -51.457  1.00  0.00     0.009 A 
BRANCH  13  17
HETATM   17  C   UNL     1     -44.930  59.547 -54.987  1.00  0.00     0.270 C 
HETATM   18  N   UNL     1     -44.924  58.831 -56.168  1.00  0.00    -0.264 N 
HETATM   19  H   UNL     1     -44.661  57.855 -56.256  1.00  0.00     0.190 HD
HETATM   20  O   UNL     1     -45.385  60.687 -54.919  1.00  0.00    -0.266 OA
BRANCH  18  21
HETATM   21  N   UNL     1     -45.527  59.411 -57.292  1.00  0.00    -0.274 N 
HETATM   22  H   UNL     1     -44.865  59.801 -57.960  1.00  0.00     0.189 HD
BRANCH  21  23
HETATM   23  C   UNL     1     -46.764  58.998 -57.719  1.00  0.00     0.186 C 
HETATM   24  S   UNL     1     -48.072  60.005 -57.999  1.00  0.00    -0.040 SA
BRANCH  23  25
HETATM   25  N   UNL     1     -46.894  57.668 -57.992  1.00  0.00    -0.364 N 
HETATM   26  H   UNL     1     -47.407  57.158 -57.275  1.00  0.00     0.162 HD
BRANCH  25  27
HETATM   27  C   UNL     1     -46.931  57.060 -59.317  1.00  0.00     0.154 C 
BRANCH  27  28
HETATM   28  C   UNL     1     -45.528  56.698 -59.806  1.00  0.00     0.139 C 
HETATM   29  O   UNL     1     -44.590  56.786 -58.719  1.00  0.00    -0.384 OA
HETATM   30  C   UNL     1     -43.466  55.981 -59.090  1.00  0.00     0.168 C 
HETATM   31  C   UNL     1     -44.002  54.858 -59.955  1.00  0.00     0.029 C 
HETATM   32  C   UNL     1     -45.419  55.268 -60.302  1.00  0.00     0.035 C 
ENDBRANCH  27  28
ENDBRANCH  25  27
ENDBRANCH  23  25
ENDBRANCH  21  23
ENDBRANCH  18  21
ENDBRANCH  13  17
ENDBRANCH  10  11
ENDBRANCH   9  10
ENDBRANCH   1   9
TORSDOF 9
ENDMDL
MODEL 8
REMARK VINA RESULT:      -6.8      3.183      4.519
REMARK  9 active torsions:
REMARK  status: ('A' for Active; 'I' for Inactive)
REMARK    1  A    between atoms: C_3  and  C_4 
REMARK       I    between atoms: C_4  and  N_5 
REMARK    2  A    between atoms: N_5  and  N_6 
REMARK    3  A    between atoms: N_6  and  C_7 
REMARK    4  A    between atoms: C_7  and  N_8 
REMARK    5  A    between atoms: N_8  and  C_9 
REMARK    6  A    between atoms: C_9  and  C_10 
REMARK    7  A    between atoms: C_18  and  C_19 
REMARK    8  A    between atoms: C_19  and  O_20 
REMARK    9  A    between atoms: O_20  and  C_21 
ROOT
HETATM    1  C   UNL     1     -41.654  53.661 -52.941  1.00  0.00     0.069 A 
HETATM    2  C   UNL     1     -40.405  53.240 -52.485  1.00  0.00     0.038 A 
HETATM    3  C   UNL     1     -40.118  53.252 -51.114  1.00  0.00     0.025 A 
HETATM    4  C   UNL     1     -41.077  53.688 -50.193  1.00  0.00     0.044 A 
HETATM    5  C   UNL     1     -40.778  53.700 -48.791  1.00  0.00     0.099 C 
HETATM    6  N   UNL     1     -40.531  53.710 -47.657  1.00  0.00    -0.191 NA
HETATM    7  C   UNL     1     -42.327  54.112 -50.649  1.00  0.00     0.025 A 
HETATM    8  C   UNL     1     -42.611  54.096 -52.017  1.00  0.00     0.038 A 
ENDROOT
BRANCH   1   9
HETATM    9  O   UNL     1     -42.068  53.695 -54.241  1.00  0.00    -0.347 OA
BRANCH   9  10
HETATM   10  C   UNL     1     -41.220  54.343 -55.187  1.00  0.00     0.214 C 
BRANCH  10  11
HETATM   11  C   UNL     1     -41.475  55.827 -55.074  1.00  0.00    -0.033 A 
HETATM   12  C   UNL     1     -42.291  56.475 -56.017  1.00  0.00     0.026 A 
HETATM   13  C   UNL     1     -42.581  57.841 -55.895  1.00  0.00     0.034 A 
HETATM   14  C   UNL     1     -42.025  58.563 -54.830  1.00  0.00     0.017 A 
HETATM   15  C   UNL     1     -41.215  57.926 -53.889  1.00  0.00     0.002 A 
HETATM   16  C   UNL     1     -40.949  56.563 -54.004  1.00  0.00     0.009 A 
BRANCH  13  17
HETATM   17  C   UNL     1     -43.467  58.573 -56.847  1.00  0.00     0.270 C 
HETATM   18  N   UNL     1     -44.810  58.252 -56.833  1.00  0.00    -0.264 N 
HETATM   19  H   UNL     1     -45.251  57.625 -56.170  1.00  0.00     0.190 HD
HETATM   20  O   UNL     1     -43.013  59.442 -57.590  1.00  0.00    -0.266 OA
BRANCH  18  21
HETATM   21  N   UNL     1     -45.674  59.002 -57.642  1.00  0.00    -0.274 N 
HETATM   22  H   UNL     1     -45.390  59.973 -57.760  1.00  0.00     0.189 HD
BRANCH  21  23
HETATM   23  C   UNL     1     -46.441  58.394 -58.604  1.00  0.00     0.186 C 
HETATM   24  S   UNL     1     -47.506  59.183 -59.626  1.00  0.00    -0.040 SA
BRANCH  23  25
HETATM   25  N   UNL     1     -46.256  57.052 -58.763  1.00  0.00    -0.364 N 
HETATM   26  H   UNL     1     -46.656  56.499 -58.008  1.00  0.00     0.162 HD
BRANCH  25  27
HETATM   27  C   UNL     1     -46.122  56.346 -60.032  1.00  0.00     0.154 C 
BRANCH  27  28
HETATM   28  C   UNL     1     -44.657  56.227 -60.453  1.00  0.00     0.139 C 
HETATM   29  O   UNL     1     -44.050  57.530 -60.500  1.00  0.00    -0.384 OA
HETATM   30  C   UNL     1     -42.639  57.323 -60.395  1.00  0.00     0.168 C 
HETATM   31  C   UNL     1     -42.444  56.080 -59.550  1.00  0.00     0.029 C 
HETATM   32  C   UNL     1     -43.814  55.440 -59.467  1.00  0.00     0.035 C 
ENDBRANCH  27  28
ENDBRANCH  25  27
ENDBRANCH  23  25
ENDBRANCH  21  23
ENDBRANCH  18  21
ENDBRANCH  13  17
ENDBRANCH  10  11
ENDBRANCH   9  10
ENDBRANCH   1   9
TORSDOF 9
ENDMDL
MODEL 9
REMARK VINA RESULT:      -6.8      2.893      3.904
REMARK  9 active torsions:
REMARK  status: ('A' for Active; 'I' for Inactive)
REMARK    1  A    between atoms: C_3  and  C_4 
REMARK       I    between atoms: C_4  and  N_5 
REMARK    2  A    between atoms: N_5  and  N_6 
REMARK    3  A    between atoms: N_6  and  C_7 
REMARK    4  A    between atoms: C_7  and  N_8 
REMARK    5  A    between atoms: N_8  and  C_9 
REMARK    6  A    between atoms: C_9  and  C_10 
REMARK    7  A    between atoms: C_18  and  C_19 
REMARK    8  A    between atoms: C_19  and  O_20 
REMARK    9  A    between atoms: O_20  and  C_21 
ROOT
HETATM    1  C   UNL     1     -40.837  54.077 -52.272  1.00  0.00     0.069 A 
HETATM    2  C   UNL     1     -41.157  53.729 -53.584  1.00  0.00     0.038 A 
HETATM    3  C   UNL     1     -40.754  52.490 -54.099  1.00  0.00     0.025 A 
HETATM    4  C   UNL     1     -40.028  51.595 -53.306  1.00  0.00     0.044 A 
HETATM    5  C   UNL     1     -39.617  50.329 -53.837  1.00  0.00     0.099 C 
HETATM    6  N   UNL     1     -39.284  49.305 -54.272  1.00  0.00    -0.191 NA
HETATM    7  C   UNL     1     -39.706  51.945 -51.992  1.00  0.00     0.025 A 
HETATM    8  C   UNL     1     -40.112  53.179 -51.481  1.00  0.00     0.038 A 
ENDROOT
BRANCH   1   9
HETATM    9  O   UNL     1     -41.170  55.243 -51.644  1.00  0.00    -0.347 OA
BRANCH   9  10
HETATM   10  C   UNL     1     -42.474  55.336 -51.075  1.00  0.00     0.214 C 
BRANCH  10  11
HETATM   11  C   UNL     1     -43.184  56.476 -51.766  1.00  0.00    -0.033 A 
HETATM   12  C   UNL     1     -42.774  56.888 -53.046  1.00  0.00     0.026 A 
HETATM   13  C   UNL     1     -43.457  57.908 -53.722  1.00  0.00     0.034 A 
HETATM   14  C   UNL     1     -44.544  58.532 -53.095  1.00  0.00     0.017 A 
HETATM   15  C   UNL     1     -44.958  58.127 -51.825  1.00  0.00     0.002 A 
HETATM   16  C   UNL     1     -44.288  57.097 -51.168  1.00  0.00     0.009 A 
BRANCH  13  17
HETATM   17  C   UNL     1     -43.087  58.364 -55.094  1.00  0.00     0.270 C 
HETATM   18  N   UNL     1     -42.942  57.392 -56.065  1.00  0.00    -0.264 N 
HETATM   19  H   UNL     1     -43.151  56.408 -55.938  1.00  0.00     0.190 HD
HETATM   20  O   UNL     1     -42.946  59.560 -55.345  1.00  0.00    -0.266 OA
BRANCH  18  21
HETATM   21  N   UNL     1     -42.700  57.808 -57.381  1.00  0.00    -0.274 N 
HETATM   22  H   UNL     1     -41.725  58.031 -57.570  1.00  0.00     0.189 HD
BRANCH  21  23
HETATM   23  C   UNL     1     -43.520  57.409 -58.406  1.00  0.00     0.186 C 
HETATM   24  S   UNL     1     -43.036  57.176 -59.991  1.00  0.00    -0.040 SA
BRANCH  23  25
HETATM   25  N   UNL     1     -44.811  57.125 -58.069  1.00  0.00    -0.364 N 
HETATM   26  H   UNL     1     -44.901  56.295 -57.487  1.00  0.00     0.162 HD
BRANCH  25  27
HETATM   27  C   UNL     1     -45.897  58.089 -57.929  1.00  0.00     0.154 C 
BRANCH  27  28
HETATM   28  C   UNL     1     -46.975  57.874 -58.992  1.00  0.00     0.139 C 
HETATM   29  O   UNL     1     -46.839  58.851 -60.038  1.00  0.00    -0.384 OA
HETATM   30  C   UNL     1     -47.500  58.310 -61.185  1.00  0.00     0.168 C 
HETATM   31  C   UNL     1     -47.354  56.804 -61.101  1.00  0.00     0.029 C 
HETATM   32  C   UNL     1     -46.863  56.533 -59.694  1.00  0.00     0.035 C 
ENDBRANCH  27  28
ENDBRANCH  25  27
ENDBRANCH  23  25
ENDBRANCH  21  23
ENDBRANCH  18  21
ENDBRANCH  13  17
ENDBRANCH  10  11
ENDBRANCH   9  10
ENDBRANCH   1   9
TORSDOF 9
ENDMDL
MODEL 10
REMARK VINA RESULT:      -6.7      3.092      6.223
REMARK  9 active torsions:
REMARK  status: ('A' for Active; 'I' for Inactive)
REMARK    1  A    between atoms: C_3  and  C_4 
REMARK       I    between atoms: C_4  and  N_5 
REMARK    2  A    between atoms: N_5  and  N_6 
REMARK    3  A    between atoms: N_6  and  C_7 
REMARK    4  A    between atoms: C_7  and  N_8 
REMARK    5  A    between atoms: N_8  and  C_9 
REMARK    6  A    between atoms: C_9  and  C_10 
REMARK    7  A    between atoms: C_18  and  C_19 
REMARK    8  A    between atoms: C_19  and  O_20 
REMARK    9  A    between atoms: O_20  and  C_21 
ROOT
HETATM    1  C   UNL     1     -42.935  56.074 -57.356  1.00  0.00     0.069 A 
HETATM    2  C   UNL     1     -43.160  55.757 -58.695  1.00  0.00     0.038 A 
HETATM    3  C   UNL     1     -42.889  56.700 -59.695  1.00  0.00     0.025 A 
HETATM    4  C   UNL     1     -42.395  57.965 -59.360  1.00  0.00     0.044 A 
HETATM    5  C   UNL     1     -42.120  58.927 -60.386  1.00  0.00     0.099 C 
HETATM    6  N   UNL     1     -41.901  59.705 -61.220  1.00  0.00    -0.191 NA
HETATM    7  C   UNL     1     -42.171  58.284 -58.018  1.00  0.00     0.025 A 
HETATM    8  C   UNL     1     -42.439  57.339 -57.025  1.00  0.00     0.038 A 
ENDROOT
BRANCH   1   9
HETATM    9  O   UNL     1     -43.148  55.252 -56.286  1.00  0.00    -0.347 OA
BRANCH   9  10
HETATM   10  C   UNL     1     -42.010  54.624 -55.701  1.00  0.00     0.214 C 
BRANCH  10  11
HETATM   11  C   UNL     1     -42.181  54.692 -54.203  1.00  0.00    -0.033 A 
HETATM   12  C   UNL     1     -43.045  55.646 -53.635  1.00  0.00     0.026 A 
HETATM   13  C   UNL     1     -43.255  55.686 -52.250  1.00  0.00     0.034 A 
HETATM   14  C   UNL     1     -42.573  54.777 -51.430  1.00  0.00     0.017 A 
HETATM   15  C   UNL     1     -41.716  53.827 -51.986  1.00  0.00     0.002 A 
HETATM   16  C   UNL     1     -41.528  53.777 -53.366  1.00  0.00     0.009 A 
BRANCH  13  17
HETATM   17  C   UNL     1     -44.185  56.654 -51.597  1.00  0.00     0.270 C 
HETATM   18  N   UNL     1     -44.450  57.829 -52.273  1.00  0.00    -0.264 N 
HETATM   19  H   UNL     1     -44.133  58.044 -53.211  1.00  0.00     0.190 HD
HETATM   20  O   UNL     1     -44.707  56.394 -50.514  1.00  0.00    -0.266 OA
BRANCH  18  21
HETATM   21  N   UNL     1     -45.401  58.701 -51.727  1.00  0.00    -0.274 N 
HETATM   22  H   UNL     1     -45.839  58.354 -50.876  1.00  0.00     0.189 HD
BRANCH  21  23
HETATM   23  C   UNL     1     -45.329  60.052 -51.955  1.00  0.00     0.186 C 
HETATM   24  S   UNL     1     -46.645  61.062 -52.182  1.00  0.00    -0.040 SA
BRANCH  23  25
HETATM   25  N   UNL     1     -44.081  60.602 -51.926  1.00  0.00    -0.364 N 
HETATM   26  H   UNL     1     -43.594  60.446 -51.047  1.00  0.00     0.162 HD
BRANCH  25  27
HETATM   27  C   UNL     1     -43.211  60.823 -53.076  1.00  0.00     0.154 C 
BRANCH  27  28
HETATM   28  C   UNL     1     -41.838  60.181 -52.868  1.00  0.00     0.139 C 
HETATM   29  O   UNL     1     -41.845  59.377 -51.676  1.00  0.00    -0.384 OA
HETATM   30  C   UNL     1     -40.768  58.445 -51.811  1.00  0.00     0.168 C 
HETATM   31  C   UNL     1     -40.620  58.163 -53.292  1.00  0.00     0.029 C 
HETATM   32  C   UNL     1     -41.452  59.224 -53.982  1.00  0.00     0.035 C 
ENDBRANCH  27  28
ENDBRANCH  25  27
ENDBRANCH  23  25
ENDBRANCH  21  23
ENDBRANCH  18  21
ENDBRANCH  13  17
ENDBRANCH  10  11
ENDBRANCH   9  10
ENDBRANCH   1   9
TORSDOF 9
ENDMDL
