MODEL 1
REMARK VINA RESULT:      -8.1      0.000      0.000
REMARK  4 active torsions:
REMARK  status: ('A' for Active; 'I' for Inactive)
REMARK    1  A    between atoms: C_7  and  C_8 
REMARK    2  A    between atoms: C_8  and  N_9 
REMARK    3  A    between atoms: N_15  and  C_17 
REMARK    4  A    between atoms: C_17  and  C_18 
ROOT
HETATM    1  N   UNL     1     -43.775  56.372 -56.036  1.00  0.00    -0.067 N 
HETATM    2  H   UNL     1     -44.099  55.554 -56.569  1.00  0.00     0.280 HD
HETATM    3  C   UNL     1     -42.366  56.039 -55.618  1.00  0.00     0.236 C 
HETATM    4  C   UNL     1     -41.842  57.058 -54.609  1.00  0.00     0.039 C 
HETATM    5  C   UNL     1     -42.744  57.226 -53.354  1.00  0.00    -0.013 C 
HETATM    6  C   UNL     1     -42.724  55.982 -52.428  1.00  0.00     0.244 C 
HETATM    7  N   UNL     1     -41.367  55.791 -51.809  1.00  0.00    -0.065 N 
HETATM    8  H   UNL     1     -40.670  55.653 -52.561  1.00  0.00     0.280 HD
HETATM    9  C   UNL     1     -40.933  56.953 -50.962  1.00  0.00     0.235 C 
HETATM   10  C   UNL     1     -40.933  58.215 -51.813  1.00  0.00     0.029 C 
HETATM   11  C   UNL     1     -42.272  58.444 -52.515  1.00  0.00     0.013 C 
HETATM   12  C   UNL     1     -44.195  57.501 -53.845  1.00  0.00     0.039 C 
HETATM   13  C   UNL     1     -44.718  56.496 -54.872  1.00  0.00     0.236 C 
ENDROOT
BRANCH   7  14
HETATM   14  C   UNL     1     -41.247  54.451 -51.077  1.00  0.00     0.293 C 
BRANCH  14  15
HETATM   15  C   UNL     1     -40.601  53.409 -51.968  1.00  0.00     0.060 A 
HETATM   16  N   UNL     1     -39.956  52.384 -51.327  1.00  0.00    -0.264 NA
HETATM   17  C   UNL     1     -39.442  51.408 -52.117  1.00  0.00     0.117 A 
HETATM   18  C   UNL     1     -39.497  51.424 -53.499  1.00  0.00     0.019 A 
HETATM   19  C   UNL     1     -40.136  52.489 -54.123  1.00  0.00     0.003 A 
HETATM   20  C   UNL     1     -40.710  53.495 -53.352  1.00  0.00     0.029 A 
ENDBRANCH  14  15
ENDBRANCH   7  14
BRANCH   1  21
HETATM   21  C   UNL     1     -43.907  57.510 -57.048  1.00  0.00     0.278 C 
BRANCH  21  22
HETATM   22  C   UNL     1     -43.144  57.290 -58.296  1.00  0.00     0.025 A 
HETATM   23  C   UNL     1     -42.152  58.137 -58.871  1.00  0.00     0.068 A 
HETATM   24  C   UNL     1     -41.659  59.458 -58.411  1.00  0.00     0.073 C 
HETATM   25  N   UNL     1     -41.624  57.585 -59.964  1.00  0.00    -0.133 NA
HETATM   26  O   UNL     1     -42.304  56.410 -60.172  1.00  0.00    -0.217 OA
HETATM   27  C   UNL     1     -43.226  56.238 -59.190  1.00  0.00     0.085 A 
HETATM   28  C   UNL     1     -44.047  55.016 -59.300  1.00  0.00     0.079 C 
ENDBRANCH  21  22
ENDBRANCH   1  21
TORSDOF 4
ENDMDL
MODEL 2
REMARK VINA RESULT:      -8.0      0.434      1.605
REMARK  4 active torsions:
REMARK  status: ('A' for Active; 'I' for Inactive)
REMARK    1  A    between atoms: C_7  and  C_8 
REMARK    2  A    between atoms: C_8  and  N_9 
REMARK    3  A    between atoms: N_15  and  C_17 
REMARK    4  A    between atoms: C_17  and  C_18 
ROOT
HETATM    1  N   UNL     1     -43.961  56.477 -56.064  1.00  0.00    -0.067 N 
HETATM    2  H   UNL     1     -44.326  55.648 -56.553  1.00  0.00     0.280 HD
HETATM    3  C   UNL     1     -42.544  56.128 -55.693  1.00  0.00     0.236 C 
HETATM    4  C   UNL     1     -41.957  57.170 -54.745  1.00  0.00     0.039 C 
HETATM    5  C   UNL     1     -42.801  57.405 -53.462  1.00  0.00    -0.013 C 
HETATM    6  C   UNL     1     -42.769  56.195 -52.491  1.00  0.00     0.244 C 
HETATM    7  N   UNL     1     -41.391  55.995 -51.922  1.00  0.00    -0.065 N 
HETATM    8  H   UNL     1     -40.729  55.814 -52.696  1.00  0.00     0.280 HD
HETATM    9  C   UNL     1     -40.898  57.177 -51.138  1.00  0.00     0.235 C 
HETATM   10  C   UNL     1     -40.906  58.407 -52.035  1.00  0.00     0.029 C 
HETATM   11  C   UNL     1     -42.268  58.640 -52.689  1.00  0.00     0.013 C 
HETATM   12  C   UNL     1     -44.265  57.694 -53.902  1.00  0.00     0.039 C 
HETATM   13  C   UNL     1     -44.852  56.665 -54.868  1.00  0.00     0.236 C 
ENDROOT
BRANCH   7  14
HETATM   14  C   UNL     1     -41.269  54.680 -51.146  1.00  0.00     0.293 C 
BRANCH  14  15
HETATM   15  C   UNL     1     -40.636  53.606 -52.007  1.00  0.00     0.060 A 
HETATM   16  N   UNL     1     -39.986  52.603 -51.338  1.00  0.00    -0.264 NA
HETATM   17  C   UNL     1     -39.482  51.598 -52.099  1.00  0.00     0.117 A 
HETATM   18  C   UNL     1     -39.552  51.566 -53.480  1.00  0.00     0.019 A 
HETATM   19  C   UNL     1     -40.195  52.611 -54.134  1.00  0.00     0.003 A 
HETATM   20  C   UNL     1     -40.758  53.644 -53.392  1.00  0.00     0.029 A 
ENDBRANCH  14  15
ENDBRANCH   7  14
BRANCH   1  21
HETATM   21  C   UNL     1     -44.112  57.580 -57.112  1.00  0.00     0.278 C 
BRANCH  21  22
HETATM   22  C   UNL     1     -43.212  57.424 -58.276  1.00  0.00     0.025 A 
HETATM   23  C   UNL     1     -43.183  56.355 -59.218  1.00  0.00     0.068 A 
HETATM   24  C   UNL     1     -43.998  55.115 -59.262  1.00  0.00     0.073 C 
HETATM   25  N   UNL     1     -42.287  56.584 -60.178  1.00  0.00    -0.133 NA
HETATM   26  O   UNL     1     -41.658  57.761 -59.848  1.00  0.00    -0.217 OA
HETATM   27  C   UNL     1     -42.194  58.257 -58.703  1.00  0.00     0.085 A 
HETATM   28  C   UNL     1     -41.597  59.518 -58.221  1.00  0.00     0.079 C 
ENDBRANCH  21  22
ENDBRANCH   1  21
TORSDOF 4
ENDMDL
MODEL 3
REMARK VINA RESULT:      -7.7      2.891      7.239
REMARK  4 active torsions:
REMARK  status: ('A' for Active; 'I' for Inactive)
REMARK    1  A    between atoms: C_7  and  C_8 
REMARK    2  A    between atoms: C_8  and  N_9 
REMARK    3  A    between atoms: N_15  and  C_17 
REMARK    4  A    between atoms: C_17  and  C_18 
ROOT
HETATM    1  N   UNL     1     -41.064  54.145 -53.513  1.00  0.00    -0.067 N 
HETATM    2  H   UNL     1     -40.884  54.138 -52.500  1.00  0.00     0.280 HD
HETATM    3  C   UNL     1     -40.718  55.540 -53.967  1.00  0.00     0.236 C 
HETATM    4  C   UNL     1     -41.170  55.772 -55.407  1.00  0.00     0.039 C 
HETATM    5  C   UNL     1     -42.679  55.492 -55.648  1.00  0.00    -0.013 C 
HETATM    6  C   UNL     1     -43.602  56.538 -54.967  1.00  0.00     0.244 C 
HETATM    7  N   UNL     1     -43.434  57.895 -55.592  1.00  0.00    -0.065 N 
HETATM    8  H   UNL     1     -42.452  58.199 -55.480  1.00  0.00     0.280 HD
HETATM    9  C   UNL     1     -43.779  57.919 -57.054  1.00  0.00     0.235 C 
HETATM   10  C   UNL     1     -42.907  56.909 -57.787  1.00  0.00     0.029 C 
HETATM   11  C   UNL     1     -42.990  55.513 -57.169  1.00  0.00     0.013 C 
HETATM   12  C   UNL     1     -42.993  54.070 -55.102  1.00  0.00     0.039 C 
HETATM   13  C   UNL     1     -42.524  53.824 -53.668  1.00  0.00     0.236 C 
ENDROOT
BRANCH   7  14
HETATM   14  C   UNL     1     -44.152  58.991 -54.799  1.00  0.00     0.293 C 
BRANCH  14  15
HETATM   15  C   UNL     1     -43.431  59.268 -53.494  1.00  0.00     0.060 A 
HETATM   16  N   UNL     1     -44.220  59.354 -52.377  1.00  0.00    -0.264 NA
HETATM   17  C   UNL     1     -43.574  59.525 -51.196  1.00  0.00     0.117 A 
HETATM   18  C   UNL     1     -42.202  59.660 -51.078  1.00  0.00     0.019 A 
HETATM   19  C   UNL     1     -41.430  59.595 -52.232  1.00  0.00     0.003 A 
HETATM   20  C   UNL     1     -42.046  59.384 -53.461  1.00  0.00     0.029 A 
ENDBRANCH  14  15
ENDBRANCH   7  14
BRANCH   1  21
HETATM   21  C   UNL     1     -40.142  53.041 -54.028  1.00  0.00     0.278 C 
BRANCH  21  22
HETATM   22  C   UNL     1     -39.929  51.942 -53.061  1.00  0.00     0.025 A 
HETATM   23  C   UNL     1     -39.771  50.553 -53.341  1.00  0.00     0.068 A 
HETATM   24  C   UNL     1     -39.819  49.842 -54.642  1.00  0.00     0.073 C 
HETATM   25  N   UNL     1     -39.526  49.863 -52.227  1.00  0.00    -0.133 NA
HETATM   26  O   UNL     1     -39.594  50.763 -51.191  1.00  0.00    -0.217 OA
HETATM   27  C   UNL     1     -39.853  52.002 -51.681  1.00  0.00     0.085 A 
HETATM   28  C   UNL     1     -39.971  53.071 -50.669  1.00  0.00     0.079 C 
ENDBRANCH  21  22
ENDBRANCH   1  21
TORSDOF 4
ENDMDL
MODEL 4
REMARK VINA RESULT:      -7.5      2.634      7.329
REMARK  4 active torsions:
REMARK  status: ('A' for Active; 'I' for Inactive)
REMARK    1  A    between atoms: C_7  and  C_8 
REMARK    2  A    between atoms: C_8  and  N_9 
REMARK    3  A    between atoms: N_15  and  C_17 
REMARK    4  A    between atoms: C_17  and  C_18 
ROOT
HETATM    1  N   UNL     1     -42.227  54.488 -53.862  1.00  0.00    -0.067 N 
HETATM    2  H   UNL     1     -41.758  53.672 -54.277  1.00  0.00     0.280 HD
HETATM    3  C   UNL     1     -43.462  54.703 -54.697  1.00  0.00     0.236 C 
HETATM    4  C   UNL     1     -44.130  56.032 -54.350  1.00  0.00     0.039 C 
HETATM    5  C   UNL     1     -43.188  57.262 -54.467  1.00  0.00    -0.013 C 
HETATM    6  C   UNL     1     -42.809  57.593 -55.935  1.00  0.00     0.244 C 
HETATM    7  N   UNL     1     -44.012  58.050 -56.713  1.00  0.00    -0.065 N 
HETATM    8  H   UNL     1     -44.718  57.294 -56.717  1.00  0.00     0.280 HD
HETATM    9  C   UNL     1     -44.643  59.291 -56.152  1.00  0.00     0.235 C 
HETATM   10  C   UNL     1     -45.039  59.036 -54.704  1.00  0.00     0.029 C 
HETATM   11  C   UNL     1     -43.871  58.518 -53.864  1.00  0.00     0.013 C 
HETATM   12  C   UNL     1     -41.904  56.958 -53.643  1.00  0.00     0.039 C 
HETATM   13  C   UNL     1     -41.242  55.619 -53.970  1.00  0.00     0.236 C 
ENDROOT
BRANCH   7  14
HETATM   14  C   UNL     1     -43.723  58.162 -58.213  1.00  0.00     0.293 C 
BRANCH  14  15
HETATM   15  C   UNL     1     -44.298  56.974 -58.960  1.00  0.00     0.060 A 
HETATM   16  N   UNL     1     -45.463  57.200 -59.646  1.00  0.00    -0.264 NA
HETATM   17  C   UNL     1     -45.942  56.163 -60.378  1.00  0.00     0.117 A 
HETATM   18  C   UNL     1     -45.351  54.912 -60.424  1.00  0.00     0.019 A 
HETATM   19  C   UNL     1     -44.184  54.705 -59.698  1.00  0.00     0.003 A 
HETATM   20  C   UNL     1     -43.637  55.751 -58.961  1.00  0.00     0.029 A 
ENDBRANCH  14  15
ENDBRANCH   7  14
BRANCH   1  21
HETATM   21  C   UNL     1     -42.479  54.038 -52.423  1.00  0.00     0.278 C 
BRANCH  21  22
HETATM   22  C   UNL     1     -41.242  53.853 -51.631  1.00  0.00     0.025 A 
HETATM   23  C   UNL     1     -40.832  54.578 -50.475  1.00  0.00     0.068 A 
HETATM   24  C   UNL     1     -41.493  55.717 -49.792  1.00  0.00     0.073 C 
HETATM   25  N   UNL     1     -39.694  54.090 -49.980  1.00  0.00    -0.133 NA
HETATM   26  O   UNL     1     -39.295  53.093 -50.838  1.00  0.00    -0.217 OA
HETATM   27  C   UNL     1     -40.207  52.960 -51.836  1.00  0.00     0.085 A 
HETATM   28  C   UNL     1     -39.893  51.929 -52.845  1.00  0.00     0.079 C 
ENDBRANCH  21  22
ENDBRANCH   1  21
TORSDOF 4
ENDMDL
MODEL 5
REMARK VINA RESULT:      -7.4      2.710      7.360
REMARK  4 active torsions:
REMARK  status: ('A' for Active; 'I' for Inactive)
REMARK    1  A    between atoms: C_7  and  C_8 
REMARK    2  A    between atoms: C_8  and  N_9 
REMARK    3  A    between atoms: N_15  and  C_17 
REMARK    4  A    between atoms: C_17  and  C_18 
ROOT
HETATM    1  N   UNL     1     -41.900  54.485 -54.175  1.00  0.00    -0.067 N 
HETATM    2  H   UNL     1     -41.411  53.732 -54.678  1.00  0.00     0.280 HD
HETATM    3  C   UNL     1     -43.209  54.660 -54.900  1.00  0.00     0.236 C 
HETATM    4  C   UNL     1     -43.937  55.912 -54.417  1.00  0.00     0.039 C 
HETATM    5  C   UNL     1     -43.092  57.213 -54.521  1.00  0.00    -0.013 C 
HETATM    6  C   UNL     1     -42.854  57.660 -55.988  1.00  0.00     0.244 C 
HETATM    7  N   UNL     1     -44.144  58.074 -56.643  1.00  0.00    -0.065 N 
HETATM    8  H   UNL     1     -44.795  57.270 -56.644  1.00  0.00     0.280 HD
HETATM    9  C   UNL     1     -44.812  59.230 -55.954  1.00  0.00     0.235 C 
HETATM   10  C   UNL     1     -45.074  58.858 -54.501  1.00  0.00     0.029 C 
HETATM   11  C   UNL     1     -43.810  58.377 -53.787  1.00  0.00     0.013 C 
HETATM   12  C   UNL     1     -41.730  56.954 -53.817  1.00  0.00     0.039 C 
HETATM   13  C   UNL     1     -41.006  55.690 -54.281  1.00  0.00     0.236 C 
ENDROOT
BRANCH   7  14
HETATM   14  C   UNL     1     -43.983  58.298 -58.149  1.00  0.00     0.293 C 
BRANCH  14  15
HETATM   15  C   UNL     1     -44.441  57.079 -58.925  1.00  0.00     0.060 A 
HETATM   16  N   UNL     1     -45.727  57.113 -59.396  1.00  0.00    -0.264 NA
HETATM   17  C   UNL     1     -46.119  56.059 -60.156  1.00  0.00     0.117 A 
HETATM   18  C   UNL     1     -45.318  54.963 -60.427  1.00  0.00     0.019 A 
HETATM   19  C   UNL     1     -44.026  54.945 -59.914  1.00  0.00     0.003 A 
HETATM   20  C   UNL     1     -43.570  56.021 -59.161  1.00  0.00     0.029 A 
ENDBRANCH  14  15
ENDBRANCH   7  14
BRANCH   1  21
HETATM   21  C   UNL     1     -42.006  53.931 -52.755  1.00  0.00     0.278 C 
BRANCH  21  22
HETATM   22  C   UNL     1     -40.828  53.141 -52.334  1.00  0.00     0.025 A 
HETATM   23  C   UNL     1     -40.212  52.059 -53.028  1.00  0.00     0.068 A 
HETATM   24  C   UNL     1     -40.600  51.417 -54.308  1.00  0.00     0.073 C 
HETATM   25  N   UNL     1     -39.126  51.631 -52.384  1.00  0.00    -0.133 NA
HETATM   26  O   UNL     1     -39.049  52.364 -51.224  1.00  0.00    -0.217 OA
HETATM   27  C   UNL     1     -40.074  53.254 -51.180  1.00  0.00     0.085 A 
HETATM   28  C   UNL     1     -40.124  54.101 -49.972  1.00  0.00     0.079 C 
ENDBRANCH  21  22
ENDBRANCH   1  21
TORSDOF 4
ENDMDL
MODEL 6
REMARK VINA RESULT:      -6.9      2.711      7.507
REMARK  4 active torsions:
REMARK  status: ('A' for Active; 'I' for Inactive)
REMARK    1  A    between atoms: C_7  and  C_8 
REMARK    2  A    between atoms: C_8  and  N_9 
REMARK    3  A    between atoms: N_15  and  C_17 
REMARK    4  A    between atoms: C_17  and  C_18 
ROOT
HETATM    1  N   UNL     1     -41.118  54.506 -54.324  1.00  0.00    -0.067 N 
HETATM    2  H   UNL     1     -40.197  54.188 -54.658  1.00  0.00     0.280 HD
HETATM    3  C   UNL     1     -41.844  54.982 -55.555  1.00  0.00     0.236 C 
HETATM    4  C   UNL     1     -43.132  55.711 -55.180  1.00  0.00     0.039 C 
HETATM    5  C   UNL     1     -42.923  56.894 -54.194  1.00  0.00    -0.013 C 
HETATM    6  C   UNL     1     -42.182  58.094 -54.841  1.00  0.00     0.244 C 
HETATM    7  N   UNL     1     -43.020  58.731 -55.915  1.00  0.00    -0.065 N 
HETATM    8  H   UNL     1     -43.217  58.029 -56.650  1.00  0.00     0.280 HD
HETATM    9  C   UNL     1     -44.327  59.268 -55.406  1.00  0.00     0.235 C 
HETATM   10  C   UNL     1     -45.109  58.137 -54.753  1.00  0.00     0.029 C 
HETATM   11  C   UNL     1     -44.294  57.410 -53.681  1.00  0.00     0.013 C 
HETATM   12  C   UNL     1     -42.113  56.362 -52.977  1.00  0.00     0.039 C 
HETATM   13  C   UNL     1     -40.833  55.612 -53.347  1.00  0.00     0.236 C 
ENDROOT
BRANCH   7  14
HETATM   14  C   UNL     1     -42.234  59.764 -56.727  1.00  0.00     0.293 C 
BRANCH  14  15
HETATM   15  C   UNL     1     -42.198  59.380 -58.193  1.00  0.00     0.060 A 
HETATM   16  N   UNL     1     -42.218  60.417 -59.088  1.00  0.00    -0.264 NA
HETATM   17  C   UNL     1     -42.109  60.083 -60.399  1.00  0.00     0.117 A 
HETATM   18  C   UNL     1     -42.028  58.781 -60.861  1.00  0.00     0.019 A 
HETATM   19  C   UNL     1     -42.036  57.748 -59.930  1.00  0.00     0.003 A 
HETATM   20  C   UNL     1     -42.109  58.045 -58.574  1.00  0.00     0.029 A 
ENDBRANCH  14  15
ENDBRANCH   7  14
BRANCH   1  21
HETATM   21  C   UNL     1     -41.691  53.250 -53.669  1.00  0.00     0.278 C 
BRANCH  21  22
HETATM   22  C   UNL     1     -40.739  52.557 -52.772  1.00  0.00     0.025 A 
HETATM   23  C   UNL     1     -39.890  51.456 -53.088  1.00  0.00     0.068 A 
HETATM   24  C   UNL     1     -39.764  50.695 -54.355  1.00  0.00     0.073 C 
HETATM   25  N   UNL     1     -39.113  51.137 -52.052  1.00  0.00    -0.133 NA
HETATM   26  O   UNL     1     -39.486  51.963 -51.019  1.00  0.00    -0.217 OA
HETATM   27  C   UNL     1     -40.470  52.800 -51.438  1.00  0.00     0.085 A 
HETATM   28  C   UNL     1     -40.980  53.737 -50.418  1.00  0.00     0.079 C 
ENDBRANCH  21  22
ENDBRANCH   1  21
TORSDOF 4
ENDMDL
MODEL 7
REMARK VINA RESULT:      -6.9      4.013      8.253
REMARK  4 active torsions:
REMARK  status: ('A' for Active; 'I' for Inactive)
REMARK    1  A    between atoms: C_7  and  C_8 
REMARK    2  A    between atoms: C_8  and  N_9 
REMARK    3  A    between atoms: N_15  and  C_17 
REMARK    4  A    between atoms: C_17  and  C_18 
ROOT
HETATM    1  N   UNL     1     -41.829  56.502 -50.287  1.00  0.00    -0.067 N 
HETATM    2  H   UNL     1     -41.776  56.408 -49.263  1.00  0.00     0.280 HD
HETATM    3  C   UNL     1     -41.942  57.981 -50.545  1.00  0.00     0.236 C 
HETATM    4  C   UNL     1     -42.278  58.255 -52.009  1.00  0.00     0.039 C 
HETATM    5  C   UNL     1     -43.556  57.529 -52.510  1.00  0.00    -0.013 C 
HETATM    6  C   UNL     1     -44.857  58.099 -51.886  1.00  0.00     0.244 C 
HETATM    7  N   UNL     1     -45.104  59.510 -52.344  1.00  0.00    -0.065 N 
HETATM    8  H   UNL     1     -44.309  60.103 -52.051  1.00  0.00     0.280 HD
HETATM    9  C   UNL     1     -45.265  59.629 -53.833  1.00  0.00     0.235 C 
HETATM   10  C   UNL     1     -44.018  59.082 -54.513  1.00  0.00     0.029 C 
HETATM   11  C   UNL     1     -43.678  57.663 -54.052  1.00  0.00     0.013 C 
HETATM   12  C   UNL     1     -43.415  56.020 -52.159  1.00  0.00     0.039 C 
HETATM   13  C   UNL     1     -43.058  55.739 -50.699  1.00  0.00     0.236 C 
ENDROOT
BRANCH   7  14
HETATM   14  C   UNL     1     -46.245  60.179 -51.572  1.00  0.00     0.293 C 
BRANCH  14  15
HETATM   15  C   UNL     1     -45.714  60.898 -50.348  1.00  0.00     0.060 A 
HETATM   16  N   UNL     1     -46.022  60.334 -49.138  1.00  0.00    -0.264 NA
HETATM   17  C   UNL     1     -45.487  60.928 -48.041  1.00  0.00     0.117 A 
HETATM   18  C   UNL     1     -44.707  62.070 -48.086  1.00  0.00     0.019 A 
HETATM   19  C   UNL     1     -44.432  62.635 -49.326  1.00  0.00     0.003 A 
HETATM   20  C   UNL     1     -44.930  62.039 -50.479  1.00  0.00     0.029 A 
ENDBRANCH  14  15
ENDBRANCH   7  14
BRANCH   1  21
HETATM   21  C   UNL     1     -40.527  55.852 -50.754  1.00  0.00     0.278 C 
BRANCH  21  22
HETATM   22  C   UNL     1     -40.488  54.386 -50.558  1.00  0.00     0.025 A 
HETATM   23  C   UNL     1     -40.536  53.372 -51.559  1.00  0.00     0.068 A 
HETATM   24  C   UNL     1     -40.680  53.504 -53.029  1.00  0.00     0.073 C 
HETATM   25  N   UNL     1     -40.406  52.159 -51.020  1.00  0.00    -0.133 NA
HETATM   26  O   UNL     1     -40.347  52.343 -49.660  1.00  0.00    -0.217 OA
HETATM   27  C   UNL     1     -40.415  53.670 -49.377  1.00  0.00     0.085 A 
HETATM   28  C   UNL     1     -40.381  54.013 -47.942  1.00  0.00     0.079 C 
ENDBRANCH  21  22
ENDBRANCH   1  21
TORSDOF 4
ENDMDL
MODEL 8
REMARK VINA RESULT:      -6.7      2.669      7.931
REMARK  4 active torsions:
REMARK  status: ('A' for Active; 'I' for Inactive)
REMARK    1  A    between atoms: C_7  and  C_8 
REMARK    2  A    between atoms: C_8  and  N_9 
REMARK    3  A    between atoms: N_15  and  C_17 
REMARK    4  A    between atoms: C_17  and  C_18 
ROOT
HETATM    1  N   UNL     1     -41.422  54.382 -54.161  1.00  0.00    -0.067 N 
HETATM    2  H   UNL     1     -40.877  53.547 -54.416  1.00  0.00     0.280 HD
HETATM    3  C   UNL     1     -42.772  54.184 -54.799  1.00  0.00     0.236 C 
HETATM    4  C   UNL     1     -43.608  55.459 -54.713  1.00  0.00     0.039 C 
HETATM    5  C   UNL     1     -42.913  56.712 -55.315  1.00  0.00    -0.013 C 
HETATM    6  C   UNL     1     -42.788  56.646 -56.861  1.00  0.00     0.244 C 
HETATM    7  N   UNL     1     -44.141  56.698 -57.515  1.00  0.00    -0.065 N 
HETATM    8  H   UNL     1     -44.702  55.890 -57.195  1.00  0.00     0.280 HD
HETATM    9  C   UNL     1     -44.899  57.958 -57.208  1.00  0.00     0.235 C 
HETATM   10  C   UNL     1     -45.057  58.087 -55.699  1.00  0.00     0.029 C 
HETATM   11  C   UNL     1     -43.719  57.991 -54.964  1.00  0.00     0.013 C 
HETATM   12  C   UNL     1     -41.502  56.828 -54.672  1.00  0.00     0.039 C 
HETATM   13  C   UNL     1     -40.668  55.548 -54.736  1.00  0.00     0.236 C 
ENDROOT
BRANCH   7  14
HETATM   14  C   UNL     1     -44.070  56.404 -59.017  1.00  0.00     0.293 C 
BRANCH  14  15
HETATM   15  C   UNL     1     -43.632  57.635 -59.784  1.00  0.00     0.060 A 
HETATM   16  N   UNL     1     -44.636  58.440 -60.255  1.00  0.00    -0.264 NA
HETATM   17  C   UNL     1     -44.250  59.583 -60.876  1.00  0.00     0.117 A 
HETATM   18  C   UNL     1     -42.930  59.938 -61.091  1.00  0.00     0.019 A 
HETATM   19  C   UNL     1     -41.933  59.088 -60.625  1.00  0.00     0.003 A 
HETATM   20  C   UNL     1     -42.281  57.923 -59.950  1.00  0.00     0.029 A 
ENDBRANCH  14  15
ENDBRANCH   7  14
BRANCH   1  21
HETATM   21  C   UNL     1     -41.406  54.343 -52.634  1.00  0.00     0.278 C 
BRANCH  21  22
HETATM   22  C   UNL     1     -40.738  53.147 -52.075  1.00  0.00     0.025 A 
HETATM   23  C   UNL     1     -40.495  52.847 -50.702  1.00  0.00     0.068 A 
HETATM   24  C   UNL     1     -40.799  53.651 -49.493  1.00  0.00     0.073 C 
HETATM   25  N   UNL     1     -39.932  51.646 -50.565  1.00  0.00    -0.133 NA
HETATM   26  O   UNL     1     -39.724  51.169 -51.837  1.00  0.00    -0.217 OA
HETATM   27  C   UNL     1     -40.186  52.070 -52.742  1.00  0.00     0.085 A 
HETATM   28  C   UNL     1     -40.009  51.690 -54.158  1.00  0.00     0.079 C 
ENDBRANCH  21  22
ENDBRANCH   1  21
TORSDOF 4
ENDMDL
MODEL 9
REMARK VINA RESULT:      -6.7      3.453      5.931
REMARK  4 active torsions:
REMARK  status: ('A' for Active; 'I' for Inactive)
REMARK    1  A    between atoms: C_7  and  C_8 
REMARK    2  A    between atoms: C_8  and  N_9 
REMARK    3  A    between atoms: N_15  and  C_17 
REMARK    4  A    between atoms: C_17  and  C_18 
ROOT
HETATM    1  N   UNL     1     -42.226  59.270 -51.746  1.00  0.00    -0.067 N 
HETATM    2  H   UNL     1     -42.013  59.437 -50.753  1.00  0.00     0.280 HD
HETATM    3  C   UNL     1     -43.073  58.025 -51.767  1.00  0.00     0.236 C 
HETATM    4  C   UNL     1     -43.259  57.516 -53.194  1.00  0.00     0.039 C 
HETATM    5  C   UNL     1     -41.927  57.267 -53.955  1.00  0.00    -0.013 C 
HETATM    6  C   UNL     1     -41.135  56.054 -53.400  1.00  0.00     0.244 C 
HETATM    7  N   UNL     1     -41.875  54.767 -53.644  1.00  0.00    -0.065 N 
HETATM    8  H   UNL     1     -42.791  54.810 -53.166  1.00  0.00     0.280 HD
HETATM    9  C   UNL     1     -42.109  54.487 -55.101  1.00  0.00     0.235 C 
HETATM   10  C   UNL     1     -42.884  55.646 -55.712  1.00  0.00     0.029 C 
HETATM   11  C   UNL     1     -42.211  56.995 -55.456  1.00  0.00     0.013 C 
HETATM   12  C   UNL     1     -41.067  58.559 -53.844  1.00  0.00     0.039 C 
HETATM   13  C   UNL     1     -40.894  59.085 -52.419  1.00  0.00     0.236 C 
ENDROOT
BRANCH   7  14
HETATM   14  C   UNL     1     -41.238  53.584 -52.911  1.00  0.00     0.293 C 
BRANCH  14  15
HETATM   15  C   UNL     1     -41.020  53.915 -51.448  1.00  0.00     0.060 A 
HETATM   16  N   UNL     1     -42.101  54.422 -50.777  1.00  0.00    -0.264 NA
HETATM   17  C   UNL     1     -41.935  54.649 -49.449  1.00  0.00     0.117 A 
HETATM   18  C   UNL     1     -40.745  54.442 -48.773  1.00  0.00     0.019 A 
HETATM   19  C   UNL     1     -39.657  53.950 -49.486  1.00  0.00     0.003 A 
HETATM   20  C   UNL     1     -39.792  53.669 -50.841  1.00  0.00     0.029 A 
ENDBRANCH  14  15
ENDBRANCH   7  14
BRANCH   1  21
HETATM   21  C   UNL     1     -42.941  60.556 -52.159  1.00  0.00     0.278 C 
BRANCH  21  22
HETATM   22  C   UNL     1     -44.355  60.618 -51.728  1.00  0.00     0.025 A 
HETATM   23  C   UNL     1     -45.519  60.451 -52.534  1.00  0.00     0.068 A 
HETATM   24  C   UNL     1     -45.629  60.220 -53.995  1.00  0.00     0.073 C 
HETATM   25  N   UNL     1     -46.627  60.500 -51.794  1.00  0.00    -0.133 NA
HETATM   26  O   UNL     1     -46.222  60.775 -50.509  1.00  0.00    -0.217 OA
HETATM   27  C   UNL     1     -44.868  60.865 -50.468  1.00  0.00     0.085 A 
HETATM   28  C   UNL     1     -44.295  61.176 -49.144  1.00  0.00     0.079 C 
ENDBRANCH  21  22
ENDBRANCH   1  21
TORSDOF 4
ENDMDL
MODEL 10
REMARK VINA RESULT:      -6.7     15.956     18.511
REMARK  4 active torsions:
REMARK  status: ('A' for Active; 'I' for Inactive)
REMARK    1  A    between atoms: C_7  and  C_8 
REMARK    2  A    between atoms: C_8  and  N_9 
REMARK    3  A    between atoms: N_15  and  C_17 
REMARK    4  A    between atoms: C_17  and  C_18 
ROOT
HETATM    1  N   UNL     1     -35.398  40.096 -54.450  1.00  0.00    -0.067 N 
HETATM    2  H   UNL     1     -35.188  39.261 -53.887  1.00  0.00     0.280 HD
HETATM    3  C   UNL     1     -36.704  39.794 -55.137  1.00  0.00     0.236 C 
HETATM    4  C   UNL     1     -37.017  40.845 -56.199  1.00  0.00     0.039 C 
HETATM    5  C   UNL     1     -35.892  41.031 -57.254  1.00  0.00    -0.013 C 
HETATM    6  C   UNL     1     -35.747  39.810 -58.201  1.00  0.00     0.244 C 
HETATM    7  N   UNL     1     -36.964  39.654 -59.071  1.00  0.00    -0.065 N 
HETATM    8  H   UNL     1     -37.792  39.507 -58.469  1.00  0.00     0.280 HD
HETATM    9  C   UNL     1     -37.218  40.842 -59.953  1.00  0.00     0.235 C 
HETATM   10  C   UNL     1     -37.368  42.083 -59.084  1.00  0.00     0.029 C 
HETATM   11  C   UNL     1     -36.185  42.275 -58.135  1.00  0.00     0.013 C 
HETATM   12  C   UNL     1     -34.559  41.272 -56.491  1.00  0.00     0.039 C 
HETATM   13  C   UNL     1     -34.249  40.235 -55.411  1.00  0.00     0.236 C 
ENDROOT
BRANCH   7  14
HETATM   14  C   UNL     1     -36.954  38.334 -59.849  1.00  0.00     0.293 C 
BRANCH  14  15
HETATM   15  C   UNL     1     -38.246  38.158 -60.622  1.00  0.00     0.060 A 
HETATM   16  N   UNL     1     -38.124  38.046 -61.982  1.00  0.00    -0.264 NA
HETATM   17  C   UNL     1     -39.268  37.811 -62.673  1.00  0.00     0.117 A 
HETATM   18  C   UNL     1     -40.520  37.731 -62.089  1.00  0.00     0.019 A 
HETATM   19  C   UNL     1     -40.616  37.874 -60.709  1.00  0.00     0.003 A 
HETATM   20  C   UNL     1     -39.465  38.079 -59.957  1.00  0.00     0.029 A 
ENDBRANCH  14  15
ENDBRANCH   7  14
BRANCH   1  21
HETATM   21  C   UNL     1     -35.449  41.207 -53.401  1.00  0.00     0.278 C 
BRANCH  21  22
HETATM   22  C   UNL     1     -35.750  40.723 -52.036  1.00  0.00     0.025 A 
HETATM   23  C   UNL     1     -37.024  40.381 -51.494  1.00  0.00     0.068 A 
HETATM   24  C   UNL     1     -38.366  40.455 -52.121  1.00  0.00     0.073 C 
HETATM   25  N   UNL     1     -36.907  39.914 -50.250  1.00  0.00    -0.133 NA
HETATM   26  O   UNL     1     -35.576  40.012 -49.923  1.00  0.00    -0.217 OA
HETATM   27  C   UNL     1     -34.884  40.513 -50.979  1.00  0.00     0.085 A 
HETATM   28  C   UNL     1     -33.434  40.688 -50.759  1.00  0.00     0.079 C 
ENDBRANCH  21  22
ENDBRANCH   1  21
TORSDOF 4
ENDMDL
