MODEL 1
REMARK VINA RESULT:      -8.2      0.000      0.000
REMARK  8 active torsions:
REMARK  status: ('A' for Active; 'I' for Inactive)
REMARK    1  A    between atoms: C_2  and  O_3 
REMARK    2  A    between atoms: O_3  and  C_4 
REMARK    3  A    between atoms: C_6  and  O_7 
REMARK    4  A    between atoms: O_7  and  C_8 
REMARK    5  A    between atoms: C_11  and  C_12 
REMARK       I    between atoms: C_12  and  N_13 
REMARK    6  A    between atoms: N_13  and  C_14 
REMARK    7  A    between atoms: C_14  and  N_15 
REMARK    8  A    between atoms: N_15  and  C_16 
ROOT
HETATM    1  C   UNL     1     -43.285  55.166 -53.964  1.00  0.00     0.237 C 
HETATM    2  N   UNL     1     -43.182  56.541 -53.862  1.00  0.00    -0.201 NA
HETATM    3  O   UNL     1     -44.211  54.624 -54.558  1.00  0.00    -0.274 OA
HETATM    4  H   UNL     1     -44.119  56.920 -53.966  1.00  0.00     0.139 HD
ENDROOT
BRANCH   2   5
HETATM    5  C   UNL     1     -42.369  57.363 -54.611  1.00  0.00     0.157 C 
HETATM    6  S   UNL     1     -41.640  58.776 -54.096  1.00  0.00    -0.047 SA
BRANCH   5   7
HETATM    7  N   UNL     1     -42.064  56.915 -55.873  1.00  0.00    -0.337 N 
HETATM    8  H   UNL     1     -41.127  56.529 -55.938  1.00  0.00     0.168 HD
BRANCH   7   9
HETATM    9  C   UNL     1     -42.782  56.996 -57.089  1.00  0.00     0.036 A 
HETATM   10  C   UNL     1     -43.026  55.781 -57.753  1.00  0.00     0.061 A 
HETATM   11  C   UNL     1     -43.680  55.842 -58.964  1.00  0.00     0.065 A 
HETATM   12  C   UNL     1     -44.083  57.047 -59.531  1.00  0.00     0.063 A 
HETATM   13  N   UNL     1     -44.041  54.819 -59.834  1.00  0.00    -0.306 N 
HETATM   14  N   UNL     1     -44.688  56.768 -60.750  1.00  0.00    -0.307 N 
HETATM   15  C   UNL     1     -43.854  58.252 -58.918  1.00  0.00     0.034 A 
HETATM   16  C   UNL     1     -44.667  55.382 -60.957  1.00  0.00     0.325 A 
HETATM   17  H   UNL     1     -45.073  57.425 -61.409  1.00  0.00     0.170 HD
HETATM   18  O   UNL     1     -45.101  54.782 -61.923  1.00  0.00    -0.247 OA
HETATM   19  C   UNL     1     -43.188  58.216 -57.683  1.00  0.00     0.032 A 
HETATM   20  H   UNL     1     -43.883  53.831 -59.722  1.00  0.00     0.170 HD
ENDBRANCH   7   9
ENDBRANCH   5   7
ENDBRANCH   2   5
BRANCH   1  21
HETATM   21  C   UNL     1     -42.450  54.396 -53.011  1.00  0.00     0.032 A 
HETATM   22  C   UNL     1     -42.686  54.631 -51.651  1.00  0.00     0.053 A 
HETATM   23  C   UNL     1     -41.899  54.000 -50.695  1.00  0.00     0.072 A 
HETATM   24  C   UNL     1     -40.879  53.140 -51.099  1.00  0.00     0.073 A 
HETATM   25  C   UNL     1     -40.663  52.871 -52.454  1.00  0.00     0.072 A 
HETATM   26  C   UNL     1     -41.443  53.515 -53.417  1.00  0.00     0.053 A 
BRANCH  23  27
HETATM   27  O   UNL     1     -42.007  54.241 -49.355  1.00  0.00    -0.351 OA
BRANCH  27  28
HETATM   28  C   UNL     1     -40.858  54.856 -48.763  1.00  0.00     0.171 C 
HETATM   29  C   UNL     1     -40.247  53.926 -47.729  1.00  0.00     0.034 C 
ENDBRANCH  27  28
ENDBRANCH  23  27
BRANCH  25  30
HETATM   30  O   UNL     1     -39.664  51.969 -52.695  1.00  0.00    -0.351 OA
BRANCH  30  31
HETATM   31  C   UNL     1     -39.646  51.326 -53.968  1.00  0.00     0.171 C 
HETATM   32  C   UNL     1     -39.710  49.827 -53.731  1.00  0.00     0.034 C 
ENDBRANCH  30  31
ENDBRANCH  25  30
ENDBRANCH   1  21
TORSDOF 8
ENDMDL
MODEL 2
REMARK VINA RESULT:      -8.1      0.169      3.047
REMARK  8 active torsions:
REMARK  status: ('A' for Active; 'I' for Inactive)
REMARK    1  A    between atoms: C_2  and  O_3 
REMARK    2  A    between atoms: O_3  and  C_4 
REMARK    3  A    between atoms: C_6  and  O_7 
REMARK    4  A    between atoms: O_7  and  C_8 
REMARK    5  A    between atoms: C_11  and  C_12 
REMARK       I    between atoms: C_12  and  N_13 
REMARK    6  A    between atoms: N_13  and  C_14 
REMARK    7  A    between atoms: C_14  and  N_15 
REMARK    8  A    between atoms: N_15  and  C_16 
ROOT
HETATM    1  C   UNL     1     -43.271  55.195 -53.959  1.00  0.00     0.237 C 
HETATM    2  N   UNL     1     -43.311  56.576 -53.888  1.00  0.00    -0.201 NA
HETATM    3  O   UNL     1     -44.096  54.552 -54.599  1.00  0.00    -0.274 OA
HETATM    4  H   UNL     1     -44.271  56.857 -54.066  1.00  0.00     0.139 HD
ENDROOT
BRANCH   2   5
HETATM    5  C   UNL     1     -42.532  57.459 -54.602  1.00  0.00     0.157 C 
HETATM    6  S   UNL     1     -41.890  58.897 -54.042  1.00  0.00    -0.047 SA
BRANCH   5   7
HETATM    7  N   UNL     1     -42.181  57.060 -55.869  1.00  0.00    -0.337 N 
HETATM    8  H   UNL     1     -41.213  56.759 -55.933  1.00  0.00     0.168 HD
BRANCH   7   9
HETATM    9  C   UNL     1     -42.896  57.095 -57.089  1.00  0.00     0.036 A 
HETATM   10  C   UNL     1     -43.066  55.867 -57.751  1.00  0.00     0.061 A 
HETATM   11  C   UNL     1     -43.716  55.886 -58.965  1.00  0.00     0.065 A 
HETATM   12  C   UNL     1     -44.187  57.063 -59.537  1.00  0.00     0.063 A 
HETATM   13  N   UNL     1     -44.012  54.841 -59.834  1.00  0.00    -0.306 N 
HETATM   14  N   UNL     1     -44.768  56.747 -60.758  1.00  0.00    -0.307 N 
HETATM   15  C   UNL     1     -44.032  58.281 -58.926  1.00  0.00     0.034 A 
HETATM   16  C   UNL     1     -44.664  55.363 -60.961  1.00  0.00     0.325 A 
HETATM   17  H   UNL     1     -45.188  57.378 -61.421  1.00  0.00     0.170 HD
HETATM   18  O   UNL     1     -45.058  54.737 -61.928  1.00  0.00    -0.247 OA
HETATM   19  C   UNL     1     -43.371  58.288 -57.688  1.00  0.00     0.032 A 
HETATM   20  H   UNL     1     -43.797  53.864 -59.718  1.00  0.00     0.170 HD
ENDBRANCH   7   9
ENDBRANCH   5   7
ENDBRANCH   2   5
BRANCH   1  21
HETATM   21  C   UNL     1     -42.433  54.532 -52.931  1.00  0.00     0.032 A 
HETATM   22  C   UNL     1     -41.427  53.682 -53.407  1.00  0.00     0.053 A 
HETATM   23  C   UNL     1     -40.642  52.972 -52.507  1.00  0.00     0.072 A 
HETATM   24  C   UNL     1     -40.864  53.110 -51.138  1.00  0.00     0.073 A 
HETATM   25  C   UNL     1     -41.841  53.986 -50.656  1.00  0.00     0.072 A 
HETATM   26  C   UNL     1     -42.641  54.690 -51.558  1.00  0.00     0.053 A 
BRANCH  23  27
HETATM   27  O   UNL     1     -39.701  52.059 -52.889  1.00  0.00    -0.351 OA
BRANCH  27  28
HETATM   28  C   UNL     1     -39.954  51.429 -54.149  1.00  0.00     0.171 C 
HETATM   29  C   UNL     1     -39.902  49.919 -53.994  1.00  0.00     0.034 C 
ENDBRANCH  27  28
ENDBRANCH  23  27
BRANCH  25  30
HETATM   30  O   UNL     1     -41.909  54.055 -49.292  1.00  0.00    -0.351 OA
BRANCH  30  31
HETATM   31  C   UNL     1     -40.897  54.800 -48.616  1.00  0.00     0.171 C 
HETATM   32  C   UNL     1     -40.180  53.853 -47.669  1.00  0.00     0.034 C 
ENDBRANCH  30  31
ENDBRANCH  25  30
ENDBRANCH   1  21
TORSDOF 8
ENDMDL
MODEL 3
REMARK VINA RESULT:      -8.1      3.315      6.555
REMARK  8 active torsions:
REMARK  status: ('A' for Active; 'I' for Inactive)
REMARK    1  A    between atoms: C_2  and  O_3 
REMARK    2  A    between atoms: O_3  and  C_4 
REMARK    3  A    between atoms: C_6  and  O_7 
REMARK    4  A    between atoms: O_7  and  C_8 
REMARK    5  A    between atoms: C_11  and  C_12 
REMARK       I    between atoms: C_12  and  N_13 
REMARK    6  A    between atoms: N_13  and  C_14 
REMARK    7  A    between atoms: C_14  and  N_15 
REMARK    8  A    between atoms: N_15  and  C_16 
ROOT
HETATM    1  C   UNL     1     -43.402  54.477 -54.789  1.00  0.00     0.237 C 
HETATM    2  N   UNL     1     -44.450  55.246 -54.314  1.00  0.00    -0.201 NA
HETATM    3  O   UNL     1     -43.440  53.932 -55.886  1.00  0.00    -0.274 OA
HETATM    4  H   UNL     1     -45.290  54.931 -54.789  1.00  0.00     0.139 HD
ENDROOT
BRANCH   2   5
HETATM    5  C   UNL     1     -44.524  56.621 -54.309  1.00  0.00     0.157 C 
HETATM    6  S   UNL     1     -44.551  57.620 -55.649  1.00  0.00    -0.047 SA
BRANCH   5   7
HETATM    7  N   UNL     1     -44.682  57.208 -53.078  1.00  0.00    -0.337 N 
HETATM    8  H   UNL     1     -45.591  57.021 -52.665  1.00  0.00     0.168 HD
BRANCH   7   9
HETATM    9  C   UNL     1     -43.849  58.094 -52.353  1.00  0.00     0.036 A 
HETATM   10  C   UNL     1     -42.473  57.807 -52.361  1.00  0.00     0.061 A 
HETATM   11  C   UNL     1     -41.651  58.628 -51.621  1.00  0.00     0.065 A 
HETATM   12  C   UNL     1     -42.141  59.698 -50.881  1.00  0.00     0.063 A 
HETATM   13  N   UNL     1     -40.273  58.578 -51.439  1.00  0.00    -0.306 N 
HETATM   14  N   UNL     1     -41.069  60.306 -50.240  1.00  0.00    -0.307 N 
HETATM   15  C   UNL     1     -43.477  60.004 -50.841  1.00  0.00     0.034 A 
HETATM   16  C   UNL     1     -39.895  59.616 -50.574  1.00  0.00     0.325 A 
HETATM   17  H   UNL     1     -41.094  61.098 -49.619  1.00  0.00     0.170 HD
HETATM   18  O   UNL     1     -38.768  59.865 -50.187  1.00  0.00    -0.247 OA
HETATM   19  C   UNL     1     -44.337  59.180 -51.586  1.00  0.00     0.032 A 
HETATM   20  H   UNL     1     -39.624  57.915 -51.830  1.00  0.00     0.170 HD
ENDBRANCH   7   9
ENDBRANCH   5   7
ENDBRANCH   2   5
BRANCH   1  21
HETATM   21  C   UNL     1     -42.422  54.042 -53.764  1.00  0.00     0.032 A 
HETATM   22  C   UNL     1     -41.342  53.280 -54.225  1.00  0.00     0.053 A 
HETATM   23  C   UNL     1     -40.416  52.776 -53.319  1.00  0.00     0.072 A 
HETATM   24  C   UNL     1     -40.573  53.033 -51.958  1.00  0.00     0.073 A 
HETATM   25  C   UNL     1     -41.627  53.826 -51.495  1.00  0.00     0.072 A 
HETATM   26  C   UNL     1     -42.567  54.320 -52.401  1.00  0.00     0.053 A 
BRANCH  23  27
HETATM   27  O   UNL     1     -39.386  51.954 -53.676  1.00  0.00    -0.351 OA
BRANCH  27  28
HETATM   28  C   UNL     1     -39.582  50.573 -53.353  1.00  0.00     0.171 C 
HETATM   29  C   UNL     1     -39.886  49.783 -54.613  1.00  0.00     0.034 C 
ENDBRANCH  27  28
ENDBRANCH  23  27
BRANCH  25  30
HETATM   30  O   UNL     1     -41.622  54.033 -50.144  1.00  0.00    -0.351 OA
BRANCH  30  31
HETATM   31  C   UNL     1     -40.391  54.430 -49.540  1.00  0.00     0.171 C 
HETATM   32  C   UNL     1     -40.424  53.986 -48.088  1.00  0.00     0.034 C 
ENDBRANCH  30  31
ENDBRANCH  25  30
ENDBRANCH   1  21
TORSDOF 8
ENDMDL
MODEL 4
REMARK VINA RESULT:      -7.9      1.570      3.552
REMARK  8 active torsions:
REMARK  status: ('A' for Active; 'I' for Inactive)
REMARK    1  A    between atoms: C_2  and  O_3 
REMARK    2  A    between atoms: O_3  and  C_4 
REMARK    3  A    between atoms: C_6  and  O_7 
REMARK    4  A    between atoms: O_7  and  C_8 
REMARK    5  A    between atoms: C_11  and  C_12 
REMARK       I    between atoms: C_12  and  N_13 
REMARK    6  A    between atoms: N_13  and  C_14 
REMARK    7  A    between atoms: C_14  and  N_15 
REMARK    8  A    between atoms: N_15  and  C_16 
ROOT
HETATM    1  C   UNL     1     -43.081  54.353 -55.284  1.00  0.00     0.237 C 
HETATM    2  N   UNL     1     -43.505  55.670 -55.308  1.00  0.00    -0.201 NA
HETATM    3  O   UNL     1     -43.597  53.489 -55.984  1.00  0.00    -0.274 OA
HETATM    4  H   UNL     1     -44.469  55.667 -55.629  1.00  0.00     0.139 HD
ENDROOT
BRANCH   2   5
HETATM    5  C   UNL     1     -42.902  56.716 -55.970  1.00  0.00     0.157 C 
HETATM    6  S   UNL     1     -42.333  58.130 -55.283  1.00  0.00    -0.047 SA
BRANCH   5   7
HETATM    7  N   UNL     1     -42.670  56.524 -57.310  1.00  0.00    -0.337 N 
HETATM    8  H   UNL     1     -41.687  56.605 -57.555  1.00  0.00     0.168 HD
BRANCH   7   9
HETATM    9  C   UNL     1     -43.561  56.341 -58.393  1.00  0.00     0.036 A 
HETATM   10  C   UNL     1     -44.567  57.312 -58.547  1.00  0.00     0.061 A 
HETATM   11  C   UNL     1     -45.475  57.126 -59.565  1.00  0.00     0.065 A 
HETATM   12  C   UNL     1     -45.425  56.026 -60.414  1.00  0.00     0.063 A 
HETATM   13  N   UNL     1     -46.564  57.905 -59.941  1.00  0.00    -0.306 N 
HETATM   14  N   UNL     1     -46.483  56.123 -61.310  1.00  0.00    -0.307 N 
HETATM   15  C   UNL     1     -44.465  55.054 -60.290  1.00  0.00     0.034 A 
HETATM   16  C   UNL     1     -47.207  57.289 -61.025  1.00  0.00     0.325 A 
HETATM   17  H   UNL     1     -46.730  55.477 -62.041  1.00  0.00     0.170 HD
HETATM   18  O   UNL     1     -48.202  57.688 -61.602  1.00  0.00    -0.247 OA
HETATM   19  C   UNL     1     -43.528  55.220 -59.258  1.00  0.00     0.032 A 
HETATM   20  H   UNL     1     -46.881  58.764 -59.520  1.00  0.00     0.170 HD
ENDBRANCH   7   9
ENDBRANCH   5   7
ENDBRANCH   2   5
BRANCH   1  21
HETATM   21  C   UNL     1     -42.251  53.978 -54.113  1.00  0.00     0.032 A 
HETATM   22  C   UNL     1     -41.169  53.127 -54.369  1.00  0.00     0.053 A 
HETATM   23  C   UNL     1     -40.383  52.675 -53.315  1.00  0.00     0.072 A 
HETATM   24  C   UNL     1     -40.681  53.071 -52.013  1.00  0.00     0.073 A 
HETATM   25  C   UNL     1     -41.736  53.952 -51.755  1.00  0.00     0.072 A 
HETATM   26  C   UNL     1     -42.536  54.396 -52.810  1.00  0.00     0.053 A 
BRANCH  23  27
HETATM   27  O   UNL     1     -39.367  51.776 -53.468  1.00  0.00    -0.351 OA
BRANCH  27  28
HETATM   28  C   UNL     1     -39.778  50.472 -53.892  1.00  0.00     0.171 C 
HETATM   29  C   UNL     1     -39.644  49.487 -52.744  1.00  0.00     0.034 C 
ENDBRANCH  27  28
ENDBRANCH  23  27
BRANCH  25  30
HETATM   30  O   UNL     1     -41.875  54.291 -50.438  1.00  0.00    -0.351 OA
BRANCH  30  31
HETATM   31  C   UNL     1     -40.785  54.966 -49.810  1.00  0.00     0.171 C 
HETATM   32  C   UNL     1     -40.528  54.288 -48.476  1.00  0.00     0.034 C 
ENDBRANCH  30  31
ENDBRANCH  25  30
ENDBRANCH   1  21
TORSDOF 8
ENDMDL
MODEL 5
REMARK VINA RESULT:      -7.8      1.472      1.887
REMARK  8 active torsions:
REMARK  status: ('A' for Active; 'I' for Inactive)
REMARK    1  A    between atoms: C_2  and  O_3 
REMARK    2  A    between atoms: O_3  and  C_4 
REMARK    3  A    between atoms: C_6  and  O_7 
REMARK    4  A    between atoms: O_7  and  C_8 
REMARK    5  A    between atoms: C_11  and  C_12 
REMARK       I    between atoms: C_12  and  N_13 
REMARK    6  A    between atoms: N_13  and  C_14 
REMARK    7  A    between atoms: C_14  and  N_15 
REMARK    8  A    between atoms: N_15  and  C_16 
ROOT
HETATM    1  C   UNL     1     -43.102  54.478 -55.284  1.00  0.00     0.237 C 
HETATM    2  N   UNL     1     -43.478  55.805 -55.176  1.00  0.00    -0.201 NA
HETATM    3  O   UNL     1     -43.622  53.718 -56.094  1.00  0.00    -0.274 OA
HETATM    4  H   UNL     1     -44.428  55.876 -55.528  1.00  0.00     0.139 HD
ENDROOT
BRANCH   2   5
HETATM    5  C   UNL     1     -42.812  56.893 -55.695  1.00  0.00     0.157 C 
HETATM    6  S   UNL     1     -42.238  58.209 -54.838  1.00  0.00    -0.047 SA
BRANCH   5   7
HETATM    7  N   UNL     1     -42.519  56.833 -57.035  1.00  0.00    -0.337 N 
HETATM    8  H   UNL     1     -41.562  57.103 -57.242  1.00  0.00     0.168 HD
BRANCH   7   9
HETATM    9  C   UNL     1     -43.338  56.565 -58.157  1.00  0.00     0.036 A 
HETATM   10  C   UNL     1     -44.513  57.328 -58.271  1.00  0.00     0.061 A 
HETATM   11  C   UNL     1     -45.349  57.048 -59.329  1.00  0.00     0.065 A 
HETATM   12  C   UNL     1     -45.067  56.050 -60.255  1.00  0.00     0.063 A 
HETATM   13  N   UNL     1     -46.565  57.626 -59.681  1.00  0.00    -0.306 N 
HETATM   14  N   UNL     1     -46.108  56.008 -61.175  1.00  0.00    -0.307 N 
HETATM   15  C   UNL     1     -43.936  55.279 -60.173  1.00  0.00     0.034 A 
HETATM   16  C   UNL     1     -47.054  56.983 -60.828  1.00  0.00     0.325 A 
HETATM   17  H   UNL     1     -46.210  55.386 -61.960  1.00  0.00     0.170 HD
HETATM   18  O   UNL     1     -48.098  57.223 -61.406  1.00  0.00    -0.247 OA
HETATM   19  C   UNL     1     -43.068  55.544 -59.101  1.00  0.00     0.032 A 
HETATM   20  H   UNL     1     -47.053  58.369 -59.209  1.00  0.00     0.170 HD
ENDBRANCH   7   9
ENDBRANCH   5   7
ENDBRANCH   2   5
BRANCH   1  21
HETATM   21  C   UNL     1     -42.333  53.943 -54.135  1.00  0.00     0.032 A 
HETATM   22  C   UNL     1     -42.782  54.314 -52.862  1.00  0.00     0.053 A 
HETATM   23  C   UNL     1     -42.076  53.910 -51.736  1.00  0.00     0.072 A 
HETATM   24  C   UNL     1     -40.924  53.139 -51.883  1.00  0.00     0.073 A 
HETATM   25  C   UNL     1     -40.491  52.732 -53.149  1.00  0.00     0.072 A 
HETATM   26  C   UNL     1     -41.191  53.149 -54.284  1.00  0.00     0.053 A 
BRANCH  23  27
HETATM   27  O   UNL     1     -42.396  54.301 -50.467  1.00  0.00    -0.351 OA
BRANCH  27  28
HETATM   28  C   UNL     1     -41.504  55.262 -49.893  1.00  0.00     0.171 C 
HETATM   29  C   UNL     1     -40.909  54.714 -48.608  1.00  0.00     0.034 C 
ENDBRANCH  27  28
ENDBRANCH  23  27
BRANCH  25  30
HETATM   30  O   UNL     1     -39.378  51.939 -53.134  1.00  0.00    -0.351 OA
BRANCH  30  31
HETATM   31  C   UNL     1     -39.565  50.542 -52.910  1.00  0.00     0.171 C 
HETATM   32  C   UNL     1     -39.592  49.856 -54.264  1.00  0.00     0.034 C 
ENDBRANCH  30  31
ENDBRANCH  25  30
ENDBRANCH   1  21
TORSDOF 8
ENDMDL
MODEL 6
REMARK VINA RESULT:      -7.6      2.682      6.253
REMARK  8 active torsions:
REMARK  status: ('A' for Active; 'I' for Inactive)
REMARK    1  A    between atoms: C_2  and  O_3 
REMARK    2  A    between atoms: O_3  and  C_4 
REMARK    3  A    between atoms: C_6  and  O_7 
REMARK    4  A    between atoms: O_7  and  C_8 
REMARK    5  A    between atoms: C_11  and  C_12 
REMARK       I    between atoms: C_12  and  N_13 
REMARK    6  A    between atoms: N_13  and  C_14 
REMARK    7  A    between atoms: C_14  and  N_15 
REMARK    8  A    between atoms: N_15  and  C_16 
ROOT
HETATM    1  C   UNL     1     -43.244  54.394 -55.443  1.00  0.00     0.237 C 
HETATM    2  N   UNL     1     -43.726  55.691 -55.467  1.00  0.00    -0.201 NA
HETATM    3  O   UNL     1     -43.671  53.526 -56.195  1.00  0.00    -0.274 OA
HETATM    4  H   UNL     1     -44.665  55.653 -55.853  1.00  0.00     0.139 HD
ENDROOT
BRANCH   2   5
HETATM    5  C   UNL     1     -43.128  56.779 -56.063  1.00  0.00     0.157 C 
HETATM    6  S   UNL     1     -43.615  57.534 -57.472  1.00  0.00    -0.047 SA
BRANCH   5   7
HETATM    7  N   UNL     1     -42.085  57.343 -55.370  1.00  0.00    -0.337 N 
HETATM    8  H   UNL     1     -41.213  57.332 -55.893  1.00  0.00     0.168 HD
BRANCH   7   9
HETATM    9  C   UNL     1     -42.000  57.829 -54.044  1.00  0.00     0.036 A 
HETATM   10  C   UNL     1     -42.943  58.804 -53.673  1.00  0.00     0.061 A 
HETATM   11  C   UNL     1     -42.847  59.326 -52.402  1.00  0.00     0.065 A 
HETATM   12  C   UNL     1     -41.860  58.927 -51.508  1.00  0.00     0.063 A 
HETATM   13  N   UNL     1     -43.624  60.295 -51.777  1.00  0.00    -0.306 N 
HETATM   14  N   UNL     1     -42.024  59.651 -50.333  1.00  0.00    -0.307 N 
HETATM   15  C   UNL     1     -40.918  57.986 -51.835  1.00  0.00     0.034 A 
HETATM   16  C   UNL     1     -43.120  60.513 -50.486  1.00  0.00     0.325 A 
HETATM   17  H   UNL     1     -41.462  59.604 -49.499  1.00  0.00     0.170 HD
HETATM   18  O   UNL     1     -43.547  61.300 -49.662  1.00  0.00    -0.247 OA
HETATM   19  C   UNL     1     -40.993  57.440 -53.127  1.00  0.00     0.032 A 
HETATM   20  H   UNL     1     -44.413  60.792 -52.157  1.00  0.00     0.170 HD
ENDBRANCH   7   9
ENDBRANCH   5   7
ENDBRANCH   2   5
BRANCH   1  21
HETATM   21  C   UNL     1     -42.479  54.027 -54.227  1.00  0.00     0.032 A 
HETATM   22  C   UNL     1     -41.291  53.315 -54.434  1.00  0.00     0.053 A 
HETATM   23  C   UNL     1     -40.551  52.875 -53.343  1.00  0.00     0.072 A 
HETATM   24  C   UNL     1     -40.999  53.145 -52.051  1.00  0.00     0.073 A 
HETATM   25  C   UNL     1     -42.164  53.889 -51.837  1.00  0.00     0.072 A 
HETATM   26  C   UNL     1     -42.917  54.320 -52.931  1.00  0.00     0.053 A 
BRANCH  23  27
HETATM   27  O   UNL     1     -39.432  52.102 -53.457  1.00  0.00    -0.351 OA
BRANCH  27  28
HETATM   28  C   UNL     1     -39.632  50.712 -53.176  1.00  0.00     0.171 C 
HETATM   29  C   UNL     1     -39.754  49.933 -54.474  1.00  0.00     0.034 C 
ENDBRANCH  27  28
ENDBRANCH  23  27
BRANCH  25  30
HETATM   30  O   UNL     1     -42.449  54.118 -50.520  1.00  0.00    -0.351 OA
BRANCH  30  31
HETATM   31  C   UNL     1     -41.360  54.124 -49.598  1.00  0.00     0.171 C 
HETATM   32  C   UNL     1     -41.120  55.563 -49.175  1.00  0.00     0.034 C 
ENDBRANCH  30  31
ENDBRANCH  25  30
ENDBRANCH   1  21
TORSDOF 8
ENDMDL
MODEL 7
REMARK VINA RESULT:      -7.5      3.491      6.280
REMARK  8 active torsions:
REMARK  status: ('A' for Active; 'I' for Inactive)
REMARK    1  A    between atoms: C_2  and  O_3 
REMARK    2  A    between atoms: O_3  and  C_4 
REMARK    3  A    between atoms: C_6  and  O_7 
REMARK    4  A    between atoms: O_7  and  C_8 
REMARK    5  A    between atoms: C_11  and  C_12 
REMARK       I    between atoms: C_12  and  N_13 
REMARK    6  A    between atoms: N_13  and  C_14 
REMARK    7  A    between atoms: C_14  and  N_15 
REMARK    8  A    between atoms: N_15  and  C_16 
ROOT
HETATM    1  C   UNL     1     -43.267  54.623 -55.050  1.00  0.00     0.237 C 
HETATM    2  N   UNL     1     -44.409  55.237 -54.564  1.00  0.00    -0.201 NA
HETATM    3  O   UNL     1     -43.142  54.323 -56.231  1.00  0.00    -0.274 OA
HETATM    4  H   UNL     1     -45.167  55.001 -55.197  1.00  0.00     0.139 HD
ENDROOT
BRANCH   2   5
HETATM    5  C   UNL     1     -44.567  56.576 -54.284  1.00  0.00     0.157 C 
HETATM    6  S   UNL     1     -44.734  57.811 -55.398  1.00  0.00    -0.047 SA
BRANCH   5   7
HETATM    7  N   UNL     1     -44.687  56.900 -52.955  1.00  0.00    -0.337 N 
HETATM    8  H   UNL     1     -45.303  56.270 -52.450  1.00  0.00     0.168 HD
BRANCH   7   9
HETATM    9  C   UNL     1     -44.192  57.999 -52.215  1.00  0.00     0.036 A 
HETATM   10  C   UNL     1     -45.031  58.505 -51.207  1.00  0.00     0.061 A 
HETATM   11  C   UNL     1     -44.589  59.606 -50.508  1.00  0.00     0.065 A 
HETATM   12  C   UNL     1     -43.368  60.216 -50.777  1.00  0.00     0.063 A 
HETATM   13  N   UNL     1     -45.203  60.314 -49.481  1.00  0.00    -0.306 N 
HETATM   14  N   UNL     1     -43.230  61.301 -49.920  1.00  0.00    -0.307 N 
HETATM   15  C   UNL     1     -42.527  59.758 -51.758  1.00  0.00     0.034 A 
HETATM   16  C   UNL     1     -44.369  61.379 -49.106  1.00  0.00     0.325 A 
HETATM   17  H   UNL     1     -42.465  61.953 -49.874  1.00  0.00     0.170 HD
HETATM   18  O   UNL     1     -44.594  62.211 -48.247  1.00  0.00    -0.247 OA
HETATM   19  C   UNL     1     -42.956  58.637 -52.486  1.00  0.00     0.032 A 
HETATM   20  H   UNL     1     -46.100  60.136 -49.060  1.00  0.00     0.170 HD
ENDBRANCH   7   9
ENDBRANCH   5   7
ENDBRANCH   2   5
BRANCH   1  21
HETATM   21  C   UNL     1     -42.390  54.015 -54.021  1.00  0.00     0.032 A 
HETATM   22  C   UNL     1     -42.675  54.344 -52.690  1.00  0.00     0.053 A 
HETATM   23  C   UNL     1     -41.858  53.869 -51.671  1.00  0.00     0.072 A 
HETATM   24  C   UNL     1     -40.760  53.070 -51.983  1.00  0.00     0.073 A 
HETATM   25  C   UNL     1     -40.491  52.705 -53.306  1.00  0.00     0.072 A 
HETATM   26  C   UNL     1     -41.302  53.194 -54.334  1.00  0.00     0.053 A 
BRANCH  23  27
HETATM   27  O   UNL     1     -42.016  54.214 -50.359  1.00  0.00    -0.351 OA
BRANCH  27  28
HETATM   28  C   UNL     1     -42.341  55.590 -50.137  1.00  0.00     0.171 C 
HETATM   29  C   UNL     1     -41.078  56.433 -50.163  1.00  0.00     0.034 C 
ENDBRANCH  27  28
ENDBRANCH  23  27
BRANCH  25  30
HETATM   30  O   UNL     1     -39.413  51.878 -53.453  1.00  0.00    -0.351 OA
BRANCH  30  31
HETATM   31  C   UNL     1     -39.617  50.482 -53.238  1.00  0.00     0.171 C 
HETATM   32  C   UNL     1     -39.790  49.826 -54.597  1.00  0.00     0.034 C 
ENDBRANCH  30  31
ENDBRANCH  25  30
ENDBRANCH   1  21
TORSDOF 8
ENDMDL
MODEL 8
REMARK VINA RESULT:      -7.4      3.161      6.973
REMARK  8 active torsions:
REMARK  status: ('A' for Active; 'I' for Inactive)
REMARK    1  A    between atoms: C_2  and  O_3 
REMARK    2  A    between atoms: O_3  and  C_4 
REMARK    3  A    between atoms: C_6  and  O_7 
REMARK    4  A    between atoms: O_7  and  C_8 
REMARK    5  A    between atoms: C_11  and  C_12 
REMARK       I    between atoms: C_12  and  N_13 
REMARK    6  A    between atoms: N_13  and  C_14 
REMARK    7  A    between atoms: C_14  and  N_15 
REMARK    8  A    between atoms: N_15  and  C_16 
ROOT
HETATM    1  C   UNL     1     -42.582  58.062 -56.762  1.00  0.00     0.237 C 
HETATM    2  N   UNL     1     -42.189  56.802 -57.176  1.00  0.00    -0.201 NA
HETATM    3  O   UNL     1     -42.463  59.050 -57.478  1.00  0.00    -0.274 OA
HETATM    4  H   UNL     1     -41.480  56.931 -57.892  1.00  0.00     0.139 HD
ENDROOT
BRANCH   2   5
HETATM    5  C   UNL     1     -43.007  55.799 -57.646  1.00  0.00     0.157 C 
HETATM    6  S   UNL     1     -43.610  55.653 -59.198  1.00  0.00    -0.047 SA
BRANCH   5   7
HETATM    7  N   UNL     1     -43.269  54.778 -56.765  1.00  0.00    -0.337 N 
HETATM    8  H   UNL     1     -44.015  54.166 -57.083  1.00  0.00     0.168 HD
BRANCH   7   9
HETATM    9  C   UNL     1     -42.758  54.506 -55.475  1.00  0.00     0.036 A 
HETATM   10  C   UNL     1     -43.621  54.756 -54.394  1.00  0.00     0.061 A 
HETATM   11  C   UNL     1     -43.126  54.545 -53.126  1.00  0.00     0.065 A 
HETATM   12  C   UNL     1     -41.824  54.111 -52.899  1.00  0.00     0.063 A 
HETATM   13  N   UNL     1     -43.740  54.716 -51.890  1.00  0.00    -0.306 N 
HETATM   14  N   UNL     1     -41.633  54.018 -51.526  1.00  0.00    -0.307 N 
HETATM   15  C   UNL     1     -40.950  53.865 -53.927  1.00  0.00     0.034 A 
HETATM   16  C   UNL     1     -42.819  54.396 -50.881  1.00  0.00     0.325 A 
HETATM   17  H   UNL     1     -40.795  53.745 -51.040  1.00  0.00     0.170 HD
HETATM   18  O   UNL     1     -43.012  54.443 -49.680  1.00  0.00    -0.247 OA
HETATM   19  C   UNL     1     -41.431  54.075 -55.229  1.00  0.00     0.032 A 
HETATM   20  H   UNL     1     -44.679  55.030 -51.707  1.00  0.00     0.170 HD
ENDBRANCH   7   9
ENDBRANCH   5   7
ENDBRANCH   2   5
BRANCH   1  21
HETATM   21  C   UNL     1     -42.790  58.212 -55.301  1.00  0.00     0.032 A 
HETATM   22  C   UNL     1     -41.710  57.858 -54.483  1.00  0.00     0.053 A 
HETATM   23  C   UNL     1     -41.848  57.905 -53.101  1.00  0.00     0.072 A 
HETATM   24  C   UNL     1     -43.060  58.303 -52.541  1.00  0.00     0.073 A 
HETATM   25  C   UNL     1     -44.130  58.695 -53.352  1.00  0.00     0.072 A 
HETATM   26  C   UNL     1     -44.000  58.634 -54.741  1.00  0.00     0.053 A 
BRANCH  23  27
HETATM   27  O   UNL     1     -40.875  57.494 -52.235  1.00  0.00    -0.351 OA
BRANCH  27  28
HETATM   28  C   UNL     1     -40.934  58.097 -50.938  1.00  0.00     0.171 C 
HETATM   29  C   UNL     1     -39.878  59.183 -50.824  1.00  0.00     0.034 C 
ENDBRANCH  27  28
ENDBRANCH  23  27
BRANCH  25  30
HETATM   30  O   UNL     1     -45.235  59.109 -52.662  1.00  0.00    -0.351 OA
BRANCH  30  31
HETATM   31  C   UNL     1     -45.766  60.396 -52.974  1.00  0.00     0.171 C 
HETATM   32  C   UNL     1     -46.649  60.825 -51.815  1.00  0.00     0.034 C 
ENDBRANCH  30  31
ENDBRANCH  25  30
ENDBRANCH   1  21
TORSDOF 8
ENDMDL
MODEL 9
REMARK VINA RESULT:      -7.3     15.169     16.468
REMARK  8 active torsions:
REMARK  status: ('A' for Active; 'I' for Inactive)
REMARK    1  A    between atoms: C_2  and  O_3 
REMARK    2  A    between atoms: O_3  and  C_4 
REMARK    3  A    between atoms: C_6  and  O_7 
REMARK    4  A    between atoms: O_7  and  C_8 
REMARK    5  A    between atoms: C_11  and  C_12 
REMARK       I    between atoms: C_12  and  N_13 
REMARK    6  A    between atoms: N_13  and  C_14 
REMARK    7  A    between atoms: C_14  and  N_15 
REMARK    8  A    between atoms: N_15  and  C_16 
ROOT
HETATM    1  C   UNL     1     -36.254  39.129 -52.243  1.00  0.00     0.237 C 
HETATM    2  N   UNL     1     -37.174  40.044 -51.762  1.00  0.00    -0.201 NA
HETATM    3  O   UNL     1     -36.545  37.953 -52.436  1.00  0.00    -0.274 OA
HETATM    4  H   UNL     1     -37.880  39.519 -51.255  1.00  0.00     0.139 HD
ENDROOT
BRANCH   2   5
HETATM    5  C   UNL     1     -37.868  40.976 -52.500  1.00  0.00     0.157 C 
HETATM    6  S   UNL     1     -39.527  41.184 -52.531  1.00  0.00    -0.047 SA
BRANCH   5   7
HETATM    7  N   UNL     1     -37.104  41.875 -53.203  1.00  0.00    -0.337 N 
HETATM    8  H   UNL     1     -36.818  42.673 -52.642  1.00  0.00     0.168 HD
BRANCH   7   9
HETATM    9  C   UNL     1     -36.744  41.924 -54.570  1.00  0.00     0.036 A 
HETATM   10  C   UNL     1     -37.659  41.364 -55.479  1.00  0.00     0.061 A 
HETATM   11  C   UNL     1     -37.306  41.357 -56.810  1.00  0.00     0.065 A 
HETATM   12  C   UNL     1     -36.094  41.869 -57.260  1.00  0.00     0.063 A 
HETATM   13  N   UNL     1     -37.999  40.868 -57.913  1.00  0.00    -0.306 N 
HETATM   14  N   UNL     1     -36.036  41.693 -58.637  1.00  0.00    -0.307 N 
HETATM   15  C   UNL     1     -35.172  42.414 -56.404  1.00  0.00     0.034 A 
HETATM   16  C   UNL     1     -37.216  41.066 -59.060  1.00  0.00     0.325 A 
HETATM   17  H   UNL     1     -35.283  41.945 -59.257  1.00  0.00     0.170 HD
HETATM   18  O   UNL     1     -37.504  40.749 -60.200  1.00  0.00    -0.247 OA
HETATM   19  C   UNL     1     -35.508  42.432 -55.040  1.00  0.00     0.032 A 
HETATM   20  H   UNL     1     -38.903  40.426 -57.925  1.00  0.00     0.170 HD
ENDBRANCH   7   9
ENDBRANCH   5   7
ENDBRANCH   2   5
BRANCH   1  21
HETATM   21  C   UNL     1     -34.835  39.548 -52.147  1.00  0.00     0.032 A 
HETATM   22  C   UNL     1     -34.327  39.720 -50.854  1.00  0.00     0.053 A 
HETATM   23  C   UNL     1     -33.026  40.176 -50.679  1.00  0.00     0.072 A 
HETATM   24  C   UNL     1     -32.239  40.461 -51.793  1.00  0.00     0.073 A 
HETATM   25  C   UNL     1     -32.727  40.255 -53.087  1.00  0.00     0.072 A 
HETATM   26  C   UNL     1     -34.039  39.811 -53.266  1.00  0.00     0.053 A 
BRANCH  23  27
HETATM   27  O   UNL     1     -32.485  40.452 -49.456  1.00  0.00    -0.351 OA
BRANCH  27  28
HETATM   28  C   UNL     1     -32.267  39.307 -48.625  1.00  0.00     0.171 C 
HETATM   29  C   UNL     1     -31.173  39.602 -47.613  1.00  0.00     0.034 C 
ENDBRANCH  27  28
ENDBRANCH  23  27
BRANCH  25  30
HETATM   30  O   UNL     1     -31.825  40.529 -54.078  1.00  0.00    -0.351 OA
BRANCH  30  31
HETATM   31  C   UNL     1     -31.622  39.534 -55.080  1.00  0.00     0.171 C 
HETATM   32  C   UNL     1     -32.083  40.113 -56.407  1.00  0.00     0.034 C 
ENDBRANCH  30  31
ENDBRANCH  25  30
ENDBRANCH   1  21
TORSDOF 8
ENDMDL
MODEL 10
REMARK VINA RESULT:      -7.3      2.360      2.843
REMARK  8 active torsions:
REMARK  status: ('A' for Active; 'I' for Inactive)
REMARK    1  A    between atoms: C_2  and  O_3 
REMARK    2  A    between atoms: O_3  and  C_4 
REMARK    3  A    between atoms: C_6  and  O_7 
REMARK    4  A    between atoms: O_7  and  C_8 
REMARK    5  A    between atoms: C_11  and  C_12 
REMARK       I    between atoms: C_12  and  N_13 
REMARK    6  A    between atoms: N_13  and  C_14 
REMARK    7  A    between atoms: C_14  and  N_15 
REMARK    8  A    between atoms: N_15  and  C_16 
ROOT
HETATM    1  C   UNL     1     -40.722  58.979 -52.677  1.00  0.00     0.237 C 
HETATM    2  N   UNL     1     -40.952  59.400 -53.975  1.00  0.00    -0.201 NA
HETATM    3  O   UNL     1     -40.052  59.637 -51.889  1.00  0.00    -0.274 OA
HETATM    4  H   UNL     1     -40.193  60.027 -54.225  1.00  0.00     0.139 HD
ENDROOT
BRANCH   2   5
HETATM    5  C   UNL     1     -42.095  59.998 -54.456  1.00  0.00     0.157 C 
HETATM    6  S   UNL     1     -43.380  60.561 -53.546  1.00  0.00    -0.047 SA
BRANCH   5   7
HETATM    7  N   UNL     1     -42.128  60.229 -55.809  1.00  0.00    -0.337 N 
HETATM    8  H   UNL     1     -42.072  61.216 -56.042  1.00  0.00     0.168 HD
BRANCH   7   9
HETATM    9  C   UNL     1     -42.326  59.350 -56.900  1.00  0.00     0.036 A 
HETATM   10  C   UNL     1     -43.060  58.180 -56.637  1.00  0.00     0.061 A 
HETATM   11  C   UNL     1     -43.222  57.288 -57.673  1.00  0.00     0.065 A 
HETATM   12  C   UNL     1     -42.682  57.509 -58.936  1.00  0.00     0.063 A 
HETATM   13  N   UNL     1     -43.882  56.064 -57.700  1.00  0.00    -0.306 N 
HETATM   14  N   UNL     1     -43.004  56.423 -59.739  1.00  0.00    -0.307 N 
HETATM   15  C   UNL     1     -41.953  58.633 -59.228  1.00  0.00     0.034 A 
HETATM   16  C   UNL     1     -43.750  55.508 -58.981  1.00  0.00     0.325 A 
HETATM   17  H   UNL     1     -42.749  56.273 -60.701  1.00  0.00     0.170 HD
HETATM   18  O   UNL     1     -44.193  54.439 -59.359  1.00  0.00    -0.247 OA
HETATM   19  C   UNL     1     -41.773  59.558 -58.187  1.00  0.00     0.032 A 
HETATM   20  H   UNL     1     -44.369  55.610 -56.944  1.00  0.00     0.170 HD
ENDBRANCH   7   9
ENDBRANCH   5   7
ENDBRANCH   2   5
BRANCH   1  21
HETATM   21  C   UNL     1     -40.998  57.546 -52.419  1.00  0.00     0.032 A 
HETATM   22  C   UNL     1     -41.230  57.191 -51.084  1.00  0.00     0.053 A 
HETATM   23  C   UNL     1     -41.430  55.857 -50.750  1.00  0.00     0.072 A 
HETATM   24  C   UNL     1     -41.395  54.883 -51.746  1.00  0.00     0.073 A 
HETATM   25  C   UNL     1     -41.202  55.234 -53.086  1.00  0.00     0.072 A 
HETATM   26  C   UNL     1     -40.987  56.572 -53.423  1.00  0.00     0.053 A 
BRANCH  23  27
HETATM   27  O   UNL     1     -41.575  55.418 -49.465  1.00  0.00    -0.351 OA
BRANCH  27  28
HETATM   28  C   UNL     1     -41.152  54.070 -49.240  1.00  0.00     0.171 C 
HETATM   29  C   UNL     1     -40.283  53.999 -47.996  1.00  0.00     0.034 C 
ENDBRANCH  27  28
ENDBRANCH  23  27
BRANCH  25  30
HETATM   30  O   UNL     1     -41.244  54.180 -53.954  1.00  0.00    -0.351 OA
BRANCH  30  31
HETATM   31  C   UNL     1     -41.135  52.867 -53.406  1.00  0.00     0.171 C 
HETATM   32  C   UNL     1     -40.245  52.052 -54.328  1.00  0.00     0.034 C 
ENDBRANCH  30  31
ENDBRANCH  25  30
ENDBRANCH   1  21
TORSDOF 8
ENDMDL
