MODEL 1
REMARK VINA RESULT:      -9.0      0.000      0.000
REMARK  9 active torsions:
REMARK  status: ('A' for Active; 'I' for Inactive)
REMARK       I    between atoms: N_2  and  C_3 
REMARK    1  A    between atoms: N_2  and  C_28 
REMARK    2  A    between atoms: C_3  and  C_4 
REMARK    3  A    between atoms: C_6  and  N_7 
REMARK       I    between atoms: N_7  and  C_8 
REMARK    4  A    between atoms: C_8  and  C_9 
REMARK    5  A    between atoms: C_9  and  O_10 
REMARK    6  A    between atoms: N_17  and  C_18 
REMARK    7  A    between atoms: C_18  and  C_19 
REMARK    8  A    between atoms: C_19  and  C_20 
REMARK    9  A    between atoms: C_28  and  C_29 
ROOT
HETATM    1  C   UNL     1     -44.466  57.721 -52.612  1.00  0.00     0.036 C 
HETATM    2  C   UNL     1     -43.478  57.244 -51.748  1.00  0.00     0.049 C 
HETATM    3  C   UNL     1     -42.644  56.165 -52.091  1.00  0.00     0.065 C 
HETATM    4  C   UNL     1     -42.766  55.670 -53.407  1.00  0.00     0.091 C 
HETATM    5  C   UNL     1     -43.803  56.095 -54.250  1.00  0.00     0.088 C 
HETATM    6  N   UNL     1     -43.818  55.396 -55.426  1.00  0.00    -0.242 NA
HETATM    7  C   UNL     1     -42.773  54.612 -55.367  1.00  0.00     0.210 C 
HETATM    8  N   UNL     1     -42.052  54.797 -54.210  1.00  0.00    -0.337 N 
HETATM    9  C   UNL     1     -44.661  57.130 -53.861  1.00  0.00     0.051 C 
ENDROOT
BRANCH   1  10
HETATM   10  C   UNL     1     -45.233  58.947 -52.288  1.00  0.00     0.253 C 
HETATM   11  N   UNL     1     -45.353  59.973 -53.230  1.00  0.00    -0.350 N 
HETATM   12  C   UNL     1     -46.297  61.041 -52.924  1.00  0.00     0.153 C 
HETATM   13  O   UNL     1     -45.787  58.973 -51.189  1.00  0.00    -0.267 OA
BRANCH  11  14
HETATM   14  C   UNL     1     -44.340  60.260 -54.267  1.00  0.00     0.158 C 
BRANCH  14  15
HETATM   15  C   UNL     1     -42.996  60.791 -53.729  1.00  0.00     0.151 A 
HETATM   16  O   UNL     1     -43.087  60.967 -52.286  1.00  0.00    -0.343 OA
HETATM   17  C   UNL     1     -42.006  60.322 -51.765  1.00  0.00     0.075 A 
HETATM   18  C   UNL     1     -41.247  59.646 -52.700  1.00  0.00    -0.022 A 
HETATM   19  C   UNL     1     -41.689  60.316 -50.422  1.00  0.00     0.037 A 
HETATM   20  C   UNL     1     -41.841  59.816 -54.043  1.00  0.00     0.075 A 
HETATM   21  C   UNL     1     -40.130  58.923 -52.315  1.00  0.00     0.010 A 
HETATM   22  C   UNL     1     -39.788  58.903 -50.958  1.00  0.00     0.001 A 
HETATM   23  C   UNL     1     -40.562  59.597 -50.015  1.00  0.00     0.003 A 
ENDBRANCH  14  15
ENDBRANCH  11  14
ENDBRANCH   1  10
BRANCH   3  24
HETATM   24  N   UNL     1     -41.759  55.584 -51.165  1.00  0.00    -0.323 N 
HETATM   25  C   UNL     1     -42.085  54.686 -50.159  1.00  0.00     0.246 C 
HETATM   26  O   UNL     1     -43.210  54.291 -49.863  1.00  0.00    -0.271 OA
HETATM   27  H   UNL     1     -40.767  55.635 -51.351  1.00  0.00     0.169 HD
BRANCH  25  28
HETATM   28  C   UNL     1     -40.852  54.139 -49.431  1.00  0.00     0.270 C 
BRANCH  28  29
HETATM   29  O   UNL     1     -41.137  53.771 -48.082  1.00  0.00    -0.387 OA
HETATM   30  C   UNL     1     -39.971  53.849 -47.267  1.00  0.00     0.202 C 
ENDBRANCH  28  29
ENDBRANCH  25  28
ENDBRANCH   3  24
BRANCH   8  31
HETATM   31  C   UNL     1     -40.639  54.473 -54.151  1.00  0.00     0.134 C 
BRANCH  31  32
HETATM   32  C   UNL     1     -40.163  53.137 -54.727  1.00  0.00     0.058 C 
BRANCH  32  33
HETATM   33  C   UNL     1     -39.940  52.000 -53.769  1.00  0.00    -0.057 A 
HETATM   34  C   UNL     1     -39.857  52.212 -52.388  1.00  0.00     0.007 A 
HETATM   35  C   UNL     1     -39.670  51.136 -51.518  1.00  0.00     0.001 A 
HETATM   36  C   UNL     1     -39.587  49.838 -52.018  1.00  0.00     0.000 A 
HETATM   37  C   UNL     1     -39.687  49.612 -53.388  1.00  0.00     0.001 A 
HETATM   38  C   UNL     1     -39.861  50.687 -54.259  1.00  0.00     0.007 A 
ENDBRANCH  32  33
ENDBRANCH  31  32
ENDBRANCH   8  31
TORSDOF 9
ENDMDL
MODEL 2
REMARK VINA RESULT:      -8.7      1.535      2.626
REMARK  9 active torsions:
REMARK  status: ('A' for Active; 'I' for Inactive)
REMARK       I    between atoms: N_2  and  C_3 
REMARK    1  A    between atoms: N_2  and  C_28 
REMARK    2  A    between atoms: C_3  and  C_4 
REMARK    3  A    between atoms: C_6  and  N_7 
REMARK       I    between atoms: N_7  and  C_8 
REMARK    4  A    between atoms: C_8  and  C_9 
REMARK    5  A    between atoms: C_9  and  O_10 
REMARK    6  A    between atoms: N_17  and  C_18 
REMARK    7  A    between atoms: C_18  and  C_19 
REMARK    8  A    between atoms: C_19  and  C_20 
REMARK    9  A    between atoms: C_28  and  C_29 
ROOT
HETATM    1  C   UNL     1     -44.850  57.921 -51.701  1.00  0.00     0.036 C 
HETATM    2  C   UNL     1     -44.000  57.096 -50.961  1.00  0.00     0.049 C 
HETATM    3  C   UNL     1     -43.193  56.119 -51.570  1.00  0.00     0.065 C 
HETATM    4  C   UNL     1     -43.186  56.098 -52.981  1.00  0.00     0.091 C 
HETATM    5  C   UNL     1     -44.090  56.871 -53.723  1.00  0.00     0.088 C 
HETATM    6  N   UNL     1     -44.005  56.604 -55.062  1.00  0.00    -0.242 NA
HETATM    7  C   UNL     1     -43.021  55.751 -55.175  1.00  0.00     0.210 C 
HETATM    8  N   UNL     1     -42.432  55.477 -53.962  1.00  0.00    -0.337 N 
HETATM    9  C   UNL     1     -44.929  57.795 -53.088  1.00  0.00     0.051 C 
ENDROOT
BRANCH   1  10
HETATM   10  C   UNL     1     -45.581  59.037 -51.055  1.00  0.00     0.253 C 
HETATM   11  N   UNL     1     -45.023  60.318 -51.021  1.00  0.00    -0.350 N 
HETATM   12  C   UNL     1     -45.888  61.401 -50.568  1.00  0.00     0.153 C 
HETATM   13  O   UNL     1     -46.700  58.776 -50.614  1.00  0.00    -0.267 OA
BRANCH  11  14
HETATM   14  C   UNL     1     -43.569  60.583 -51.014  1.00  0.00     0.158 C 
BRANCH  14  15
HETATM   15  C   UNL     1     -43.019  61.214 -52.308  1.00  0.00     0.151 A 
HETATM   16  O   UNL     1     -42.088  60.288 -52.941  1.00  0.00    -0.343 OA
HETATM   17  C   UNL     1     -42.493  60.183 -54.237  1.00  0.00     0.075 A 
HETATM   18  C   UNL     1     -43.659  60.868 -54.522  1.00  0.00    -0.022 A 
HETATM   19  C   UNL     1     -41.823  59.450 -55.194  1.00  0.00     0.037 A 
HETATM   20  C   UNL     1     -44.155  61.539 -53.301  1.00  0.00     0.075 A 
HETATM   21  C   UNL     1     -44.206  60.835 -55.794  1.00  0.00     0.010 A 
HETATM   22  C   UNL     1     -43.544  60.097 -56.781  1.00  0.00     0.001 A 
HETATM   23  C   UNL     1     -42.357  59.408 -56.485  1.00  0.00     0.003 A 
ENDBRANCH  14  15
ENDBRANCH  11  14
ENDBRANCH   1  10
BRANCH   3  24
HETATM   24  N   UNL     1     -42.457  55.186 -50.817  1.00  0.00    -0.323 N 
HETATM   25  C   UNL     1     -41.253  55.411 -50.166  1.00  0.00     0.246 C 
HETATM   26  O   UNL     1     -40.591  56.447 -50.185  1.00  0.00    -0.271 OA
HETATM   27  H   UNL     1     -42.916  54.333 -50.528  1.00  0.00     0.169 HD
BRANCH  25  28
HETATM   28  C   UNL     1     -40.806  54.217 -49.315  1.00  0.00     0.270 C 
BRANCH  28  29
HETATM   29  O   UNL     1     -40.834  54.505 -47.918  1.00  0.00    -0.387 OA
HETATM   30  C   UNL     1     -39.883  53.718 -47.209  1.00  0.00     0.202 C 
ENDBRANCH  28  29
ENDBRANCH  25  28
ENDBRANCH   3  24
BRANCH   8  31
HETATM   31  C   UNL     1     -41.056  55.023 -53.886  1.00  0.00     0.134 C 
BRANCH  31  32
HETATM   32  C   UNL     1     -40.651  53.761 -54.652  1.00  0.00     0.058 C 
BRANCH  32  33
HETATM   33  C   UNL     1     -40.299  52.538 -53.852  1.00  0.00    -0.057 A 
HETATM   34  C   UNL     1     -40.186  51.278 -54.453  1.00  0.00     0.007 A 
HETATM   35  C   UNL     1     -39.837  50.161 -53.691  1.00  0.00     0.001 A 
HETATM   36  C   UNL     1     -39.577  50.296 -52.329  1.00  0.00     0.000 A 
HETATM   37  C   UNL     1     -39.667  51.547 -51.724  1.00  0.00     0.001 A 
HETATM   38  C   UNL     1     -40.027  52.661 -52.481  1.00  0.00     0.007 A 
ENDBRANCH  32  33
ENDBRANCH  31  32
ENDBRANCH   8  31
TORSDOF 9
ENDMDL
MODEL 3
REMARK VINA RESULT:      -8.6      2.416      3.774
REMARK  9 active torsions:
REMARK  status: ('A' for Active; 'I' for Inactive)
REMARK       I    between atoms: N_2  and  C_3 
REMARK    1  A    between atoms: N_2  and  C_28 
REMARK    2  A    between atoms: C_3  and  C_4 
REMARK    3  A    between atoms: C_6  and  N_7 
REMARK       I    between atoms: N_7  and  C_8 
REMARK    4  A    between atoms: C_8  and  C_9 
REMARK    5  A    between atoms: C_9  and  O_10 
REMARK    6  A    between atoms: N_17  and  C_18 
REMARK    7  A    between atoms: C_18  and  C_19 
REMARK    8  A    between atoms: C_19  and  C_20 
REMARK    9  A    between atoms: C_28  and  C_29 
ROOT
HETATM    1  C   UNL     1     -42.201  59.512 -56.446  1.00  0.00     0.036 C 
HETATM    2  C   UNL     1     -41.793  59.364 -55.119  1.00  0.00     0.049 C 
HETATM    3  C   UNL     1     -41.785  58.114 -54.476  1.00  0.00     0.065 C 
HETATM    4  C   UNL     1     -42.087  56.993 -55.278  1.00  0.00     0.091 C 
HETATM    5  C   UNL     1     -42.568  57.144 -56.586  1.00  0.00     0.088 C 
HETATM    6  N   UNL     1     -42.923  55.942 -57.138  1.00  0.00    -0.242 NA
HETATM    7  C   UNL     1     -42.599  55.050 -56.239  1.00  0.00     0.210 C 
HETATM    8  N   UNL     1     -42.009  55.618 -55.134  1.00  0.00    -0.337 N 
HETATM    9  C   UNL     1     -42.625  58.408 -57.185  1.00  0.00     0.051 C 
ENDROOT
BRANCH   1  10
HETATM   10  C   UNL     1     -42.064  60.813 -57.145  1.00  0.00     0.253 C 
HETATM   11  N   UNL     1     -43.092  61.758 -57.083  1.00  0.00    -0.350 N 
HETATM   12  C   UNL     1     -42.797  63.087 -57.606  1.00  0.00     0.153 C 
HETATM   13  O   UNL     1     -40.993  61.017 -57.717  1.00  0.00    -0.267 OA
BRANCH  11  14
HETATM   14  C   UNL     1     -44.519  61.412 -56.918  1.00  0.00     0.158 C 
BRANCH  14  15
HETATM   15  C   UNL     1     -45.087  61.660 -55.506  1.00  0.00     0.151 A 
HETATM   16  O   UNL     1     -45.509  60.392 -54.924  1.00  0.00    -0.343 OA
HETATM   17  C   UNL     1     -44.925  60.336 -53.695  1.00  0.00     0.075 A 
HETATM   18  C   UNL     1     -44.073  61.390 -53.425  1.00  0.00    -0.022 A 
HETATM   19  C   UNL     1     -45.136  59.316 -52.790  1.00  0.00     0.037 A 
HETATM   20  C   UNL     1     -44.033  62.309 -54.584  1.00  0.00     0.075 A 
HETATM   21  C   UNL     1     -43.389  61.456 -52.223  1.00  0.00     0.010 A 
HETATM   22  C   UNL     1     -43.587  60.433 -51.290  1.00  0.00     0.001 A 
HETATM   23  C   UNL     1     -44.458  59.368 -51.570  1.00  0.00     0.003 A 
ENDBRANCH  14  15
ENDBRANCH  11  14
ENDBRANCH   1  10
BRANCH   3  24
HETATM   24  N   UNL     1     -41.526  57.986 -53.100  1.00  0.00    -0.323 N 
HETATM   25  C   UNL     1     -40.438  58.500 -52.410  1.00  0.00     0.246 C 
HETATM   26  O   UNL     1     -39.482  59.105 -52.892  1.00  0.00    -0.271 OA
HETATM   27  H   UNL     1     -42.277  57.683 -52.495  1.00  0.00     0.169 HD
BRANCH  25  28
HETATM   28  C   UNL     1     -40.548  58.301 -50.894  1.00  0.00     0.270 C 
BRANCH  28  29
HETATM   29  O   UNL     1     -41.563  57.361 -50.543  1.00  0.00    -0.387 OA
HETATM   30  C   UNL     1     -41.000  56.107 -50.169  1.00  0.00     0.202 C 
ENDBRANCH  28  29
ENDBRANCH  25  28
ENDBRANCH   3  24
BRANCH   8  31
HETATM   31  C   UNL     1     -41.113  54.852 -54.289  1.00  0.00     0.134 C 
BRANCH  31  32
HETATM   32  C   UNL     1     -40.614  53.492 -54.783  1.00  0.00     0.058 C 
BRANCH  32  33
HETATM   33  C   UNL     1     -40.231  52.468 -53.750  1.00  0.00    -0.057 A 
HETATM   34  C   UNL     1     -40.153  52.793 -52.391  1.00  0.00     0.007 A 
HETATM   35  C   UNL     1     -39.816  51.818 -51.450  1.00  0.00     0.001 A 
HETATM   36  C   UNL     1     -39.575  50.507 -51.855  1.00  0.00     0.000 A 
HETATM   37  C   UNL     1     -39.668  50.167 -53.202  1.00  0.00     0.001 A 
HETATM   38  C   UNL     1     -39.992  51.142 -54.145  1.00  0.00     0.007 A 
ENDBRANCH  32  33
ENDBRANCH  31  32
ENDBRANCH   8  31
TORSDOF 9
ENDMDL
MODEL 4
REMARK VINA RESULT:      -8.5      3.732      5.931
REMARK  9 active torsions:
REMARK  status: ('A' for Active; 'I' for Inactive)
REMARK       I    between atoms: N_2  and  C_3 
REMARK    1  A    between atoms: N_2  and  C_28 
REMARK    2  A    between atoms: C_3  and  C_4 
REMARK    3  A    between atoms: C_6  and  N_7 
REMARK       I    between atoms: N_7  and  C_8 
REMARK    4  A    between atoms: C_8  and  C_9 
REMARK    5  A    between atoms: C_9  and  O_10 
REMARK    6  A    between atoms: N_17  and  C_18 
REMARK    7  A    between atoms: C_18  and  C_19 
REMARK    8  A    between atoms: C_19  and  C_20 
REMARK    9  A    between atoms: C_28  and  C_29 
ROOT
HETATM    1  C   UNL     1     -42.244  59.244 -56.516  1.00  0.00     0.036 C 
HETATM    2  C   UNL     1     -41.895  59.348 -55.167  1.00  0.00     0.049 C 
HETATM    3  C   UNL     1     -41.792  58.221 -54.334  1.00  0.00     0.065 C 
HETATM    4  C   UNL     1     -41.931  56.963 -54.958  1.00  0.00     0.091 C 
HETATM    5  C   UNL     1     -42.353  56.856 -56.291  1.00  0.00     0.088 C 
HETATM    6  N   UNL     1     -42.549  55.552 -56.657  1.00  0.00    -0.242 NA
HETATM    7  C   UNL     1     -42.183  54.850 -55.616  1.00  0.00     0.210 C 
HETATM    8  N   UNL     1     -41.718  55.644 -54.594  1.00  0.00    -0.337 N 
HETATM    9  C   UNL     1     -42.508  57.998 -57.085  1.00  0.00     0.051 C 
ENDROOT
BRANCH   1  10
HETATM   10  C   UNL     1     -42.206  60.428 -57.406  1.00  0.00     0.253 C 
HETATM   11  N   UNL     1     -43.375  61.144 -57.677  1.00  0.00    -0.350 N 
HETATM   12  C   UNL     1     -43.222  62.414 -58.377  1.00  0.00     0.153 C 
HETATM   13  O   UNL     1     -41.098  60.758 -57.831  1.00  0.00    -0.267 OA
BRANCH  11  14
HETATM   14  C   UNL     1     -44.725  60.545 -57.678  1.00  0.00     0.158 C 
BRANCH  14  15
HETATM   15  C   UNL     1     -45.179  59.974 -59.036  1.00  0.00     0.151 A 
HETATM   16  O   UNL     1     -44.130  59.121 -59.579  1.00  0.00    -0.343 OA
HETATM   17  C   UNL     1     -44.740  57.947 -59.905  1.00  0.00     0.075 A 
HETATM   18  C   UNL     1     -46.073  57.885 -59.550  1.00  0.00    -0.022 A 
HETATM   19  C   UNL     1     -44.097  56.892 -60.520  1.00  0.00     0.037 A 
HETATM   20  C   UNL     1     -46.475  59.148 -58.894  1.00  0.00     0.075 A 
HETATM   21  C   UNL     1     -46.819  56.744 -59.798  1.00  0.00     0.010 A 
HETATM   22  C   UNL     1     -46.188  55.662 -60.421  1.00  0.00     0.001 A 
HETATM   23  C   UNL     1     -44.834  55.735 -60.782  1.00  0.00     0.003 A 
ENDBRANCH  14  15
ENDBRANCH  11  14
ENDBRANCH   1  10
BRANCH   3  24
HETATM   24  N   UNL     1     -41.596  58.336 -52.946  1.00  0.00    -0.323 N 
HETATM   25  C   UNL     1     -40.464  58.818 -52.306  1.00  0.00     0.246 C 
HETATM   26  O   UNL     1     -39.414  59.172 -52.839  1.00  0.00    -0.271 OA
HETATM   27  H   UNL     1     -42.402  58.271 -52.339  1.00  0.00     0.169 HD
BRANCH  25  28
HETATM   28  C   UNL     1     -40.648  58.945 -50.790  1.00  0.00     0.270 C 
BRANCH  28  29
HETATM   29  O   UNL     1     -40.976  60.275 -50.392  1.00  0.00    -0.387 OA
HETATM   30  C   UNL     1     -42.386  60.456 -50.305  1.00  0.00     0.202 C 
ENDBRANCH  28  29
ENDBRANCH  25  28
ENDBRANCH   3  24
BRANCH   8  31
HETATM   31  C   UNL     1     -40.793  55.122 -53.605  1.00  0.00     0.134 C 
BRANCH  31  32
HETATM   32  C   UNL     1     -41.249  53.974 -52.701  1.00  0.00     0.058 C 
BRANCH  32  33
HETATM   33  C   UNL     1     -40.603  52.630 -52.894  1.00  0.00    -0.057 A 
HETATM   34  C   UNL     1     -39.945  51.977 -51.846  1.00  0.00     0.007 A 
HETATM   35  C   UNL     1     -39.372  50.719 -52.047  1.00  0.00     0.001 A 
HETATM   36  C   UNL     1     -39.470  50.095 -53.289  1.00  0.00     0.000 A 
HETATM   37  C   UNL     1     -40.139  50.727 -54.334  1.00  0.00     0.001 A 
HETATM   38  C   UNL     1     -40.701  51.988 -54.139  1.00  0.00     0.007 A 
ENDBRANCH  32  33
ENDBRANCH  31  32
ENDBRANCH   8  31
TORSDOF 9
ENDMDL
MODEL 5
REMARK VINA RESULT:      -8.5      3.427      5.128
REMARK  9 active torsions:
REMARK  status: ('A' for Active; 'I' for Inactive)
REMARK       I    between atoms: N_2  and  C_3 
REMARK    1  A    between atoms: N_2  and  C_28 
REMARK    2  A    between atoms: C_3  and  C_4 
REMARK    3  A    between atoms: C_6  and  N_7 
REMARK       I    between atoms: N_7  and  C_8 
REMARK    4  A    between atoms: C_8  and  C_9 
REMARK    5  A    between atoms: C_9  and  O_10 
REMARK    6  A    between atoms: N_17  and  C_18 
REMARK    7  A    between atoms: C_18  and  C_19 
REMARK    8  A    between atoms: C_19  and  C_20 
REMARK    9  A    between atoms: C_28  and  C_29 
ROOT
HETATM    1  C   UNL     1     -42.712  59.211 -55.509  1.00  0.00     0.036 C 
HETATM    2  C   UNL     1     -42.002  59.004 -54.324  1.00  0.00     0.049 C 
HETATM    3  C   UNL     1     -41.660  57.716 -53.876  1.00  0.00     0.065 C 
HETATM    4  C   UNL     1     -41.955  56.647 -54.749  1.00  0.00     0.091 C 
HETATM    5  C   UNL     1     -42.730  56.843 -55.901  1.00  0.00     0.088 C 
HETATM    6  N   UNL     1     -43.008  55.660 -56.531  1.00  0.00    -0.242 NA
HETATM    7  C   UNL     1     -42.360  54.753 -55.849  1.00  0.00     0.210 C 
HETATM    8  N   UNL     1     -41.636  55.301 -54.815  1.00  0.00    -0.337 N 
HETATM    9  C   UNL     1     -43.112  58.130 -56.294  1.00  0.00     0.051 C 
ENDROOT
BRANCH   1  10
HETATM   10  C   UNL     1     -42.934  60.580 -56.033  1.00  0.00     0.253 C 
HETATM   11  N   UNL     1     -42.653  60.878 -57.369  1.00  0.00    -0.350 N 
HETATM   12  C   UNL     1     -43.100  62.175 -57.863  1.00  0.00     0.153 C 
HETATM   13  O   UNL     1     -43.422  61.394 -55.248  1.00  0.00    -0.267 OA
BRANCH  11  14
HETATM   14  C   UNL     1     -41.619  60.185 -58.166  1.00  0.00     0.158 C 
BRANCH  14  15
HETATM   15  C   UNL     1     -42.134  59.529 -59.463  1.00  0.00     0.151 A 
HETATM   16  O   UNL     1     -41.701  58.138 -59.507  1.00  0.00    -0.343 OA
HETATM   17  C   UNL     1     -42.822  57.409 -59.764  1.00  0.00     0.075 A 
HETATM   18  C   UNL     1     -43.984  58.155 -59.803  1.00  0.00    -0.022 A 
HETATM   19  C   UNL     1     -42.823  56.042 -59.955  1.00  0.00     0.037 A 
HETATM   20  C   UNL     1     -43.674  59.577 -59.544  1.00  0.00     0.075 A 
HETATM   21  C   UNL     1     -45.208  57.546 -60.032  1.00  0.00     0.010 A 
HETATM   22  C   UNL     1     -45.233  56.162 -60.229  1.00  0.00     0.001 A 
HETATM   23  C   UNL     1     -44.047  55.412 -60.192  1.00  0.00     0.003 A 
ENDBRANCH  14  15
ENDBRANCH  11  14
ENDBRANCH   1  10
BRANCH   3  24
HETATM   24  N   UNL     1     -41.087  57.495 -52.611  1.00  0.00    -0.323 N 
HETATM   25  C   UNL     1     -41.738  57.038 -51.474  1.00  0.00     0.246 C 
HETATM   26  O   UNL     1     -42.939  56.804 -51.360  1.00  0.00    -0.271 OA
HETATM   27  H   UNL     1     -40.079  57.452 -52.540  1.00  0.00     0.169 HD
BRANCH  25  28
HETATM   28  C   UNL     1     -40.779  56.768 -50.309  1.00  0.00     0.270 C 
BRANCH  28  29
HETATM   29  O   UNL     1     -41.304  55.820 -49.381  1.00  0.00    -0.387 OA
HETATM   30  C   UNL     1     -40.511  54.637 -49.346  1.00  0.00     0.202 C 
ENDBRANCH  28  29
ENDBRANCH  25  28
ENDBRANCH   3  24
BRANCH   8  31
HETATM   31  C   UNL     1     -40.467  54.627 -54.282  1.00  0.00     0.134 C 
BRANCH  31  32
HETATM   32  C   UNL     1     -40.604  53.825 -52.985  1.00  0.00     0.058 C 
BRANCH  32  33
HETATM   33  C   UNL     1     -40.285  52.356 -53.031  1.00  0.00    -0.057 A 
HETATM   34  C   UNL     1     -40.387  51.623 -54.219  1.00  0.00     0.007 A 
HETATM   35  C   UNL     1     -40.065  50.264 -54.240  1.00  0.00     0.001 A 
HETATM   36  C   UNL     1     -39.618  49.633 -53.080  1.00  0.00     0.000 A 
HETATM   37  C   UNL     1     -39.494  50.357 -51.898  1.00  0.00     0.001 A 
HETATM   38  C   UNL     1     -39.828  51.710 -51.872  1.00  0.00     0.007 A 
ENDBRANCH  32  33
ENDBRANCH  31  32
ENDBRANCH   8  31
TORSDOF 9
ENDMDL
MODEL 6
REMARK VINA RESULT:      -8.4      3.656      5.596
REMARK  9 active torsions:
REMARK  status: ('A' for Active; 'I' for Inactive)
REMARK       I    between atoms: N_2  and  C_3 
REMARK    1  A    between atoms: N_2  and  C_28 
REMARK    2  A    between atoms: C_3  and  C_4 
REMARK    3  A    between atoms: C_6  and  N_7 
REMARK       I    between atoms: N_7  and  C_8 
REMARK    4  A    between atoms: C_8  and  C_9 
REMARK    5  A    between atoms: C_9  and  O_10 
REMARK    6  A    between atoms: N_17  and  C_18 
REMARK    7  A    between atoms: C_18  and  C_19 
REMARK    8  A    between atoms: C_19  and  C_20 
REMARK    9  A    between atoms: C_28  and  C_29 
ROOT
HETATM    1  C   UNL     1     -42.965  59.799 -56.092  1.00  0.00     0.036 C 
HETATM    2  C   UNL     1     -42.144  59.808 -54.963  1.00  0.00     0.049 C 
HETATM    3  C   UNL     1     -41.804  58.629 -54.277  1.00  0.00     0.065 C 
HETATM    4  C   UNL     1     -42.228  57.417 -54.863  1.00  0.00     0.091 C 
HETATM    5  C   UNL     1     -43.112  57.406 -55.952  1.00  0.00     0.088 C 
HETATM    6  N   UNL     1     -43.498  56.134 -56.279  1.00  0.00    -0.242 NA
HETATM    7  C   UNL     1     -42.816  55.358 -55.478  1.00  0.00     0.210 C 
HETATM    8  N   UNL     1     -41.968  56.071 -54.663  1.00  0.00    -0.337 N 
HETATM    9  C   UNL     1     -43.485  58.600 -56.580  1.00  0.00     0.051 C 
ENDROOT
BRANCH   1  10
HETATM   10  C   UNL     1     -43.191  61.034 -56.880  1.00  0.00     0.253 C 
HETATM   11  N   UNL     1     -42.840  61.082 -58.231  1.00  0.00    -0.350 N 
HETATM   12  C   UNL     1     -43.290  62.245 -58.988  1.00  0.00     0.153 C 
HETATM   13  O   UNL     1     -43.743  61.965 -56.293  1.00  0.00    -0.267 OA
BRANCH  11  14
HETATM   14  C   UNL     1     -41.745  60.287 -58.826  1.00  0.00     0.158 C 
BRANCH  14  15
HETATM   15  C   UNL     1     -42.175  59.343 -59.966  1.00  0.00     0.151 A 
HETATM   16  O   UNL     1     -41.715  57.991 -59.676  1.00  0.00    -0.343 OA
HETATM   17  C   UNL     1     -42.806  57.189 -59.818  1.00  0.00     0.075 A 
HETATM   18  C   UNL     1     -43.978  57.872 -60.081  1.00  0.00    -0.022 A 
HETATM   19  C   UNL     1     -42.771  55.815 -59.698  1.00  0.00     0.037 A 
HETATM   20  C   UNL     1     -43.710  59.325 -60.131  1.00  0.00     0.075 A 
HETATM   21  C   UNL     1     -45.176  57.191 -60.227  1.00  0.00     0.010 A 
HETATM   22  C   UNL     1     -45.164  55.797 -60.109  1.00  0.00     0.001 A 
HETATM   23  C   UNL     1     -43.968  55.111 -59.848  1.00  0.00     0.003 A 
ENDBRANCH  14  15
ENDBRANCH  11  14
ENDBRANCH   1  10
BRANCH   3  24
HETATM   24  N   UNL     1     -41.110  58.651 -53.055  1.00  0.00    -0.323 N 
HETATM   25  C   UNL     1     -41.616  58.312 -51.808  1.00  0.00     0.246 C 
HETATM   26  O   UNL     1     -42.774  57.991 -51.548  1.00  0.00    -0.271 OA
HETATM   27  H   UNL     1     -40.101  58.709 -53.075  1.00  0.00     0.169 HD
BRANCH  25  28
HETATM   28  C   UNL     1     -40.543  58.305 -50.714  1.00  0.00     0.270 C 
BRANCH  28  29
HETATM   29  O   UNL     1     -39.947  59.589 -50.531  1.00  0.00    -0.387 OA
HETATM   30  C   UNL     1     -38.526  59.515 -50.601  1.00  0.00     0.202 C 
ENDBRANCH  28  29
ENDBRANCH  25  28
ENDBRANCH   3  24
BRANCH   8  31
HETATM   31  C   UNL     1     -40.776  55.459 -54.107  1.00  0.00     0.134 C 
BRANCH  31  32
HETATM   32  C   UNL     1     -40.914  54.549 -52.885  1.00  0.00     0.058 C 
BRANCH  32  33
HETATM   33  C   UNL     1     -40.459  53.122 -53.019  1.00  0.00    -0.057 A 
HETATM   34  C   UNL     1     -39.876  52.436 -51.947  1.00  0.00     0.007 A 
HETATM   35  C   UNL     1     -39.481  51.105 -52.091  1.00  0.00     0.001 A 
HETATM   36  C   UNL     1     -39.685  50.441 -53.299  1.00  0.00     0.000 A 
HETATM   37  C   UNL     1     -40.282  51.106 -54.366  1.00  0.00     0.001 A 
HETATM   38  C   UNL     1     -40.665  52.439 -54.228  1.00  0.00     0.007 A 
ENDBRANCH  32  33
ENDBRANCH  31  32
ENDBRANCH   8  31
TORSDOF 9
ENDMDL
MODEL 7
REMARK VINA RESULT:      -8.4      2.960      5.135
REMARK  9 active torsions:
REMARK  status: ('A' for Active; 'I' for Inactive)
REMARK       I    between atoms: N_2  and  C_3 
REMARK    1  A    between atoms: N_2  and  C_28 
REMARK    2  A    between atoms: C_3  and  C_4 
REMARK    3  A    between atoms: C_6  and  N_7 
REMARK       I    between atoms: N_7  and  C_8 
REMARK    4  A    between atoms: C_8  and  C_9 
REMARK    5  A    between atoms: C_9  and  O_10 
REMARK    6  A    between atoms: N_17  and  C_18 
REMARK    7  A    between atoms: C_18  and  C_19 
REMARK    8  A    between atoms: C_19  and  C_20 
REMARK    9  A    between atoms: C_28  and  C_29 
ROOT
HETATM    1  C   UNL     1     -43.390  59.639 -55.233  1.00  0.00     0.036 C 
HETATM    2  C   UNL     1     -43.943  58.723 -56.131  1.00  0.00     0.049 C 
HETATM    3  C   UNL     1     -43.392  57.444 -56.325  1.00  0.00     0.065 C 
HETATM    4  C   UNL     1     -42.329  57.081 -55.472  1.00  0.00     0.091 C 
HETATM    5  C   UNL     1     -41.725  58.020 -54.624  1.00  0.00     0.088 C 
HETATM    6  N   UNL     1     -40.633  57.497 -53.985  1.00  0.00    -0.242 NA
HETATM    7  C   UNL     1     -40.596  56.243 -54.351  1.00  0.00     0.210 C 
HETATM    8  N   UNL     1     -41.645  55.913 -55.178  1.00  0.00    -0.337 N 
HETATM    9  C   UNL     1     -42.254  59.309 -54.493  1.00  0.00     0.051 C 
ENDROOT
BRANCH   1  10
HETATM   10  C   UNL     1     -44.069  60.923 -54.940  1.00  0.00     0.253 C 
HETATM   11  N   UNL     1     -44.889  61.046 -53.815  1.00  0.00    -0.350 N 
HETATM   12  C   UNL     1     -45.344  62.389 -53.475  1.00  0.00     0.153 C 
HETATM   13  O   UNL     1     -43.824  61.859 -55.701  1.00  0.00    -0.267 OA
BRANCH  11  14
HETATM   14  C   UNL     1     -45.636  59.921 -53.214  1.00  0.00     0.158 C 
BRANCH  14  15
HETATM   15  C   UNL     1     -45.111  59.454 -51.843  1.00  0.00     0.151 A 
HETATM   16  O   UNL     1     -44.873  58.016 -51.878  1.00  0.00    -0.343 OA
HETATM   17  C   UNL     1     -43.606  57.838 -51.412  1.00  0.00     0.075 A 
HETATM   18  C   UNL     1     -42.928  59.014 -51.155  1.00  0.00    -0.022 A 
HETATM   19  C   UNL     1     -43.024  56.602 -51.221  1.00  0.00     0.037 A 
HETATM   20  C   UNL     1     -43.795  60.170 -51.472  1.00  0.00     0.075 A 
HETATM   21  C   UNL     1     -41.621  58.992 -50.698  1.00  0.00     0.010 A 
HETATM   22  C   UNL     1     -41.010  57.749 -50.497  1.00  0.00     0.001 A 
HETATM   23  C   UNL     1     -41.707  56.559 -50.756  1.00  0.00     0.003 A 
ENDBRANCH  14  15
ENDBRANCH  11  14
ENDBRANCH   1  10
BRANCH   3  24
HETATM   24  N   UNL     1     -43.850  56.582 -57.338  1.00  0.00    -0.323 N 
HETATM   25  C   UNL     1     -43.320  56.446 -58.612  1.00  0.00     0.246 C 
HETATM   26  O   UNL     1     -42.396  57.097 -59.097  1.00  0.00    -0.271 OA
HETATM   27  H   UNL     1     -44.481  55.834 -57.084  1.00  0.00     0.169 HD
BRANCH  25  28
HETATM   28  C   UNL     1     -43.970  55.307 -59.406  1.00  0.00     0.270 C 
BRANCH  28  29
HETATM   29  O   UNL     1     -44.547  55.759 -60.631  1.00  0.00    -0.387 OA
HETATM   30  C   UNL     1     -45.799  56.399 -60.407  1.00  0.00     0.202 C 
ENDBRANCH  28  29
ENDBRANCH  25  28
ENDBRANCH   3  24
BRANCH   8  31
HETATM   31  C   UNL     1     -42.118  54.545 -55.274  1.00  0.00     0.134 C 
BRANCH  31  32
HETATM   32  C   UNL     1     -42.409  53.771 -53.986  1.00  0.00     0.058 C 
BRANCH  32  33
HETATM   33  C   UNL     1     -41.279  53.004 -53.359  1.00  0.00    -0.057 A 
HETATM   34  C   UNL     1     -40.900  53.217 -52.028  1.00  0.00     0.007 A 
HETATM   35  C   UNL     1     -39.860  52.476 -51.463  1.00  0.00     0.001 A 
HETATM   36  C   UNL     1     -39.206  51.502 -52.214  1.00  0.00     0.000 A 
HETATM   37  C   UNL     1     -39.586  51.268 -53.532  1.00  0.00     0.001 A 
HETATM   38  C   UNL     1     -40.616  52.015 -54.102  1.00  0.00     0.007 A 
ENDBRANCH  32  33
ENDBRANCH  31  32
ENDBRANCH   8  31
TORSDOF 9
ENDMDL
MODEL 8
REMARK VINA RESULT:      -8.1      4.006      7.939
REMARK  9 active torsions:
REMARK  status: ('A' for Active; 'I' for Inactive)
REMARK       I    between atoms: N_2  and  C_3 
REMARK    1  A    between atoms: N_2  and  C_28 
REMARK    2  A    between atoms: C_3  and  C_4 
REMARK    3  A    between atoms: C_6  and  N_7 
REMARK       I    between atoms: N_7  and  C_8 
REMARK    4  A    between atoms: C_8  and  C_9 
REMARK    5  A    between atoms: C_9  and  O_10 
REMARK    6  A    between atoms: N_17  and  C_18 
REMARK    7  A    between atoms: C_18  and  C_19 
REMARK    8  A    between atoms: C_19  and  C_20 
REMARK    9  A    between atoms: C_28  and  C_29 
ROOT
HETATM    1  C   UNL     1     -44.129  58.351 -54.312  1.00  0.00     0.036 C 
HETATM    2  C   UNL     1     -44.935  57.982 -55.391  1.00  0.00     0.049 C 
HETATM    3  C   UNL     1     -44.666  58.411 -56.703  1.00  0.00     0.065 C 
HETATM    4  C   UNL     1     -43.466  59.126 -56.897  1.00  0.00     0.091 C 
HETATM    5  C   UNL     1     -42.694  59.560 -55.810  1.00  0.00     0.088 C 
HETATM    6  N   UNL     1     -41.649  60.346 -56.212  1.00  0.00    -0.242 NA
HETATM    7  C   UNL     1     -41.705  60.341 -57.518  1.00  0.00     0.210 C 
HETATM    8  N   UNL     1     -42.727  59.550 -57.989  1.00  0.00    -0.337 N 
HETATM    9  C   UNL     1     -43.018  59.171 -54.505  1.00  0.00     0.051 C 
ENDROOT
BRANCH   1  10
HETATM   10  C   UNL     1     -44.349  57.771 -52.965  1.00  0.00     0.253 C 
HETATM   11  N   UNL     1     -43.738  56.566 -52.609  1.00  0.00    -0.350 N 
HETATM   12  C   UNL     1     -43.823  56.174 -51.206  1.00  0.00     0.153 C 
HETATM   13  O   UNL     1     -45.039  58.433 -52.190  1.00  0.00    -0.267 OA
BRANCH  11  14
HETATM   14  C   UNL     1     -43.389  55.503 -53.574  1.00  0.00     0.158 C 
BRANCH  14  15
HETATM   15  C   UNL     1     -41.883  55.194 -53.680  1.00  0.00     0.151 A 
HETATM   16  O   UNL     1     -41.397  54.703 -52.396  1.00  0.00    -0.343 OA
HETATM   17  C   UNL     1     -40.732  53.546 -52.669  1.00  0.00     0.075 A 
HETATM   18  C   UNL     1     -40.800  53.154 -53.992  1.00  0.00    -0.022 A 
HETATM   19  C   UNL     1     -40.058  52.806 -51.720  1.00  0.00     0.037 A 
HETATM   20  C   UNL     1     -41.602  54.129 -54.762  1.00  0.00     0.075 A 
HETATM   21  C   UNL     1     -40.190  51.985 -54.415  1.00  0.00     0.010 A 
HETATM   22  C   UNL     1     -39.500  51.218 -53.470  1.00  0.00     0.001 A 
HETATM   23  C   UNL     1     -39.432  51.625 -52.129  1.00  0.00     0.003 A 
ENDBRANCH  14  15
ENDBRANCH  11  14
ENDBRANCH   1  10
BRANCH   3  24
HETATM   24  N   UNL     1     -45.560  58.172 -57.762  1.00  0.00    -0.323 N 
HETATM   25  C   UNL     1     -46.305  59.121 -58.448  1.00  0.00     0.246 C 
HETATM   26  O   UNL     1     -46.358  60.326 -58.208  1.00  0.00    -0.271 OA
HETATM   27  H   UNL     1     -45.524  57.277 -58.230  1.00  0.00     0.169 HD
BRANCH  25  28
HETATM   28  C   UNL     1     -47.061  58.531 -59.644  1.00  0.00     0.270 C 
BRANCH  28  29
HETATM   29  O   UNL     1     -47.217  59.473 -60.705  1.00  0.00    -0.387 OA
HETATM   30  C   UNL     1     -48.546  59.983 -60.751  1.00  0.00     0.202 C 
ENDBRANCH  28  29
ENDBRANCH  25  28
ENDBRANCH   3  24
BRANCH   8  31
HETATM   31  C   UNL     1     -42.669  58.968 -59.317  1.00  0.00     0.134 C 
BRANCH  31  32
HETATM   32  C   UNL     1     -42.130  57.545 -59.477  1.00  0.00     0.058 C 
BRANCH  32  33
HETATM   33  C   UNL     1     -43.126  56.433 -59.654  1.00  0.00    -0.057 A 
HETATM   34  C   UNL     1     -43.139  55.320 -58.806  1.00  0.00     0.007 A 
HETATM   35  C   UNL     1     -44.088  54.310 -58.979  1.00  0.00     0.001 A 
HETATM   36  C   UNL     1     -45.045  54.415 -59.986  1.00  0.00     0.000 A 
HETATM   37  C   UNL     1     -45.055  55.527 -60.824  1.00  0.00     0.001 A 
HETATM   38  C   UNL     1     -44.100  56.529 -60.661  1.00  0.00     0.007 A 
ENDBRANCH  32  33
ENDBRANCH  31  32
ENDBRANCH   8  31
TORSDOF 9
ENDMDL
MODEL 9
REMARK VINA RESULT:      -8.0      2.547      3.506
REMARK  9 active torsions:
REMARK  status: ('A' for Active; 'I' for Inactive)
REMARK       I    between atoms: N_2  and  C_3 
REMARK    1  A    between atoms: N_2  and  C_28 
REMARK    2  A    between atoms: C_3  and  C_4 
REMARK    3  A    between atoms: C_6  and  N_7 
REMARK       I    between atoms: N_7  and  C_8 
REMARK    4  A    between atoms: C_8  and  C_9 
REMARK    5  A    between atoms: C_9  and  O_10 
REMARK    6  A    between atoms: N_17  and  C_18 
REMARK    7  A    between atoms: C_18  and  C_19 
REMARK    8  A    between atoms: C_19  and  C_20 
REMARK    9  A    between atoms: C_28  and  C_29 
ROOT
HETATM    1  C   UNL     1     -43.197  59.326 -54.120  1.00  0.00     0.036 C 
HETATM    2  C   UNL     1     -42.533  58.863 -52.981  1.00  0.00     0.049 C 
HETATM    3  C   UNL     1     -42.095  57.533 -52.862  1.00  0.00     0.065 C 
HETATM    4  C   UNL     1     -42.242  56.718 -54.005  1.00  0.00     0.091 C 
HETATM    5  C   UNL     1     -42.971  57.155 -55.120  1.00  0.00     0.088 C 
HETATM    6  N   UNL     1     -43.103  56.167 -56.058  1.00  0.00    -0.242 NA
HETATM    7  C   UNL     1     -42.408  55.163 -55.591  1.00  0.00     0.210 C 
HETATM    8  N   UNL     1     -41.794  55.468 -54.398  1.00  0.00    -0.337 N 
HETATM    9  C   UNL     1     -43.451  58.467 -55.189  1.00  0.00     0.051 C 
ENDROOT
BRANCH   1  10
HETATM   10  C   UNL     1     -43.520  60.763 -54.281  1.00  0.00     0.253 C 
HETATM   11  N   UNL     1     -43.836  61.544 -53.166  1.00  0.00    -0.350 N 
HETATM   12  C   UNL     1     -43.926  62.985 -53.374  1.00  0.00     0.153 C 
HETATM   13  O   UNL     1     -43.439  61.218 -55.422  1.00  0.00    -0.267 OA
BRANCH  11  14
HETATM   14  C   UNL     1     -44.464  61.011 -51.939  1.00  0.00     0.158 C 
BRANCH  14  15
HETATM   15  C   UNL     1     -44.372  61.936 -50.710  1.00  0.00     0.151 A 
HETATM   16  O   UNL     1     -45.705  62.405 -50.355  1.00  0.00    -0.343 OA
HETATM   17  C   UNL     1     -45.846  62.152 -49.024  1.00  0.00     0.075 A 
HETATM   18  C   UNL     1     -44.782  61.472 -48.463  1.00  0.00    -0.022 A 
HETATM   19  C   UNL     1     -46.952  62.518 -48.285  1.00  0.00     0.037 A 
HETATM   20  C   UNL     1     -43.761  61.200 -49.498  1.00  0.00     0.075 A 
HETATM   21  C   UNL     1     -44.793  61.124 -47.123  1.00  0.00     0.010 A 
HETATM   22  C   UNL     1     -45.905  61.484 -46.353  1.00  0.00     0.001 A 
HETATM   23  C   UNL     1     -46.979  62.179 -46.930  1.00  0.00     0.003 A 
ENDBRANCH  14  15
ENDBRANCH  11  14
ENDBRANCH   1  10
BRANCH   3  24
HETATM   24  N   UNL     1     -41.570  57.026 -51.660  1.00  0.00    -0.323 N 
HETATM   25  C   UNL     1     -42.265  56.335 -50.678  1.00  0.00     0.246 C 
HETATM   26  O   UNL     1     -43.471  56.099 -50.661  1.00  0.00    -0.271 OA
HETATM   27  H   UNL     1     -40.566  56.953 -51.566  1.00  0.00     0.169 HD
BRANCH  25  28
HETATM   28  C   UNL     1     -41.351  55.798 -49.571  1.00  0.00     0.270 C 
BRANCH  28  29
HETATM   29  O   UNL     1     -41.744  54.500 -49.125  1.00  0.00    -0.387 OA
HETATM   30  C   UNL     1     -40.624  53.751 -48.663  1.00  0.00     0.202 C 
ENDBRANCH  28  29
ENDBRANCH  25  28
ENDBRANCH   3  24
BRANCH   8  31
HETATM   31  C   UNL     1     -40.596  54.767 -53.975  1.00  0.00     0.134 C 
BRANCH  31  32
HETATM   32  C   UNL     1     -40.673  53.842 -52.758  1.00  0.00     0.058 C 
BRANCH  32  33
HETATM   33  C   UNL     1     -40.324  52.393 -52.955  1.00  0.00    -0.057 A 
HETATM   34  C   UNL     1     -40.491  51.762 -54.193  1.00  0.00     0.007 A 
HETATM   35  C   UNL     1     -40.140  50.421 -54.356  1.00  0.00     0.001 A 
HETATM   36  C   UNL     1     -39.600  49.704 -53.289  1.00  0.00     0.000 A 
HETATM   37  C   UNL     1     -39.411  50.326 -52.058  1.00  0.00     0.001 A 
HETATM   38  C   UNL     1     -39.773  51.662 -51.891  1.00  0.00     0.007 A 
ENDBRANCH  32  33
ENDBRANCH  31  32
ENDBRANCH   8  31
TORSDOF 9
ENDMDL
MODEL 10
REMARK VINA RESULT:      -7.9      4.632      8.775
REMARK  9 active torsions:
REMARK  status: ('A' for Active; 'I' for Inactive)
REMARK       I    between atoms: N_2  and  C_3 
REMARK    1  A    between atoms: N_2  and  C_28 
REMARK    2  A    between atoms: C_3  and  C_4 
REMARK    3  A    between atoms: C_6  and  N_7 
REMARK       I    between atoms: N_7  and  C_8 
REMARK    4  A    between atoms: C_8  and  C_9 
REMARK    5  A    between atoms: C_9  and  O_10 
REMARK    6  A    between atoms: N_17  and  C_18 
REMARK    7  A    between atoms: C_18  and  C_19 
REMARK    8  A    between atoms: C_19  and  C_20 
REMARK    9  A    between atoms: C_28  and  C_29 
ROOT
HETATM    1  C   UNL     1     -43.803  58.081 -54.421  1.00  0.00     0.036 C 
HETATM    2  C   UNL     1     -44.356  57.340 -55.468  1.00  0.00     0.049 C 
HETATM    3  C   UNL     1     -44.040  57.597 -56.813  1.00  0.00     0.065 C 
HETATM    4  C   UNL     1     -43.033  58.557 -57.049  1.00  0.00     0.091 C 
HETATM    5  C   UNL     1     -42.530  59.353 -56.011  1.00  0.00     0.088 C 
HETATM    6  N   UNL     1     -41.664  60.305 -56.476  1.00  0.00    -0.242 NA
HETATM    7  C   UNL     1     -41.556  60.067 -57.757  1.00  0.00     0.210 C 
HETATM    8  N   UNL     1     -42.290  58.970 -58.143  1.00  0.00    -0.337 N 
HETATM    9  C   UNL     1     -42.908  59.119 -54.684  1.00  0.00     0.051 C 
ENDROOT
BRANCH   1  10
HETATM   10  C   UNL     1     -44.040  57.699 -53.009  1.00  0.00     0.253 C 
HETATM   11  N   UNL     1     -43.049  57.035 -52.283  1.00  0.00    -0.350 N 
HETATM   12  C   UNL     1     -43.269  56.889 -50.848  1.00  0.00     0.153 C 
HETATM   13  O   UNL     1     -45.116  58.047 -52.521  1.00  0.00    -0.267 OA
BRANCH  11  14
HETATM   14  C   UNL     1     -42.039  56.145 -52.893  1.00  0.00     0.158 C 
BRANCH  14  15
HETATM   15  C   UNL     1     -42.219  54.647 -52.574  1.00  0.00     0.151 A 
HETATM   16  O   UNL     1     -42.045  53.868 -53.794  1.00  0.00    -0.343 OA
HETATM   17  C   UNL     1     -41.141  52.897 -53.487  1.00  0.00     0.075 A 
HETATM   18  C   UNL     1     -40.612  52.998 -52.215  1.00  0.00    -0.022 A 
HETATM   19  C   UNL     1     -40.757  51.901 -54.361  1.00  0.00     0.037 A 
HETATM   20  C   UNL     1     -41.194  54.169 -51.524  1.00  0.00     0.075 A 
HETATM   21  C   UNL     1     -39.662  52.094 -51.770  1.00  0.00     0.010 A 
HETATM   22  C   UNL     1     -39.259  51.075 -52.639  1.00  0.00     0.001 A 
HETATM   23  C   UNL     1     -39.804  50.976 -53.929  1.00  0.00     0.003 A 
ENDBRANCH  14  15
ENDBRANCH  11  14
ENDBRANCH   1  10
BRANCH   3  24
HETATM   24  N   UNL     1     -44.711  56.959 -57.871  1.00  0.00    -0.323 N 
HETATM   25  C   UNL     1     -45.691  57.512 -58.684  1.00  0.00     0.246 C 
HETATM   26  O   UNL     1     -46.184  58.634 -58.580  1.00  0.00    -0.271 OA
HETATM   27  H   UNL     1     -44.327  56.099 -58.237  1.00  0.00     0.169 HD
BRANCH  25  28
HETATM   28  C   UNL     1     -46.100  56.585 -59.834  1.00  0.00     0.270 C 
BRANCH  28  29
HETATM   29  O   UNL     1     -45.368  55.360 -59.831  1.00  0.00    -0.387 OA
HETATM   30  C   UNL     1     -44.977  54.989 -61.149  1.00  0.00     0.202 C 
ENDBRANCH  28  29
ENDBRANCH  25  28
ENDBRANCH   3  24
BRANCH   8  31
HETATM   31  C   UNL     1     -41.930  58.208 -59.324  1.00  0.00     0.134 C 
BRANCH  31  32
HETATM   32  C   UNL     1     -42.780  58.359 -60.588  1.00  0.00     0.058 C 
BRANCH  32  33
HETATM   33  C   UNL     1     -43.016  59.748 -61.113  1.00  0.00    -0.057 A 
HETATM   34  C   UNL     1     -44.304  60.292 -61.190  1.00  0.00     0.007 A 
HETATM   35  C   UNL     1     -44.494  61.592 -61.663  1.00  0.00     0.001 A 
HETATM   36  C   UNL     1     -43.399  62.367 -62.041  1.00  0.00     0.000 A 
HETATM   37  C   UNL     1     -42.112  61.844 -61.951  1.00  0.00     0.001 A 
HETATM   38  C   UNL     1     -41.921  60.541 -61.491  1.00  0.00     0.007 A 
ENDBRANCH  32  33
ENDBRANCH  31  32
ENDBRANCH   8  31
TORSDOF 9
ENDMDL
