MODEL 1
REMARK VINA RESULT:      -8.3      0.000      0.000
REMARK  4 active torsions:
REMARK  status: ('A' for Active; 'I' for Inactive)
REMARK    1  A    between atoms: C_9  and  C_10 
REMARK    2  A    between atoms: C_17  and  C_18 
REMARK       I    between atoms: C_18  and  N_19 
REMARK    3  A    between atoms: N_19  and  C_20 
REMARK    4  A    between atoms: C_23  and  O_24 
ROOT
HETATM    1  C   UNL     1     -42.890  55.426 -57.065  1.00  0.00     0.070 C 
HETATM    2  C   UNL     1     -43.157  56.546 -56.091  1.00  0.00     0.037 C 
HETATM    3  N   UNL     1     -43.549  57.755 -56.659  1.00  0.00    -0.192 N 
HETATM    4  C   UNL     1     -44.068  58.769 -55.941  1.00  0.00     0.725 A 
HETATM    5  N   UNL     1     -44.070  58.693 -54.574  1.00  0.00    -0.084 N 
HETATM    6  N   UNL     1     -44.703  59.751 -54.024  1.00  0.00    -0.149 NA
HETATM    7  C   UNL     1     -45.015  60.449 -55.123  1.00  0.00     0.275 A 
HETATM    8  N   UNL     1     -44.640  59.884 -56.316  1.00  0.00    -0.054 NA
HETATM    9  C   UNL     1     -43.504  57.572 -53.814  1.00  0.00     0.202 C 
HETATM   10  C   UNL     1     -43.107  56.427 -54.740  1.00  0.00     0.062 C 
HETATM   11  H   UNL     1     -43.666  57.783 -57.670  1.00  0.00     0.184 HD
ENDROOT
BRANCH  10  12
HETATM   12  C   UNL     1     -42.782  55.167 -54.019  1.00  0.00     0.256 C 
HETATM   13  N   UNL     1     -41.435  54.885 -53.983  1.00  0.00    -0.323 N 
HETATM   14  H   UNL     1     -40.811  55.550 -54.422  1.00  0.00     0.169 HD
HETATM   15  O   UNL     1     -43.695  54.541 -53.497  1.00  0.00    -0.267 OA
BRANCH  13  16
HETATM   16  C   UNL     1     -40.817  53.756 -53.403  1.00  0.00     0.035 A 
HETATM   17  C   UNL     1     -40.540  53.630 -52.042  1.00  0.00     0.032 A 
HETATM   18  C   UNL     1     -39.934  52.469 -51.549  1.00  0.00     0.039 A 
HETATM   19  C   UNL     1     -39.602  51.415 -52.398  1.00  0.00     0.068 A 
HETATM   20  C   UNL     1     -39.875  51.534 -53.759  1.00  0.00     0.039 A 
HETATM   21  C   UNL     1     -40.474  52.700 -54.256  1.00  0.00     0.032 A 
BRANCH  19  22
HETATM   22  O   UNL     1     -39.023  50.342 -51.781  1.00  0.00    -0.356 OA
HETATM   23  C   UNL     1     -39.726  49.772 -50.684  1.00  0.00     0.210 C 
ENDBRANCH  19  22
ENDBRANCH  13  16
ENDBRANCH  10  12
BRANCH   9  24
HETATM   24  C   UNL     1     -42.328  58.046 -52.960  1.00  0.00    -0.028 A 
HETATM   25  C   UNL     1     -41.153  58.493 -53.590  1.00  0.00     0.011 A 
HETATM   26  C   UNL     1     -40.066  58.944 -52.835  1.00  0.00     0.024 A 
HETATM   27  C   UNL     1     -40.146  58.957 -51.445  1.00  0.00     0.034 A 
HETATM   28 CL   UNL     1     -38.806  59.506 -50.515  1.00  0.00    -0.084 Cl
HETATM   29  C   UNL     1     -41.306  58.529 -50.802  1.00  0.00     0.024 A 
HETATM   30  C   UNL     1     -42.394  58.082 -51.555  1.00  0.00     0.011 A 
ENDBRANCH   9  24
TORSDOF 4
ENDMDL
MODEL 2
REMARK VINA RESULT:      -7.9      3.104      4.856
REMARK  4 active torsions:
REMARK  status: ('A' for Active; 'I' for Inactive)
REMARK    1  A    between atoms: C_9  and  C_10 
REMARK    2  A    between atoms: C_17  and  C_18 
REMARK       I    between atoms: C_18  and  N_19 
REMARK    3  A    between atoms: N_19  and  C_20 
REMARK    4  A    between atoms: C_23  and  O_24 
ROOT
HETATM    1  C   UNL     1     -44.107  58.147 -52.776  1.00  0.00     0.070 C 
HETATM    2  C   UNL     1     -43.595  58.436 -54.165  1.00  0.00     0.037 C 
HETATM    3  N   UNL     1     -43.660  59.767 -54.564  1.00  0.00    -0.192 N 
HETATM    4  C   UNL     1     -43.022  60.239 -55.653  1.00  0.00     0.725 A 
HETATM    5  N   UNL     1     -42.410  59.361 -56.507  1.00  0.00    -0.084 N 
HETATM    6  N   UNL     1     -41.752  60.010 -57.490  1.00  0.00    -0.149 NA
HETATM    7  C   UNL     1     -42.051  61.280 -57.189  1.00  0.00     0.275 A 
HETATM    8  N   UNL     1     -42.830  61.463 -56.075  1.00  0.00    -0.054 NA
HETATM    9  C   UNL     1     -42.428  57.903 -56.336  1.00  0.00     0.202 C 
HETATM   10  C   UNL     1     -43.032  57.517 -54.989  1.00  0.00     0.062 C 
HETATM   11  H   UNL     1     -44.003  60.445 -53.887  1.00  0.00     0.184 HD
ENDROOT
BRANCH  10  12
HETATM   12  C   UNL     1     -42.834  56.085 -54.640  1.00  0.00     0.256 C 
HETATM   13  N   UNL     1     -41.559  55.794 -54.210  1.00  0.00    -0.323 N 
HETATM   14  H   UNL     1     -40.902  56.562 -54.157  1.00  0.00     0.169 HD
HETATM   15  O   UNL     1     -43.793  55.327 -54.713  1.00  0.00    -0.267 OA
BRANCH  13  16
HETATM   16  C   UNL     1     -41.054  54.529 -53.837  1.00  0.00     0.035 A 
HETATM   17  C   UNL     1     -40.716  53.526 -54.744  1.00  0.00     0.032 A 
HETATM   18  C   UNL     1     -40.211  52.302 -54.289  1.00  0.00     0.039 A 
HETATM   19  C   UNL     1     -40.026  52.063 -52.928  1.00  0.00     0.068 A 
HETATM   20  C   UNL     1     -40.362  53.061 -52.016  1.00  0.00     0.039 A 
HETATM   21  C   UNL     1     -40.877  54.284 -52.470  1.00  0.00     0.032 A 
BRANCH  19  22
HETATM   22  O   UNL     1     -39.518  50.831 -52.626  1.00  0.00    -0.356 OA
HETATM   23  C   UNL     1     -39.684  49.808 -53.601  1.00  0.00     0.210 C 
ENDBRANCH  19  22
ENDBRANCH  13  16
ENDBRANCH  10  12
BRANCH   9  24
HETATM   24  C   UNL     1     -43.164  57.238 -57.500  1.00  0.00    -0.028 A 
HETATM   25  C   UNL     1     -44.432  57.713 -57.878  1.00  0.00     0.011 A 
HETATM   26  C   UNL     1     -45.122  57.133 -58.945  1.00  0.00     0.024 A 
HETATM   27  C   UNL     1     -44.549  56.077 -59.648  1.00  0.00     0.034 A 
HETATM   28 CL   UNL     1     -45.400  55.357 -60.959  1.00  0.00    -0.084 Cl
HETATM   29  C   UNL     1     -43.288  55.600 -59.298  1.00  0.00     0.024 A 
HETATM   30  C   UNL     1     -42.595  56.180 -58.233  1.00  0.00     0.011 A 
ENDBRANCH   9  24
TORSDOF 4
ENDMDL
MODEL 3
REMARK VINA RESULT:      -7.5      2.892      4.311
REMARK  4 active torsions:
REMARK  status: ('A' for Active; 'I' for Inactive)
REMARK    1  A    between atoms: C_9  and  C_10 
REMARK    2  A    between atoms: C_17  and  C_18 
REMARK       I    between atoms: C_18  and  N_19 
REMARK    3  A    between atoms: N_19  and  C_20 
REMARK    4  A    between atoms: C_23  and  O_24 
ROOT
HETATM    1  C   UNL     1     -44.703  56.951 -51.047  1.00  0.00     0.070 C 
HETATM    2  C   UNL     1     -44.175  57.810 -52.168  1.00  0.00     0.037 C 
HETATM    3  N   UNL     1     -44.385  59.178 -52.027  1.00  0.00    -0.192 N 
HETATM    4  C   UNL     1     -43.766  60.099 -52.791  1.00  0.00     0.725 A 
HETATM    5  N   UNL     1     -43.017  59.690 -53.862  1.00  0.00    -0.084 N 
HETATM    6  N   UNL     1     -42.403  60.733 -54.459  1.00  0.00    -0.149 NA
HETATM    7  C   UNL     1     -42.867  61.747 -53.719  1.00  0.00     0.275 A 
HETATM    8  N   UNL     1     -43.706  61.402 -52.690  1.00  0.00    -0.054 NA
HETATM    9  C   UNL     1     -42.864  58.288 -54.269  1.00  0.00     0.202 C 
HETATM   10  C   UNL     1     -43.471  57.348 -53.232  1.00  0.00     0.062 C 
HETATM   11  H   UNL     1     -44.834  59.498 -51.172  1.00  0.00     0.184 HD
ENDROOT
BRANCH  10  12
HETATM   12  C   UNL     1     -43.114  55.919 -53.447  1.00  0.00     0.256 C 
HETATM   13  N   UNL     1     -41.830  55.607 -53.058  1.00  0.00    -0.323 N 
HETATM   14  H   UNL     1     -41.274  56.353 -52.659  1.00  0.00     0.169 HD
HETATM   15  O   UNL     1     -43.971  55.163 -53.885  1.00  0.00    -0.267 OA
BRANCH  13  16
HETATM   16  C   UNL     1     -41.191  54.353 -53.161  1.00  0.00     0.035 A 
HETATM   17  C   UNL     1     -40.906  53.720 -54.370  1.00  0.00     0.032 A 
HETATM   18  C   UNL     1     -40.258  52.479 -54.382  1.00  0.00     0.039 A 
HETATM   19  C   UNL     1     -39.876  51.856 -53.194  1.00  0.00     0.068 A 
HETATM   20  C   UNL     1     -40.158  52.484 -51.983  1.00  0.00     0.039 A 
HETATM   21  C   UNL     1     -40.815  53.722 -51.969  1.00  0.00     0.032 A 
BRANCH  19  22
HETATM   22  O   UNL     1     -39.245  50.655 -53.355  1.00  0.00    -0.356 OA
HETATM   23  C   UNL     1     -39.659  49.850 -54.452  1.00  0.00     0.210 C 
ENDBRANCH  19  22
ENDBRANCH  13  16
ENDBRANCH  10  12
BRANCH   9  24
HETATM   24  C   UNL     1     -43.466  58.066 -55.657  1.00  0.00    -0.028 A 
HETATM   25  C   UNL     1     -42.670  57.509 -56.674  1.00  0.00     0.011 A 
HETATM   26  C   UNL     1     -43.197  57.283 -57.949  1.00  0.00     0.024 A 
HETATM   27  C   UNL     1     -44.524  57.606 -58.217  1.00  0.00     0.034 A 
HETATM   28 CL   UNL     1     -45.172  57.334 -59.788  1.00  0.00    -0.084 Cl
HETATM   29  C   UNL     1     -45.333  58.146 -57.219  1.00  0.00     0.024 A 
HETATM   30  C   UNL     1     -44.809  58.370 -55.944  1.00  0.00     0.011 A 
ENDBRANCH   9  24
TORSDOF 4
ENDMDL
MODEL 4
REMARK VINA RESULT:      -7.3      3.139      6.746
REMARK  4 active torsions:
REMARK  status: ('A' for Active; 'I' for Inactive)
REMARK    1  A    between atoms: C_9  and  C_10 
REMARK    2  A    between atoms: C_17  and  C_18 
REMARK       I    between atoms: C_18  and  N_19 
REMARK    3  A    between atoms: N_19  and  C_20 
REMARK    4  A    between atoms: C_23  and  O_24 
ROOT
HETATM    1  C   UNL     1     -41.068  52.340 -54.001  1.00  0.00     0.070 C 
HETATM    2  C   UNL     1     -41.085  53.317 -52.852  1.00  0.00     0.037 C 
HETATM    3  N   UNL     1     -41.054  52.751 -51.582  1.00  0.00    -0.192 N 
HETATM    4  C   UNL     1     -40.808  53.464 -50.466  1.00  0.00     0.725 A 
HETATM    5  N   UNL     1     -40.743  54.829 -50.541  1.00  0.00    -0.084 N 
HETATM    6  N   UNL     1     -40.405  55.371 -49.352  1.00  0.00    -0.149 NA
HETATM    7  C   UNL     1     -40.328  54.271 -48.594  1.00  0.00     0.275 A 
HETATM    8  N   UNL     1     -40.572  53.084 -49.236  1.00  0.00    -0.054 NA
HETATM    9  C   UNL     1     -40.960  55.594 -51.775  1.00  0.00     0.202 C 
HETATM   10  C   UNL     1     -41.060  54.668 -52.983  1.00  0.00     0.062 C 
HETATM   11  H   UNL     1     -40.980  51.738 -51.521  1.00  0.00     0.184 HD
ENDROOT
BRANCH  10  12
HETATM   12  C   UNL     1     -41.008  55.385 -54.286  1.00  0.00     0.256 C 
HETATM   13  N   UNL     1     -42.247  55.611 -54.840  1.00  0.00    -0.323 N 
HETATM   14  H   UNL     1     -43.053  55.292 -54.317  1.00  0.00     0.169 HD
HETATM   15  O   UNL     1     -39.917  55.744 -54.712  1.00  0.00    -0.267 OA
BRANCH  13  16
HETATM   16  C   UNL     1     -42.527  56.236 -56.074  1.00  0.00     0.035 A 
HETATM   17  C   UNL     1     -42.482  57.615 -56.278  1.00  0.00     0.032 A 
HETATM   18  C   UNL     1     -42.763  58.152 -57.540  1.00  0.00     0.039 A 
HETATM   19  C   UNL     1     -43.085  57.327 -58.617  1.00  0.00     0.068 A 
HETATM   20  C   UNL     1     -43.132  55.949 -58.420  1.00  0.00     0.039 A 
HETATM   21  C   UNL     1     -42.859  55.410 -57.154  1.00  0.00     0.032 A 
BRANCH  19  22
HETATM   22  O   UNL     1     -43.328  57.984 -59.789  1.00  0.00    -0.356 OA
HETATM   23  C   UNL     1     -42.285  58.809 -60.296  1.00  0.00     0.210 C 
ENDBRANCH  19  22
ENDBRANCH  13  16
ENDBRANCH  10  12
BRANCH   9  24
HETATM   24  C   UNL     1     -42.194  56.487 -51.641  1.00  0.00    -0.028 A 
HETATM   25  C   UNL     1     -43.398  55.935 -51.168  1.00  0.00     0.011 A 
HETATM   26  C   UNL     1     -44.538  56.730 -51.022  1.00  0.00     0.024 A 
HETATM   27  C   UNL     1     -44.484  58.083 -51.343  1.00  0.00     0.034 A 
HETATM   28 CL   UNL     1     -45.890  59.061 -51.171  1.00  0.00    -0.084 Cl
HETATM   29  C   UNL     1     -43.298  58.652 -51.802  1.00  0.00     0.024 A 
HETATM   30  C   UNL     1     -42.156  57.860 -51.945  1.00  0.00     0.011 A 
ENDBRANCH   9  24
TORSDOF 4
ENDMDL
MODEL 5
REMARK VINA RESULT:      -7.2      3.796      5.392
REMARK  4 active torsions:
REMARK  status: ('A' for Active; 'I' for Inactive)
REMARK    1  A    between atoms: C_9  and  C_10 
REMARK    2  A    between atoms: C_17  and  C_18 
REMARK       I    between atoms: C_18  and  N_19 
REMARK    3  A    between atoms: N_19  and  C_20 
REMARK    4  A    between atoms: C_23  and  O_24 
ROOT
HETATM    1  C   UNL     1     -44.769  54.874 -60.590  1.00  0.00     0.070 C 
HETATM    2  C   UNL     1     -45.007  56.274 -60.083  1.00  0.00     0.037 C 
HETATM    3  N   UNL     1     -46.036  56.972 -60.708  1.00  0.00    -0.192 N 
HETATM    4  C   UNL     1     -46.548  58.119 -60.219  1.00  0.00     0.725 A 
HETATM    5  N   UNL     1     -45.940  58.725 -59.153  1.00  0.00    -0.084 N 
HETATM    6  N   UNL     1     -46.633  59.809 -58.745  1.00  0.00    -0.149 NA
HETATM    7  C   UNL     1     -47.625  59.820 -59.643  1.00  0.00     0.275 A 
HETATM    8  N   UNL     1     -47.607  58.804 -60.566  1.00  0.00    -0.054 NA
HETATM    9  C   UNL     1     -44.721  58.223 -58.509  1.00  0.00     0.202 C 
HETATM   10  C   UNL     1     -44.346  56.845 -59.044  1.00  0.00     0.062 C 
HETATM   11  H   UNL     1     -46.572  56.481 -61.420  1.00  0.00     0.184 HD
ENDROOT
BRANCH  10  12
HETATM   12  C   UNL     1     -43.287  56.168 -58.249  1.00  0.00     0.256 C 
HETATM   13  N   UNL     1     -43.610  56.013 -56.919  1.00  0.00    -0.323 N 
HETATM   14  H   UNL     1     -44.517  56.350 -56.622  1.00  0.00     0.169 HD
HETATM   15  O   UNL     1     -42.282  55.775 -58.828  1.00  0.00    -0.267 OA
BRANCH  13  16
HETATM   16  C   UNL     1     -42.808  55.441 -55.909  1.00  0.00     0.035 A 
HETATM   17  C   UNL     1     -42.934  54.125 -55.465  1.00  0.00     0.032 A 
HETATM   18  C   UNL     1     -42.089  53.633 -54.464  1.00  0.00     0.039 A 
HETATM   19  C   UNL     1     -41.102  54.438 -53.897  1.00  0.00     0.068 A 
HETATM   20  C   UNL     1     -40.971  55.754 -54.336  1.00  0.00     0.039 A 
HETATM   21  C   UNL     1     -41.823  56.251 -55.332  1.00  0.00     0.032 A 
BRANCH  19  22
HETATM   22  O   UNL     1     -40.345  53.827 -52.938  1.00  0.00    -0.356 OA
HETATM   23  C   UNL     1     -40.240  52.410 -53.004  1.00  0.00     0.210 C 
ENDBRANCH  19  22
ENDBRANCH  13  16
ENDBRANCH  10  12
BRANCH   9  24
HETATM   24  C   UNL     1     -43.578  59.226 -58.673  1.00  0.00    -0.028 A 
HETATM   25  C   UNL     1     -42.992  59.800 -57.531  1.00  0.00     0.011 A 
HETATM   26  C   UNL     1     -41.938  60.709 -57.651  1.00  0.00     0.024 A 
HETATM   27  C   UNL     1     -41.456  61.049 -58.912  1.00  0.00     0.034 A 
HETATM   28 CL   UNL     1     -40.162  62.173 -59.061  1.00  0.00    -0.084 Cl
HETATM   29  C   UNL     1     -42.014  60.481 -60.056  1.00  0.00     0.024 A 
HETATM   30  C   UNL     1     -43.066  59.570 -59.938  1.00  0.00     0.011 A 
ENDBRANCH   9  24
TORSDOF 4
ENDMDL
MODEL 6
REMARK VINA RESULT:      -6.9      2.965      4.450
REMARK  4 active torsions:
REMARK  status: ('A' for Active; 'I' for Inactive)
REMARK    1  A    between atoms: C_9  and  C_10 
REMARK    2  A    between atoms: C_17  and  C_18 
REMARK       I    between atoms: C_18  and  N_19 
REMARK    3  A    between atoms: N_19  and  C_20 
REMARK    4  A    between atoms: C_23  and  O_24 
ROOT
HETATM    1  C   UNL     1     -43.979  58.033 -51.676  1.00  0.00     0.070 C 
HETATM    2  C   UNL     1     -43.815  58.830 -52.946  1.00  0.00     0.037 C 
HETATM    3  N   UNL     1     -44.689  59.902 -53.099  1.00  0.00    -0.192 N 
HETATM    4  C   UNL     1     -44.520  60.860 -54.031  1.00  0.00     0.725 A 
HETATM    5  N   UNL     1     -43.545  60.709 -54.981  1.00  0.00    -0.084 N 
HETATM    6  N   UNL     1     -43.461  61.797 -55.775  1.00  0.00    -0.149 NA
HETATM    7  C   UNL     1     -44.450  62.545 -55.272  1.00  0.00     0.275 A 
HETATM    8  N   UNL     1     -45.125  62.006 -54.206  1.00  0.00    -0.054 NA
HETATM    9  C   UNL     1     -42.672  59.533 -55.081  1.00  0.00     0.202 C 
HETATM   10  C   UNL     1     -42.853  58.613 -53.878  1.00  0.00     0.062 C 
HETATM   11  H   UNL     1     -45.337  60.092 -52.338  1.00  0.00     0.184 HD
ENDROOT
BRANCH  10  12
HETATM   12  C   UNL     1     -41.814  57.552 -53.782  1.00  0.00     0.256 C 
HETATM   13  N   UNL     1     -42.297  56.284 -54.014  1.00  0.00    -0.323 N 
HETATM   14  H   UNL     1     -43.280  56.198 -54.238  1.00  0.00     0.169 HD
HETATM   15  O   UNL     1     -40.656  57.887 -53.565  1.00  0.00    -0.267 OA
BRANCH  13  16
HETATM   16  C   UNL     1     -41.572  55.075 -53.967  1.00  0.00     0.035 A 
HETATM   17  C   UNL     1     -40.867  54.545 -55.047  1.00  0.00     0.032 A 
HETATM   18  C   UNL     1     -40.163  53.342 -54.911  1.00  0.00     0.039 A 
HETATM   19  C   UNL     1     -40.144  52.655 -53.698  1.00  0.00     0.068 A 
HETATM   20  C   UNL     1     -40.846  53.178 -52.615  1.00  0.00     0.039 A 
HETATM   21  C   UNL     1     -41.559  54.378 -52.753  1.00  0.00     0.032 A 
BRANCH  19  22
HETATM   22  O   UNL     1     -39.412  51.501 -53.705  1.00  0.00    -0.356 OA
HETATM   23  C   UNL     1     -40.005  50.364 -54.320  1.00  0.00     0.210 C 
ENDBRANCH  19  22
ENDBRANCH  13  16
ENDBRANCH  10  12
BRANCH   9  24
HETATM   24  C   UNL     1     -42.915  58.798 -56.400  1.00  0.00    -0.028 A 
HETATM   25  C   UNL     1     -41.917  58.809 -57.391  1.00  0.00     0.011 A 
HETATM   26  C   UNL     1     -42.106  58.136 -58.600  1.00  0.00     0.024 A 
HETATM   27  C   UNL     1     -43.290  57.440 -58.828  1.00  0.00     0.034 A 
HETATM   28 CL   UNL     1     -43.527  56.616 -60.320  1.00  0.00    -0.084 Cl
HETATM   29  C   UNL     1     -44.286  57.406 -57.854  1.00  0.00     0.024 A 
HETATM   30  C   UNL     1     -44.098  58.076 -56.643  1.00  0.00     0.011 A 
ENDBRANCH   9  24
TORSDOF 4
ENDMDL
MODEL 7
REMARK VINA RESULT:      -6.4      4.526      8.629
REMARK  4 active torsions:
REMARK  status: ('A' for Active; 'I' for Inactive)
REMARK    1  A    between atoms: C_9  and  C_10 
REMARK    2  A    between atoms: C_17  and  C_18 
REMARK       I    between atoms: C_18  and  N_19 
REMARK    3  A    between atoms: N_19  and  C_20 
REMARK    4  A    between atoms: C_23  and  O_24 
ROOT
HETATM    1  C   UNL     1     -40.331  59.278 -50.168  1.00  0.00     0.070 C 
HETATM    2  C   UNL     1     -41.201  58.224 -50.806  1.00  0.00     0.037 C 
HETATM    3  N   UNL     1     -40.686  56.931 -50.790  1.00  0.00    -0.192 N 
HETATM    4  C   UNL     1     -41.426  55.843 -51.080  1.00  0.00     0.725 A 
HETATM    5  N   UNL     1     -42.695  56.003 -51.566  1.00  0.00    -0.084 N 
HETATM    6  N   UNL     1     -43.317  54.815 -51.717  1.00  0.00    -0.149 NA
HETATM    7  C   UNL     1     -42.341  53.978 -51.344  1.00  0.00     0.275 A 
HETATM    8  N   UNL     1     -41.166  54.568 -50.950  1.00  0.00    -0.054 NA
HETATM    9  C   UNL     1     -43.313  57.308 -51.835  1.00  0.00     0.202 C 
HETATM   10  C   UNL     1     -42.441  58.445 -51.311  1.00  0.00     0.062 C 
HETATM   11  H   UNL     1     -39.795  56.786 -50.321  1.00  0.00     0.184 HD
ENDROOT
BRANCH  10  12
HETATM   12  C   UNL     1     -43.127  59.764 -51.308  1.00  0.00     0.256 C 
HETATM   13  N   UNL     1     -44.021  59.918 -50.271  1.00  0.00    -0.323 N 
HETATM   14  H   UNL     1     -44.111  59.148 -49.621  1.00  0.00     0.169 HD
HETATM   15  O   UNL     1     -42.816  60.587 -52.159  1.00  0.00    -0.267 OA
BRANCH  13  16
HETATM   16  C   UNL     1     -44.843  61.037 -50.015  1.00  0.00     0.035 A 
HETATM   17  C   UNL     1     -45.982  61.353 -50.753  1.00  0.00     0.032 A 
HETATM   18  C   UNL     1     -46.748  62.477 -50.423  1.00  0.00     0.039 A 
HETATM   19  C   UNL     1     -46.397  63.297 -49.351  1.00  0.00     0.068 A 
HETATM   20  C   UNL     1     -45.259  62.987 -48.610  1.00  0.00     0.039 A 
HETATM   21  C   UNL     1     -44.486  61.866 -48.945  1.00  0.00     0.032 A 
BRANCH  19  22
HETATM   22  O   UNL     1     -47.237  64.353 -49.139  1.00  0.00    -0.356 OA
HETATM   23  C   UNL     1     -48.629  64.067 -49.069  1.00  0.00     0.210 C 
ENDBRANCH  19  22
ENDBRANCH  13  16
ENDBRANCH  10  12
BRANCH   9  24
HETATM   24  C   UNL     1     -43.609  57.461 -53.327  1.00  0.00    -0.028 A 
HETATM   25  C   UNL     1     -42.558  57.355 -54.255  1.00  0.00     0.011 A 
HETATM   26  C   UNL     1     -42.802  57.478 -55.626  1.00  0.00     0.024 A 
HETATM   27  C   UNL     1     -44.098  57.702 -56.081  1.00  0.00     0.034 A 
HETATM   28 CL   UNL     1     -44.398  57.861 -57.768  1.00  0.00    -0.084 Cl
HETATM   29  C   UNL     1     -45.155  57.798 -55.179  1.00  0.00     0.024 A 
HETATM   30  C   UNL     1     -44.915  57.672 -53.809  1.00  0.00     0.011 A 
ENDBRANCH   9  24
TORSDOF 4
ENDMDL
MODEL 8
REMARK VINA RESULT:      -6.4      3.313      4.514
REMARK  4 active torsions:
REMARK  status: ('A' for Active; 'I' for Inactive)
REMARK    1  A    between atoms: C_9  and  C_10 
REMARK    2  A    between atoms: C_17  and  C_18 
REMARK       I    between atoms: C_18  and  N_19 
REMARK    3  A    between atoms: N_19  and  C_20 
REMARK    4  A    between atoms: C_23  and  O_24 
ROOT
HETATM    1  C   UNL     1     -42.540  56.159 -59.785  1.00  0.00     0.070 C 
HETATM    2  C   UNL     1     -43.673  57.023 -59.290  1.00  0.00     0.037 C 
HETATM    3  N   UNL     1     -44.585  57.429 -60.259  1.00  0.00    -0.192 N 
HETATM    4  C   UNL     1     -45.777  57.980 -59.959  1.00  0.00     0.725 A 
HETATM    5  N   UNL     1     -46.058  58.311 -58.661  1.00  0.00    -0.084 N 
HETATM    6  N   UNL     1     -47.321  58.768 -58.533  1.00  0.00    -0.149 NA
HETATM    7  C   UNL     1     -47.728  58.728 -59.807  1.00  0.00     0.275 A 
HETATM    8  N   UNL     1     -46.811  58.256 -60.712  1.00  0.00    -0.054 NA
HETATM    9  C   UNL     1     -45.117  58.135 -57.548  1.00  0.00     0.202 C 
HETATM   10  C   UNL     1     -43.883  57.355 -57.991  1.00  0.00     0.062 C 
HETATM   11  H   UNL     1     -44.448  57.085 -61.207  1.00  0.00     0.184 HD
ENDROOT
BRANCH  10  12
HETATM   12  C   UNL     1     -43.025  56.912 -56.860  1.00  0.00     0.256 C 
HETATM   13  N   UNL     1     -43.389  55.691 -56.337  1.00  0.00    -0.323 N 
HETATM   14  H   UNL     1     -44.173  55.219 -56.769  1.00  0.00     0.169 HD
HETATM   15  O   UNL     1     -42.075  57.614 -56.537  1.00  0.00    -0.267 OA
BRANCH  13  16
HETATM   16  C   UNL     1     -42.794  55.020 -55.248  1.00  0.00     0.035 A 
HETATM   17  C   UNL     1     -43.378  54.910 -53.986  1.00  0.00     0.032 A 
HETATM   18  C   UNL     1     -42.722  54.215 -52.963  1.00  0.00     0.039 A 
HETATM   19  C   UNL     1     -41.483  53.614 -53.181  1.00  0.00     0.068 A 
HETATM   20  C   UNL     1     -40.895  53.721 -54.439  1.00  0.00     0.039 A 
HETATM   21  C   UNL     1     -41.546  54.424 -55.463  1.00  0.00     0.032 A 
BRANCH  19  22
HETATM   22  O   UNL     1     -40.963  52.964 -52.098  1.00  0.00    -0.356 OA
HETATM   23  C   UNL     1     -39.859  52.099 -52.333  1.00  0.00     0.210 C 
ENDBRANCH  19  22
ENDBRANCH  13  16
ENDBRANCH  10  12
BRANCH   9  24
HETATM   24  C   UNL     1     -44.745  59.490 -56.944  1.00  0.00    -0.028 A 
HETATM   25  C   UNL     1     -44.056  60.431 -57.730  1.00  0.00     0.011 A 
HETATM   26  C   UNL     1     -43.715  61.682 -57.208  1.00  0.00     0.024 A 
HETATM   27  C   UNL     1     -44.064  62.006 -55.900  1.00  0.00     0.034 A 
HETATM   28 CL   UNL     1     -43.638  63.543 -55.255  1.00  0.00    -0.084 Cl
HETATM   29  C   UNL     1     -44.757  61.092 -55.109  1.00  0.00     0.024 A 
HETATM   30  C   UNL     1     -45.102  59.843 -55.629  1.00  0.00     0.011 A 
ENDBRANCH   9  24
TORSDOF 4
ENDMDL
MODEL 9
REMARK VINA RESULT:      -6.1      3.977      6.371
REMARK  4 active torsions:
REMARK  status: ('A' for Active; 'I' for Inactive)
REMARK    1  A    between atoms: C_9  and  C_10 
REMARK    2  A    between atoms: C_17  and  C_18 
REMARK       I    between atoms: C_18  and  N_19 
REMARK    3  A    between atoms: N_19  and  C_20 
REMARK    4  A    between atoms: C_23  and  O_24 
ROOT
HETATM    1  C   UNL     1     -43.953  61.785 -55.539  1.00  0.00     0.070 C 
HETATM    2  C   UNL     1     -43.452  61.293 -56.874  1.00  0.00     0.037 C 
HETATM    3  N   UNL     1     -43.653  62.158 -57.946  1.00  0.00    -0.192 N 
HETATM    4  C   UNL     1     -43.052  61.997 -59.141  1.00  0.00     0.725 A 
HETATM    5  N   UNL     1     -42.336  60.857 -59.386  1.00  0.00    -0.084 N 
HETATM    6  N   UNL     1     -41.734  60.904 -60.593  1.00  0.00    -0.149 NA
HETATM    7  C   UNL     1     -42.173  62.087 -61.040  1.00  0.00     0.275 A 
HETATM    8  N   UNL     1     -42.986  62.786 -60.183  1.00  0.00    -0.054 NA
HETATM    9  C   UNL     1     -42.199  59.753 -58.428  1.00  0.00     0.202 C 
HETATM   10  C   UNL     1     -42.780  60.131 -57.069  1.00  0.00     0.062 C 
HETATM   11  H   UNL     1     -44.078  63.061 -57.748  1.00  0.00     0.184 HD
ENDROOT
BRANCH  10  12
HETATM   12  C   UNL     1     -42.434  59.169 -55.989  1.00  0.00     0.256 C 
HETATM   13  N   UNL     1     -43.338  58.139 -55.858  1.00  0.00    -0.323 N 
HETATM   14  H   UNL     1     -44.120  58.125 -56.500  1.00  0.00     0.169 HD
HETATM   15  O   UNL     1     -41.392  59.337 -55.368  1.00  0.00    -0.267 OA
BRANCH  13  16
HETATM   16  C   UNL     1     -43.305  57.091 -54.912  1.00  0.00     0.035 A 
HETATM   17  C   UNL     1     -43.512  57.268 -53.545  1.00  0.00     0.032 A 
HETATM   18  C   UNL     1     -43.473  56.170 -52.677  1.00  0.00     0.039 A 
HETATM   19  C   UNL     1     -43.234  54.883 -53.156  1.00  0.00     0.068 A 
HETATM   20  C   UNL     1     -43.025  54.700 -54.521  1.00  0.00     0.039 A 
HETATM   21  C   UNL     1     -43.056  55.799 -55.391  1.00  0.00     0.032 A 
BRANCH  19  22
HETATM   22  O   UNL     1     -43.231  53.907 -52.200  1.00  0.00    -0.356 OA
HETATM   23  C   UNL     1     -42.811  54.284 -50.894  1.00  0.00     0.210 C 
ENDBRANCH  19  22
ENDBRANCH  13  16
ENDBRANCH  10  12
BRANCH   9  24
HETATM   24  C   UNL     1     -42.840  58.481 -58.985  1.00  0.00    -0.028 A 
HETATM   25  C   UNL     1     -44.200  58.491 -59.343  1.00  0.00     0.011 A 
HETATM   26  C   UNL     1     -44.808  57.348 -59.866  1.00  0.00     0.024 A 
HETATM   27  C   UNL     1     -44.063  56.185 -60.042  1.00  0.00     0.034 A 
HETATM   28 CL   UNL     1     -44.813  54.774 -60.680  1.00  0.00    -0.084 Cl
HETATM   29  C   UNL     1     -42.711  56.158 -59.706  1.00  0.00     0.024 A 
HETATM   30  C   UNL     1     -42.100  57.300 -59.185  1.00  0.00     0.011 A 
ENDBRANCH   9  24
TORSDOF 4
ENDMDL
MODEL 10
REMARK VINA RESULT:      -6.0      5.001      8.690
REMARK  4 active torsions:
REMARK  status: ('A' for Active; 'I' for Inactive)
REMARK    1  A    between atoms: C_9  and  C_10 
REMARK    2  A    between atoms: C_17  and  C_18 
REMARK       I    between atoms: C_18  and  N_19 
REMARK    3  A    between atoms: N_19  and  C_20 
REMARK    4  A    between atoms: C_23  and  O_24 
ROOT
HETATM    1  C   UNL     1     -40.586  59.524 -49.898  1.00  0.00     0.070 C 
HETATM    2  C   UNL     1     -41.458  58.873 -50.942  1.00  0.00     0.037 C 
HETATM    3  N   UNL     1     -40.969  57.685 -51.477  1.00  0.00    -0.192 N 
HETATM    4  C   UNL     1     -41.721  56.850 -52.219  1.00  0.00     0.725 A 
HETATM    5  N   UNL     1     -42.974  57.241 -52.610  1.00  0.00    -0.084 N 
HETATM    6  N   UNL     1     -43.614  56.252 -53.269  1.00  0.00    -0.149 NA
HETATM    7  C   UNL     1     -42.665  55.308 -53.277  1.00  0.00     0.275 A 
HETATM    8  N   UNL     1     -41.490  55.636 -52.649  1.00  0.00    -0.054 NA
HETATM    9  C   UNL     1     -43.558  58.551 -52.300  1.00  0.00     0.202 C 
HETATM   10  C   UNL     1     -42.679  59.326 -51.323  1.00  0.00     0.062 C 
HETATM   11  H   UNL     1     -40.094  57.326 -51.102  1.00  0.00     0.184 HD
ENDROOT
BRANCH  10  12
HETATM   12  C   UNL     1     -43.339  60.535 -50.762  1.00  0.00     0.256 C 
HETATM   13  N   UNL     1     -44.231  60.256 -49.751  1.00  0.00    -0.323 N 
HETATM   14  H   UNL     1     -44.338  59.286 -49.482  1.00  0.00     0.169 HD
HETATM   15  O   UNL     1     -43.011  61.633 -51.192  1.00  0.00    -0.267 OA
BRANCH  13  16
HETATM   16  C   UNL     1     -45.032  61.179 -49.043  1.00  0.00     0.035 A 
HETATM   17  C   UNL     1     -46.118  61.855 -49.597  1.00  0.00     0.032 A 
HETATM   18  C   UNL     1     -46.867  62.746 -48.820  1.00  0.00     0.039 A 
HETATM   19  C   UNL     1     -46.551  62.972 -47.481  1.00  0.00     0.068 A 
HETATM   20  C   UNL     1     -45.466  62.301 -46.922  1.00  0.00     0.039 A 
HETATM   21  C   UNL     1     -44.710  61.415 -47.701  1.00  0.00     0.032 A 
BRANCH  19  22
HETATM   22  O   UNL     1     -47.369  63.860 -46.842  1.00  0.00    -0.356 OA
HETATM   23  C   UNL     1     -47.589  63.651 -45.452  1.00  0.00     0.210 C 
ENDBRANCH  19  22
ENDBRANCH  13  16
ENDBRANCH  10  12
BRANCH   9  24
HETATM   24  C   UNL     1     -43.811  59.341 -53.585  1.00  0.00    -0.028 A 
HETATM   25  C   UNL     1     -45.131  59.652 -53.956  1.00  0.00     0.011 A 
HETATM   26  C   UNL     1     -45.392  60.384 -55.118  1.00  0.00     0.024 A 
HETATM   27  C   UNL     1     -44.336  60.815 -55.916  1.00  0.00     0.034 A 
HETATM   28 CL   UNL     1     -44.656  61.710 -57.351  1.00  0.00    -0.084 Cl
HETATM   29  C   UNL     1     -43.020  60.528 -55.559  1.00  0.00     0.024 A 
HETATM   30  C   UNL     1     -42.757  59.800 -54.396  1.00  0.00     0.011 A 
ENDBRANCH   9  24
TORSDOF 4
ENDMDL
