MODEL 1
REMARK VINA RESULT:      -7.8      0.000      0.000
REMARK  5 active torsions:
REMARK  status: ('A' for Active; 'I' for Inactive)
REMARK    1  A    between atoms: C_8  and  N_9 
REMARK       I    between atoms: N_9  and  C_10 
REMARK       I    between atoms: C_10  and  N_11 
REMARK    2  A    between atoms: N_11  and  C_12 
REMARK    3  A    between atoms: C_13  and  O_14 
REMARK    4  A    between atoms: O_14  and  C_15 
REMARK    5  A    between atoms: C_15  and  C_16 
ROOT
HETATM    1  N   UNL     1     -42.189  56.154 -56.400  1.00  0.00    -0.305 N 
HETATM    2  C   UNL     1     -42.178  54.969 -55.689  1.00  0.00     0.325 C 
HETATM    3  N   UNL     1     -40.915  54.735 -55.174  1.00  0.00    -0.306 N 
HETATM    4  O   UNL     1     -43.141  54.233 -55.525  1.00  0.00    -0.247 OA
HETATM    5  H   UNL     1     -41.477  56.825 -56.156  1.00  0.00     0.171 HD
HETATM    6  H   UNL     1     -40.151  55.240 -55.604  1.00  0.00     0.171 HD
ENDROOT
BRANCH   3   7
HETATM    7  C   UNL     1     -40.520  53.711 -54.283  1.00  0.00     0.071 A 
HETATM    8  C   UNL     1     -40.553  54.009 -52.908  1.00  0.00     0.096 A 
HETATM    9  C   UNL     1     -40.227  53.040 -51.956  1.00  0.00     0.041 A 
HETATM   10  C   UNL     1     -39.830  51.771 -52.376  1.00  0.00     0.026 A 
HETATM   11  C   UNL     1     -39.777  51.478 -53.739  1.00  0.00     0.036 A 
HETATM   12 CL   UNL     1     -39.294  49.904 -54.244  1.00  0.00    -0.084 Cl
HETATM   13  C   UNL     1     -40.123  52.437 -54.693  1.00  0.00     0.056 A 
BRANCH   8  14
HETATM   14  O   UNL     1     -40.968  55.265 -52.537  1.00  0.00    -0.340 OA
BRANCH  14  15
HETATM   15  C   UNL     1     -41.788  55.241 -51.352  1.00  0.00     0.293 C 
BRANCH  15  16
HETATM   16  C   UNL     1     -43.254  55.146 -51.738  1.00  0.00     0.408 C 
HETATM   17  F   UNL     1     -43.597  53.877 -52.056  1.00  0.00    -0.169 F 
HETATM   18  F   UNL     1     -44.062  55.553 -50.734  1.00  0.00    -0.169 F 
HETATM   19  F   UNL     1     -43.517  55.922 -52.813  1.00  0.00    -0.169 F 
ENDBRANCH  15  16
ENDBRANCH  14  15
ENDBRANCH   8  14
ENDBRANCH   3   7
BRANCH   1  20
HETATM   20  C   UNL     1     -43.226  56.634 -57.184  1.00  0.00     0.086 A 
HETATM   21  C   UNL     1     -44.238  57.416 -56.663  1.00  0.00     0.052 A 
HETATM   22  C   UNL     1     -44.520  57.909 -55.294  1.00  0.00     0.072 C 
HETATM   23  N   UNL     1     -45.066  57.703 -57.710  1.00  0.00    -0.280 N 
HETATM   24  H   UNL     1     -45.922  58.246 -57.703  1.00  0.00     0.189 HD
HETATM   25  N   UNL     1     -44.657  57.195 -58.876  1.00  0.00    -0.177 NA
HETATM   26  C   UNL     1     -43.526  56.540 -58.575  1.00  0.00     0.079 A 
HETATM   27  C   UNL     1     -42.773  55.895 -59.682  1.00  0.00     0.075 C 
ENDBRANCH   1  20
TORSDOF 5
ENDMDL
MODEL 2
REMARK VINA RESULT:      -7.6      0.290      1.678
REMARK  5 active torsions:
REMARK  status: ('A' for Active; 'I' for Inactive)
REMARK    1  A    between atoms: C_8  and  N_9 
REMARK       I    between atoms: N_9  and  C_10 
REMARK       I    between atoms: C_10  and  N_11 
REMARK    2  A    between atoms: N_11  and  C_12 
REMARK    3  A    between atoms: C_13  and  O_14 
REMARK    4  A    between atoms: O_14  and  C_15 
REMARK    5  A    between atoms: C_15  and  C_16 
ROOT
HETATM    1  N   UNL     1     -42.212  56.348 -56.552  1.00  0.00    -0.305 N 
HETATM    2  C   UNL     1     -42.246  55.209 -55.770  1.00  0.00     0.325 C 
HETATM    3  N   UNL     1     -40.968  54.879 -55.353  1.00  0.00    -0.306 N 
HETATM    4  O   UNL     1     -43.254  54.581 -55.477  1.00  0.00    -0.247 OA
HETATM    5  H   UNL     1     -41.421  56.958 -56.413  1.00  0.00     0.171 HD
HETATM    6  H   UNL     1     -40.203  55.282 -55.879  1.00  0.00     0.171 HD
ENDROOT
BRANCH   3   7
HETATM    7  C   UNL     1     -40.590  53.872 -54.436  1.00  0.00     0.071 A 
HETATM    8  C   UNL     1     -40.620  54.204 -53.069  1.00  0.00     0.096 A 
HETATM    9  C   UNL     1     -40.309  53.254 -52.093  1.00  0.00     0.041 A 
HETATM   10  C   UNL     1     -39.931  51.969 -52.482  1.00  0.00     0.026 A 
HETATM   11  C   UNL     1     -39.881  51.642 -53.836  1.00  0.00     0.036 A 
HETATM   12 CL   UNL     1     -39.422  50.049 -54.303  1.00  0.00    -0.084 Cl
HETATM   13  C   UNL     1     -40.211  52.582 -54.815  1.00  0.00     0.056 A 
BRANCH   8  14
HETATM   14  O   UNL     1     -41.016  55.475 -52.730  1.00  0.00    -0.340 OA
BRANCH  14  15
HETATM   15  C   UNL     1     -41.789  55.498 -51.514  1.00  0.00     0.293 C 
BRANCH  15  16
HETATM   16  C   UNL     1     -43.272  55.434 -51.843  1.00  0.00     0.408 C 
HETATM   17  F   UNL     1     -43.637  54.188 -52.219  1.00  0.00    -0.169 F 
HETATM   18  F   UNL     1     -44.033  55.785 -50.783  1.00  0.00    -0.169 F 
HETATM   19  F   UNL     1     -43.574  56.274 -52.858  1.00  0.00    -0.169 F 
ENDBRANCH  15  16
ENDBRANCH  14  15
ENDBRANCH   8  14
ENDBRANCH   3   7
BRANCH   1  20
HETATM   20  C   UNL     1     -43.267  56.884 -57.271  1.00  0.00     0.086 A 
HETATM   21  C   UNL     1     -43.408  56.677 -58.631  1.00  0.00     0.052 A 
HETATM   22  C   UNL     1     -42.588  55.943 -59.623  1.00  0.00     0.072 C 
HETATM   23  N   UNL     1     -44.546  57.339 -58.993  1.00  0.00    -0.280 N 
HETATM   24  H   UNL     1     -44.957  57.420 -59.916  1.00  0.00     0.189 HD
HETATM   25  N   UNL     1     -45.172  57.935 -57.975  1.00  0.00    -0.177 NA
HETATM   26  C   UNL     1     -44.406  57.662 -56.907  1.00  0.00     0.079 A 
HETATM   27  C   UNL     1     -44.860  58.141 -55.577  1.00  0.00     0.075 C 
ENDBRANCH   1  20
TORSDOF 5
ENDMDL
MODEL 3
REMARK VINA RESULT:      -7.6      2.568      3.284
REMARK  5 active torsions:
REMARK  status: ('A' for Active; 'I' for Inactive)
REMARK    1  A    between atoms: C_8  and  N_9 
REMARK       I    between atoms: N_9  and  C_10 
REMARK       I    between atoms: C_10  and  N_11 
REMARK    2  A    between atoms: N_11  and  C_12 
REMARK    3  A    between atoms: C_13  and  O_14 
REMARK    4  A    between atoms: O_14  and  C_15 
REMARK    5  A    between atoms: C_15  and  C_16 
ROOT
HETATM    1  N   UNL     1     -42.283  56.397 -54.712  1.00  0.00    -0.305 N 
HETATM    2  C   UNL     1     -41.220  55.561 -54.428  1.00  0.00     0.325 C 
HETATM    3  N   UNL     1     -41.658  54.458 -53.717  1.00  0.00    -0.306 N 
HETATM    4  O   UNL     1     -40.059  55.755 -54.758  1.00  0.00    -0.247 OA
HETATM    5  H   UNL     1     -43.196  55.967 -54.722  1.00  0.00     0.171 HD
HETATM    6  H   UNL     1     -42.557  54.543 -53.258  1.00  0.00     0.171 HD
ENDROOT
BRANCH   3   7
HETATM    7  C   UNL     1     -40.916  53.311 -53.353  1.00  0.00     0.071 A 
HETATM    8  C   UNL     1     -40.373  53.283 -52.054  1.00  0.00     0.096 A 
HETATM    9  C   UNL     1     -39.668  52.168 -51.595  1.00  0.00     0.041 A 
HETATM   10  C   UNL     1     -39.471  51.083 -52.448  1.00  0.00     0.026 A 
HETATM   11  C   UNL     1     -39.990  51.114 -53.742  1.00  0.00     0.036 A 
HETATM   12 CL   UNL     1     -39.747  49.763 -54.781  1.00  0.00    -0.084 Cl
HETATM   13  C   UNL     1     -40.714  52.218 -54.197  1.00  0.00     0.056 A 
BRANCH   8  14
HETATM   14  O   UNL     1     -40.608  54.366 -51.242  1.00  0.00    -0.340 OA
BRANCH  14  15
HETATM   15  C   UNL     1     -41.434  54.028 -50.110  1.00  0.00     0.293 C 
BRANCH  15  16
HETATM   16  C   UNL     1     -40.622  54.128 -48.829  1.00  0.00     0.408 C 
HETATM   17  F   UNL     1     -39.317  54.367 -49.093  1.00  0.00    -0.169 F 
HETATM   18  F   UNL     1     -41.070  55.121 -48.030  1.00  0.00    -0.169 F 
HETATM   19  F   UNL     1     -40.693  52.976 -48.126  1.00  0.00    -0.169 F 
ENDBRANCH  15  16
ENDBRANCH  14  15
ENDBRANCH   8  14
ENDBRANCH   3   7
BRANCH   1  20
HETATM   20  C   UNL     1     -42.208  57.664 -55.267  1.00  0.00     0.086 A 
HETATM   21  C   UNL     1     -42.656  57.932 -56.547  1.00  0.00     0.052 A 
HETATM   22  C   UNL     1     -43.252  57.076 -57.600  1.00  0.00     0.072 C 
HETATM   23  N   UNL     1     -42.432  59.263 -56.749  1.00  0.00    -0.280 N 
HETATM   24  H   UNL     1     -42.623  59.812 -57.580  1.00  0.00     0.189 HD
HETATM   25  N   UNL     1     -41.903  59.889 -55.694  1.00  0.00    -0.177 NA
HETATM   26  C   UNL     1     -41.763  58.925 -54.771  1.00  0.00     0.079 A 
HETATM   27  C   UNL     1     -41.243  59.305 -53.433  1.00  0.00     0.075 C 
ENDBRANCH   1  20
TORSDOF 5
ENDMDL
MODEL 4
REMARK VINA RESULT:      -7.5      3.188      4.269
REMARK  5 active torsions:
REMARK  status: ('A' for Active; 'I' for Inactive)
REMARK    1  A    between atoms: C_8  and  N_9 
REMARK       I    between atoms: N_9  and  C_10 
REMARK       I    between atoms: C_10  and  N_11 
REMARK    2  A    between atoms: N_11  and  C_12 
REMARK    3  A    between atoms: C_13  and  O_14 
REMARK    4  A    between atoms: O_14  and  C_15 
REMARK    5  A    between atoms: C_15  and  C_16 
ROOT
HETATM    1  N   UNL     1     -42.511  55.410 -57.726  1.00  0.00    -0.305 N 
HETATM    2  C   UNL     1     -42.824  55.580 -56.390  1.00  0.00     0.325 C 
HETATM    3  N   UNL     1     -42.303  54.539 -55.643  1.00  0.00    -0.306 N 
HETATM    4  O   UNL     1     -43.461  56.516 -55.926  1.00  0.00    -0.247 OA
HETATM    5  H   UNL     1     -41.703  54.839 -57.923  1.00  0.00     0.171 HD
HETATM    6  H   UNL     1     -42.058  53.697 -56.149  1.00  0.00     0.171 HD
ENDROOT
BRANCH   3   7
HETATM    7  C   UNL     1     -42.284  54.409 -54.235  1.00  0.00     0.071 A 
HETATM    8  C   UNL     1     -41.417  53.443 -53.691  1.00  0.00     0.096 A 
HETATM    9  C   UNL     1     -41.299  53.281 -52.309  1.00  0.00     0.041 A 
HETATM   10  C   UNL     1     -42.077  54.065 -51.458  1.00  0.00     0.026 A 
HETATM   11  C   UNL     1     -42.952  55.011 -51.993  1.00  0.00     0.036 A 
HETATM   12 CL   UNL     1     -43.899  55.980 -50.930  1.00  0.00    -0.084 Cl
HETATM   13  C   UNL     1     -43.057  55.190 -53.374  1.00  0.00     0.056 A 
BRANCH   8  14
HETATM   14  O   UNL     1     -40.656  52.705 -54.566  1.00  0.00    -0.340 OA
BRANCH  14  15
HETATM   15  C   UNL     1     -39.808  51.758 -53.885  1.00  0.00     0.293 C 
BRANCH  15  16
HETATM   16  C   UNL     1     -40.219  50.341 -54.248  1.00  0.00     0.408 C 
HETATM   17  F   UNL     1     -41.509  50.293 -54.653  1.00  0.00    -0.169 F 
HETATM   18  F   UNL     1     -39.455  49.840 -55.244  1.00  0.00    -0.169 F 
HETATM   19  F   UNL     1     -40.094  49.519 -53.183  1.00  0.00    -0.169 F 
ENDBRANCH  15  16
ENDBRANCH  14  15
ENDBRANCH   8  14
ENDBRANCH   3   7
BRANCH   1  20
HETATM   20  C   UNL     1     -42.992  56.161 -58.786  1.00  0.00     0.086 A 
HETATM   21  C   UNL     1     -43.923  55.660 -59.676  1.00  0.00     0.052 A 
HETATM   22  C   UNL     1     -44.596  54.345 -59.789  1.00  0.00     0.072 C 
HETATM   23  N   UNL     1     -44.162  56.665 -60.570  1.00  0.00    -0.280 N 
HETATM   24  H   UNL     1     -44.781  56.656 -61.373  1.00  0.00     0.189 HD
HETATM   25  N   UNL     1     -43.485  57.788 -60.315  1.00  0.00    -0.177 NA
HETATM   26  C   UNL     1     -42.765  57.500 -59.220  1.00  0.00     0.079 A 
HETATM   27  C   UNL     1     -41.927  58.575 -58.629  1.00  0.00     0.075 C 
ENDBRANCH   1  20
TORSDOF 5
ENDMDL
MODEL 5
REMARK VINA RESULT:      -7.5      2.147      2.564
REMARK  5 active torsions:
REMARK  status: ('A' for Active; 'I' for Inactive)
REMARK    1  A    between atoms: C_8  and  N_9 
REMARK       I    between atoms: N_9  and  C_10 
REMARK       I    between atoms: C_10  and  N_11 
REMARK    2  A    between atoms: N_11  and  C_12 
REMARK    3  A    between atoms: C_13  and  O_14 
REMARK    4  A    between atoms: O_14  and  C_15 
REMARK    5  A    between atoms: C_15  and  C_16 
ROOT
HETATM    1  N   UNL     1     -42.458  56.440 -54.520  1.00  0.00    -0.305 N 
HETATM    2  C   UNL     1     -42.364  55.091 -54.235  1.00  0.00     0.325 C 
HETATM    3  N   UNL     1     -41.053  54.755 -53.946  1.00  0.00    -0.306 N 
HETATM    4  O   UNL     1     -43.299  54.302 -54.228  1.00  0.00    -0.247 OA
HETATM    5  H   UNL     1     -41.730  57.026 -54.140  1.00  0.00     0.171 HD
HETATM    6  H   UNL     1     -40.341  55.403 -54.260  1.00  0.00     0.171 HD
ENDROOT
BRANCH   3   7
HETATM    7  C   UNL     1     -40.560  53.517 -53.477  1.00  0.00     0.071 A 
HETATM    8  C   UNL     1     -40.336  53.398 -52.092  1.00  0.00     0.096 A 
HETATM    9  C   UNL     1     -39.896  52.194 -51.537  1.00  0.00     0.041 A 
HETATM   10  C   UNL     1     -39.644  51.106 -52.371  1.00  0.00     0.026 A 
HETATM   11  C   UNL     1     -39.846  51.224 -53.746  1.00  0.00     0.036 A 
HETATM   12 CL   UNL     1     -39.540  49.869 -54.763  1.00  0.00    -0.084 Cl
HETATM   13  C   UNL     1     -40.305  52.420 -54.302  1.00  0.00     0.056 A 
BRANCH   8  14
HETATM   14  O   UNL     1     -40.615  54.490 -51.305  1.00  0.00    -0.340 OA
BRANCH  14  15
HETATM   15  C   UNL     1     -41.464  54.154 -50.190  1.00  0.00     0.293 C 
BRANCH  15  16
HETATM   16  C   UNL     1     -40.670  54.222 -48.896  1.00  0.00     0.408 C 
HETATM   17  F   UNL     1     -40.778  53.071 -48.193  1.00  0.00    -0.169 F 
HETATM   18  F   UNL     1     -39.357  54.443 -49.128  1.00  0.00    -0.169 F 
HETATM   19  F   UNL     1     -41.121  55.225 -48.111  1.00  0.00    -0.169 F 
ENDBRANCH  15  16
ENDBRANCH  14  15
ENDBRANCH   8  14
ENDBRANCH   3   7
BRANCH   1  20
HETATM   20  C   UNL     1     -43.574  57.103 -55.004  1.00  0.00     0.086 A 
HETATM   21  C   UNL     1     -44.526  57.646 -54.163  1.00  0.00     0.052 A 
HETATM   22  C   UNL     1     -44.660  57.676 -52.687  1.00  0.00     0.072 C 
HETATM   23  N   UNL     1     -45.462  58.217 -54.977  1.00  0.00    -0.280 N 
HETATM   24  H   UNL     1     -46.313  58.699 -54.713  1.00  0.00     0.189 HD
HETATM   25  N   UNL     1     -45.180  58.113 -56.279  1.00  0.00    -0.177 NA
HETATM   26  C   UNL     1     -44.021  57.437 -56.316  1.00  0.00     0.079 A 
HETATM   27  C   UNL     1     -43.391  57.198 -57.639  1.00  0.00     0.075 C 
ENDBRANCH   1  20
TORSDOF 5
ENDMDL
MODEL 6
REMARK VINA RESULT:      -6.9      2.938      6.428
REMARK  5 active torsions:
REMARK  status: ('A' for Active; 'I' for Inactive)
REMARK    1  A    between atoms: C_8  and  N_9 
REMARK       I    between atoms: N_9  and  C_10 
REMARK       I    between atoms: C_10  and  N_11 
REMARK    2  A    between atoms: N_11  and  C_12 
REMARK    3  A    between atoms: C_13  and  O_14 
REMARK    4  A    between atoms: O_14  and  C_15 
REMARK    5  A    between atoms: C_15  and  C_16 
ROOT
HETATM    1  N   UNL     1     -40.135  53.079 -54.096  1.00  0.00    -0.305 N 
HETATM    2  C   UNL     1     -41.282  53.813 -54.334  1.00  0.00     0.325 C 
HETATM    3  N   UNL     1     -41.032  54.796 -55.275  1.00  0.00    -0.306 N 
HETATM    4  O   UNL     1     -42.367  53.623 -53.802  1.00  0.00    -0.247 OA
HETATM    5  H   UNL     1     -39.446  53.082 -54.832  1.00  0.00     0.171 HD
HETATM    6  H   UNL     1     -40.061  55.044 -55.423  1.00  0.00     0.171 HD
ENDROOT
BRANCH   3   7
HETATM    7  C   UNL     1     -41.963  55.664 -55.889  1.00  0.00     0.071 A 
HETATM    8  C   UNL     1     -42.234  56.882 -55.236  1.00  0.00     0.096 A 
HETATM    9  C   UNL     1     -43.103  57.819 -55.797  1.00  0.00     0.041 A 
HETATM   10  C   UNL     1     -43.738  57.530 -57.005  1.00  0.00     0.026 A 
HETATM   11  C   UNL     1     -43.488  56.317 -57.646  1.00  0.00     0.036 A 
HETATM   12 CL   UNL     1     -44.270  55.976 -59.141  1.00  0.00    -0.084 Cl
HETATM   13  C   UNL     1     -42.603  55.385 -57.098  1.00  0.00     0.056 A 
BRANCH   8  14
HETATM   14  O   UNL     1     -41.572  57.134 -54.058  1.00  0.00    -0.340 OA
BRANCH  14  15
HETATM   15  C   UNL     1     -42.480  57.414 -52.973  1.00  0.00     0.293 C 
BRANCH  15  16
HETATM   16  C   UNL     1     -42.058  56.642 -51.734  1.00  0.00     0.408 C 
HETATM   17  F   UNL     1     -41.930  57.462 -50.666  1.00  0.00    -0.169 F 
HETATM   18  F   UNL     1     -42.956  55.684 -51.413  1.00  0.00    -0.169 F 
HETATM   19  F   UNL     1     -40.866  56.035 -51.930  1.00  0.00    -0.169 F 
ENDBRANCH  15  16
ENDBRANCH  14  15
ENDBRANCH   8  14
ENDBRANCH   3   7
BRANCH   1  20
HETATM   20  C   UNL     1     -39.961  52.122 -53.110  1.00  0.00     0.086 A 
HETATM   21  C   UNL     1     -39.800  50.782 -53.409  1.00  0.00     0.052 A 
HETATM   22  C   UNL     1     -39.786  50.035 -54.688  1.00  0.00     0.072 C 
HETATM   23  N   UNL     1     -39.651  50.148 -52.209  1.00  0.00    -0.280 N 
HETATM   24  H   UNL     1     -39.523  49.157 -52.035  1.00  0.00     0.189 HD
HETATM   25  N   UNL     1     -39.672  50.970 -51.156  1.00  0.00    -0.177 NA
HETATM   26  C   UNL     1     -39.856  52.188 -51.689  1.00  0.00     0.079 A 
HETATM   27  C   UNL     1     -39.870  53.358 -50.775  1.00  0.00     0.075 C 
ENDBRANCH   1  20
TORSDOF 5
ENDMDL
MODEL 7
REMARK VINA RESULT:      -6.8      2.862      6.174
REMARK  5 active torsions:
REMARK  status: ('A' for Active; 'I' for Inactive)
REMARK    1  A    between atoms: C_8  and  N_9 
REMARK       I    between atoms: N_9  and  C_10 
REMARK       I    between atoms: C_10  and  N_11 
REMARK    2  A    between atoms: N_11  and  C_12 
REMARK    3  A    between atoms: C_13  and  O_14 
REMARK    4  A    between atoms: O_14  and  C_15 
REMARK    5  A    between atoms: C_15  and  C_16 
ROOT
HETATM    1  N   UNL     1     -39.943  53.048 -53.906  1.00  0.00    -0.305 N 
HETATM    2  C   UNL     1     -41.129  53.639 -54.299  1.00  0.00     0.325 C 
HETATM    3  N   UNL     1     -40.874  54.840 -54.937  1.00  0.00    -0.306 N 
HETATM    4  O   UNL     1     -42.245  53.172 -54.120  1.00  0.00    -0.247 OA
HETATM    5  H   UNL     1     -39.119  53.323 -54.418  1.00  0.00     0.171 HD
HETATM    6  H   UNL     1     -39.966  55.256 -54.772  1.00  0.00     0.171 HD
ENDROOT
BRANCH   3   7
HETATM    7  C   UNL     1     -41.796  55.679 -55.602  1.00  0.00     0.071 A 
HETATM    8  C   UNL     1     -42.100  56.911 -54.992  1.00  0.00     0.096 A 
HETATM    9  C   UNL     1     -42.962  57.822 -55.605  1.00  0.00     0.041 A 
HETATM   10  C   UNL     1     -43.557  57.492 -56.822  1.00  0.00     0.026 A 
HETATM   11  C   UNL     1     -43.275  56.264 -57.421  1.00  0.00     0.036 A 
HETATM   12 CL   UNL     1     -44.009  55.872 -58.929  1.00  0.00    -0.084 Cl
HETATM   13  C   UNL     1     -42.396  55.359 -56.822  1.00  0.00     0.056 A 
BRANCH   8  14
HETATM   14  O   UNL     1     -41.476  57.204 -53.803  1.00  0.00    -0.340 OA
BRANCH  14  15
HETATM   15  C   UNL     1     -42.418  57.527 -52.760  1.00  0.00     0.293 C 
BRANCH  15  16
HETATM   16  C   UNL     1     -42.642  56.314 -51.872  1.00  0.00     0.408 C 
HETATM   17  F   UNL     1     -41.498  55.612 -51.703  1.00  0.00    -0.169 F 
HETATM   18  F   UNL     1     -43.094  56.668 -50.649  1.00  0.00    -0.169 F 
HETATM   19  F   UNL     1     -43.555  55.482 -52.420  1.00  0.00    -0.169 F 
ENDBRANCH  15  16
ENDBRANCH  14  15
ENDBRANCH   8  14
ENDBRANCH   3   7
BRANCH   1  20
HETATM   20  C   UNL     1     -39.808  51.924 -53.107  1.00  0.00     0.086 A 
HETATM   21  C   UNL     1     -39.768  52.006 -51.728  1.00  0.00     0.052 A 
HETATM   22  C   UNL     1     -39.825  53.152 -50.789  1.00  0.00     0.072 C 
HETATM   23  N   UNL     1     -39.636  50.722 -51.281  1.00  0.00    -0.280 N 
HETATM   24  H   UNL     1     -39.561  50.395 -50.325  1.00  0.00     0.189 HD
HETATM   25  N   UNL     1     -39.617  49.810 -52.257  1.00  0.00    -0.177 NA
HETATM   26  C   UNL     1     -39.727  50.528 -53.386  1.00  0.00     0.079 A 
HETATM   27  C   UNL     1     -39.795  49.799 -54.678  1.00  0.00     0.075 C 
ENDBRANCH   1  20
TORSDOF 5
ENDMDL
MODEL 8
REMARK VINA RESULT:      -6.8      2.902      6.316
REMARK  5 active torsions:
REMARK  status: ('A' for Active; 'I' for Inactive)
REMARK    1  A    between atoms: C_8  and  N_9 
REMARK       I    between atoms: N_9  and  C_10 
REMARK       I    between atoms: C_10  and  N_11 
REMARK    2  A    between atoms: N_11  and  C_12 
REMARK    3  A    between atoms: C_13  and  O_14 
REMARK    4  A    between atoms: O_14  and  C_15 
REMARK    5  A    between atoms: C_15  and  C_16 
ROOT
HETATM    1  N   UNL     1     -41.018  54.693 -55.232  1.00  0.00    -0.305 N 
HETATM    2  C   UNL     1     -42.262  54.939 -55.781  1.00  0.00     0.325 C 
HETATM    3  N   UNL     1     -42.136  55.720 -56.916  1.00  0.00    -0.306 N 
HETATM    4  O   UNL     1     -43.325  54.524 -55.340  1.00  0.00    -0.247 OA
HETATM    5  H   UNL     1     -40.233  54.762 -55.862  1.00  0.00     0.171 HD
HETATM    6  H   UNL     1     -41.270  56.234 -57.017  1.00  0.00     0.171 HD
ENDROOT
BRANCH   3   7
HETATM    7  C   UNL     1     -43.147  56.078 -57.837  1.00  0.00     0.071 A 
HETATM    8  C   UNL     1     -43.788  57.315 -57.638  1.00  0.00     0.096 A 
HETATM    9  C   UNL     1     -44.763  57.770 -58.529  1.00  0.00     0.041 A 
HETATM   10  C   UNL     1     -45.129  56.970 -59.611  1.00  0.00     0.026 A 
HETATM   11  C   UNL     1     -44.510  55.735 -59.802  1.00  0.00     0.036 A 
HETATM   12 CL   UNL     1     -44.965  54.762 -61.148  1.00  0.00    -0.084 Cl
HETATM   13  C   UNL     1     -43.520  55.287 -58.925  1.00  0.00     0.056 A 
BRANCH   8  14
HETATM   14  O   UNL     1     -43.383  58.079 -56.570  1.00  0.00    -0.340 OA
BRANCH  14  15
HETATM   15  C   UNL     1     -44.494  58.687 -55.883  1.00  0.00     0.293 C 
BRANCH  15  16
HETATM   16  C   UNL     1     -44.717  57.996 -54.548  1.00  0.00     0.408 C 
HETATM   17  F   UNL     1     -43.551  57.560 -54.020  1.00  0.00    -0.169 F 
HETATM   18  F   UNL     1     -45.293  58.824 -53.648  1.00  0.00    -0.169 F 
HETATM   19  F   UNL     1     -45.528  56.924 -54.692  1.00  0.00    -0.169 F 
ENDBRANCH  15  16
ENDBRANCH  14  15
ENDBRANCH   8  14
ENDBRANCH   3   7
BRANCH   1  20
HETATM   20  C   UNL     1     -40.762  54.085 -54.014  1.00  0.00     0.086 A 
HETATM   21  C   UNL     1     -40.846  54.775 -52.818  1.00  0.00     0.052 A 
HETATM   22  C   UNL     1     -41.168  56.184 -52.495  1.00  0.00     0.072 C 
HETATM   23  N   UNL     1     -40.537  53.870 -51.844  1.00  0.00    -0.280 N 
HETATM   24  H   UNL     1     -40.485  54.019 -50.842  1.00  0.00     0.189 HD
HETATM   25  N   UNL     1     -40.288  52.641 -52.305  1.00  0.00    -0.177 NA
HETATM   26  C   UNL     1     -40.426  52.752 -53.636  1.00  0.00     0.079 A 
HETATM   27  C   UNL     1     -40.268  51.528 -54.462  1.00  0.00     0.075 C 
ENDBRANCH   1  20
TORSDOF 5
ENDMDL
MODEL 9
REMARK VINA RESULT:      -6.7      3.776      6.957
REMARK  5 active torsions:
REMARK  status: ('A' for Active; 'I' for Inactive)
REMARK    1  A    between atoms: C_8  and  N_9 
REMARK       I    between atoms: N_9  and  C_10 
REMARK       I    between atoms: C_10  and  N_11 
REMARK    2  A    between atoms: N_11  and  C_12 
REMARK    3  A    between atoms: C_13  and  O_14 
REMARK    4  A    between atoms: O_14  and  C_15 
REMARK    5  A    between atoms: C_15  and  C_16 
ROOT
HETATM    1  N   UNL     1     -40.637  54.449 -52.298  1.00  0.00    -0.305 N 
HETATM    2  C   UNL     1     -41.911  54.984 -52.327  1.00  0.00     0.325 C 
HETATM    3  N   UNL     1     -41.847  56.358 -52.477  1.00  0.00    -0.306 N 
HETATM    4  O   UNL     1     -42.950  54.344 -52.241  1.00  0.00    -0.247 OA
HETATM    5  H   UNL     1     -39.915  54.998 -52.737  1.00  0.00     0.171 HD
HETATM    6  H   UNL     1     -40.964  56.797 -52.248  1.00  0.00     0.171 HD
ENDROOT
BRANCH   3   7
HETATM    7  C   UNL     1     -42.918  57.257 -52.686  1.00  0.00     0.071 A 
HETATM    8  C   UNL     1     -43.111  57.734 -53.996  1.00  0.00     0.096 A 
HETATM    9  C   UNL     1     -44.174  58.586 -54.301  1.00  0.00     0.041 A 
HETATM   10  C   UNL     1     -45.037  58.997 -53.285  1.00  0.00     0.026 A 
HETATM   11  C   UNL     1     -44.839  58.542 -51.981  1.00  0.00     0.036 A 
HETATM   12 CL   UNL     1     -45.917  59.049 -50.738  1.00  0.00    -0.084 Cl
HETATM   13  C   UNL     1     -43.789  57.673 -51.677  1.00  0.00     0.056 A 
BRANCH   8  14
HETATM   14  O   UNL     1     -42.248  57.289 -54.969  1.00  0.00    -0.340 OA
BRANCH  14  15
HETATM   15  C   UNL     1     -42.946  56.744 -56.107  1.00  0.00     0.293 C 
BRANCH  15  16
HETATM   16  C   UNL     1     -42.841  55.228 -56.100  1.00  0.00     0.408 C 
HETATM   17  F   UNL     1     -43.164  54.709 -57.307  1.00  0.00    -0.169 F 
HETATM   18  F   UNL     1     -41.591  54.816 -55.795  1.00  0.00    -0.169 F 
HETATM   19  F   UNL     1     -43.681  54.694 -55.186  1.00  0.00    -0.169 F 
ENDBRANCH  15  16
ENDBRANCH  14  15
ENDBRANCH   8  14
ENDBRANCH   3   7
BRANCH   1  20
HETATM   20  C   UNL     1     -40.302  53.137 -52.004  1.00  0.00     0.086 A 
HETATM   21  C   UNL     1     -40.210  52.678 -50.704  1.00  0.00     0.052 A 
HETATM   22  C   UNL     1     -40.389  53.341 -49.391  1.00  0.00     0.072 C 
HETATM   23  N   UNL     1     -39.870  51.358 -50.798  1.00  0.00    -0.280 N 
HETATM   24  H   UNL     1     -39.703  50.698 -50.047  1.00  0.00     0.189 HD
HETATM   25  N   UNL     1     -39.764  50.916 -52.054  1.00  0.00    -0.177 NA
HETATM   26  C   UNL     1     -40.031  51.992 -52.810  1.00  0.00     0.079 A 
HETATM   27  C   UNL     1     -40.053  51.825 -54.285  1.00  0.00     0.075 C 
ENDBRANCH   1  20
TORSDOF 5
ENDMDL
MODEL 10
REMARK VINA RESULT:      -6.5      3.925      7.053
REMARK  5 active torsions:
REMARK  status: ('A' for Active; 'I' for Inactive)
REMARK    1  A    between atoms: C_8  and  N_9 
REMARK       I    between atoms: N_9  and  C_10 
REMARK       I    between atoms: C_10  and  N_11 
REMARK    2  A    between atoms: N_11  and  C_12 
REMARK    3  A    between atoms: C_13  and  O_14 
REMARK    4  A    between atoms: O_14  and  C_15 
REMARK    5  A    between atoms: C_15  and  C_16 
ROOT
HETATM    1  N   UNL     1     -40.801  54.540 -52.636  1.00  0.00    -0.305 N 
HETATM    2  C   UNL     1     -42.058  55.114 -52.611  1.00  0.00     0.325 C 
HETATM    3  N   UNL     1     -42.000  56.410 -53.092  1.00  0.00    -0.306 N 
HETATM    4  O   UNL     1     -43.081  54.563 -52.228  1.00  0.00    -0.247 OA
HETATM    5  H   UNL     1     -40.146  54.937 -53.292  1.00  0.00     0.171 HD
HETATM    6  H   UNL     1     -41.088  56.848 -53.103  1.00  0.00     0.171 HD
ENDROOT
BRANCH   3   7
HETATM    7  C   UNL     1     -43.079  57.285 -53.355  1.00  0.00     0.071 A 
HETATM    8  C   UNL     1     -43.402  58.224 -52.358  1.00  0.00     0.096 A 
HETATM    9  C   UNL     1     -44.421  59.159 -52.554  1.00  0.00     0.041 A 
HETATM   10  C   UNL     1     -45.150  59.139 -53.743  1.00  0.00     0.026 A 
HETATM   11  C   UNL     1     -44.846  58.198 -54.727  1.00  0.00     0.036 A 
HETATM   12 CL   UNL     1     -45.747  58.190 -56.194  1.00  0.00    -0.084 Cl
HETATM   13  C   UNL     1     -43.814  57.275 -54.542  1.00  0.00     0.056 A 
BRANCH   8  14
HETATM   14  O   UNL     1     -42.646  58.220 -51.210  1.00  0.00    -0.340 OA
BRANCH  14  15
HETATM   15  C   UNL     1     -41.874  59.428 -51.063  1.00  0.00     0.293 C 
BRANCH  15  16
HETATM   16  C   UNL     1     -40.391  59.107 -51.136  1.00  0.00     0.408 C 
HETATM   17  F   UNL     1     -39.941  59.156 -52.411  1.00  0.00    -0.169 F 
HETATM   18  F   UNL     1     -39.656  59.974 -50.405  1.00  0.00    -0.169 F 
HETATM   19  F   UNL     1     -40.146  57.864 -50.663  1.00  0.00    -0.169 F 
ENDBRANCH  15  16
ENDBRANCH  14  15
ENDBRANCH   8  14
ENDBRANCH   3   7
BRANCH   1  20
HETATM   20  C   UNL     1     -40.443  53.320 -52.089  1.00  0.00     0.086 A 
HETATM   21  C   UNL     1     -40.123  52.229 -52.875  1.00  0.00     0.052 A 
HETATM   22  C   UNL     1     -40.086  52.028 -54.343  1.00  0.00     0.072 C 
HETATM   23  N   UNL     1     -39.820  51.219 -52.007  1.00  0.00    -0.280 N 
HETATM   24  H   UNL     1     -39.552  50.266 -52.223  1.00  0.00     0.189 HD
HETATM   25  N   UNL     1     -39.888  51.573 -50.721  1.00  0.00    -0.177 NA
HETATM   26  C   UNL     1     -40.263  52.862 -50.750  1.00  0.00     0.079 A 
HETATM   27  C   UNL     1     -40.379  53.588 -49.460  1.00  0.00     0.075 C 
ENDBRANCH   1  20
TORSDOF 5
ENDMDL
