MODEL 1
REMARK VINA RESULT:      -8.6      0.000      0.000
REMARK  6 active torsions:
REMARK  status: ('A' for Active; 'I' for Inactive)
REMARK    1  A    between atoms: O_2  and  C_3 
REMARK    2  A    between atoms: C_6  and  C_7 
REMARK    3  A    between atoms: C_7  and  N_8 
REMARK       I    between atoms: N_8  and  C_9 
REMARK    4  A    between atoms: C_9  and  C_10 
REMARK    5  A    between atoms: C_13  and  C_14 
REMARK    6  A    between atoms: C_19  and  C_20 
ROOT
HETATM    1  C   UNL     1     -42.516  57.063 -55.105  1.00  0.00     0.096 A 
HETATM    2  C   UNL     1     -42.420  56.175 -54.048  1.00  0.00     0.138 A 
HETATM    3  N   UNL     1     -41.626  56.795 -53.108  1.00  0.00    -0.240 N 
HETATM    4  C   UNL     1     -41.300  56.225 -51.812  1.00  0.00     0.221 C 
HETATM    5  C   UNL     1     -42.347  55.159 -51.439  1.00  0.00     0.066 C 
HETATM    6  C   UNL     1     -42.598  54.188 -52.601  1.00  0.00     0.118 C 
HETATM    7  N   UNL     1     -42.948  54.947 -53.801  1.00  0.00    -0.365 N 
HETATM    8  N   UNL     1     -41.139  57.977 -53.509  1.00  0.00    -0.181 NA
HETATM    9  C   UNL     1     -41.718  58.161 -54.698  1.00  0.00     0.160 A 
HETATM   10  H   UNL     1     -43.705  54.557 -54.359  1.00  0.00     0.161 HD
ENDROOT
BRANCH   1  11
HETATM   11  C   UNL     1     -43.255  56.966 -56.348  1.00  0.00     0.257 C 
HETATM   12  N   UNL     1     -42.606  56.298 -57.361  1.00  0.00    -0.352 N 
HETATM   13  H   UNL     1     -41.615  56.129 -57.254  1.00  0.00     0.163 HD
HETATM   14  O   UNL     1     -44.365  57.470 -56.481  1.00  0.00    -0.267 OA
BRANCH  12  15
HETATM   15  C   UNL     1     -43.213  56.091 -58.654  1.00  0.00     0.161 C 
BRANCH  15  16
HETATM   16  C   UNL     1     -43.104  57.303 -59.542  1.00  0.00    -0.040 A 
HETATM   17  C   UNL     1     -44.244  58.040 -59.890  1.00  0.00     0.011 A 
HETATM   18  C   UNL     1     -44.138  59.207 -60.657  1.00  0.00     0.037 A 
HETATM   19  C   UNL     1     -42.888  59.654 -61.084  1.00  0.00     0.068 A 
HETATM   20  C   UNL     1     -41.752  58.909 -60.765  1.00  0.00     0.037 A 
HETATM   21  C   UNL     1     -41.854  57.748 -59.994  1.00  0.00     0.011 A 
BRANCH  19  22
HETATM   22  O   UNL     1     -42.653  60.783 -61.818  1.00  0.00    -0.356 OA
HETATM   23  C   UNL     1     -41.586  61.613 -61.374  1.00  0.00     0.210 C 
ENDBRANCH  19  22
ENDBRANCH  15  16
ENDBRANCH  12  15
ENDBRANCH   1  11
BRANCH   4  24
HETATM   24  C   UNL     1     -41.244  57.271 -50.717  1.00  0.00     0.409 C 
HETATM   25  F   UNL     1     -42.276  58.143 -50.779  1.00  0.00    -0.169 F 
HETATM   26  F   UNL     1     -41.337  56.658 -49.503  1.00  0.00    -0.169 F 
HETATM   27  F   UNL     1     -40.092  57.969 -50.690  1.00  0.00    -0.169 F 
ENDBRANCH   4  24
BRANCH   6  28
HETATM   28  C   UNL     1     -41.438  53.225 -52.822  1.00  0.00    -0.035 A 
HETATM   29  C   UNL     1     -41.234  52.687 -54.107  1.00  0.00     0.009 A 
HETATM   30  C   UNL     1     -40.203  51.777 -54.353  1.00  0.00     0.001 A 
HETATM   31  C   UNL     1     -39.351  51.395 -53.322  1.00  0.00     0.000 A 
HETATM   32  C   UNL     1     -39.528  51.923 -52.046  1.00  0.00     0.001 A 
HETATM   33  C   UNL     1     -40.562  52.830 -51.799  1.00  0.00     0.009 A 
ENDBRANCH   6  28
TORSDOF 6
ENDMDL
MODEL 2
REMARK VINA RESULT:      -8.4      0.266      1.129
REMARK  6 active torsions:
REMARK  status: ('A' for Active; 'I' for Inactive)
REMARK    1  A    between atoms: O_2  and  C_3 
REMARK    2  A    between atoms: C_6  and  C_7 
REMARK    3  A    between atoms: C_7  and  N_8 
REMARK       I    between atoms: N_8  and  C_9 
REMARK    4  A    between atoms: C_9  and  C_10 
REMARK    5  A    between atoms: C_13  and  C_14 
REMARK    6  A    between atoms: C_19  and  C_20 
ROOT
HETATM    1  C   UNL     1     -42.527  57.140 -55.121  1.00  0.00     0.096 A 
HETATM    2  C   UNL     1     -42.438  56.255 -54.062  1.00  0.00     0.138 A 
HETATM    3  N   UNL     1     -41.640  56.871 -53.124  1.00  0.00    -0.240 N 
HETATM    4  C   UNL     1     -41.319  56.303 -51.826  1.00  0.00     0.221 C 
HETATM    5  C   UNL     1     -42.375  55.247 -51.450  1.00  0.00     0.066 C 
HETATM    6  C   UNL     1     -42.632  54.274 -52.609  1.00  0.00     0.118 C 
HETATM    7  N   UNL     1     -42.976  55.032 -53.812  1.00  0.00    -0.365 N 
HETATM    8  N   UNL     1     -41.144  58.048 -53.528  1.00  0.00    -0.181 NA
HETATM    9  C   UNL     1     -41.720  58.233 -54.717  1.00  0.00     0.160 A 
HETATM   10  H   UNL     1     -43.735  54.647 -54.369  1.00  0.00     0.161 HD
ENDROOT
BRANCH   1  11
HETATM   11  C   UNL     1     -43.265  57.046 -56.365  1.00  0.00     0.257 C 
HETATM   12  N   UNL     1     -42.546  56.564 -57.435  1.00  0.00    -0.352 N 
HETATM   13  H   UNL     1     -41.540  56.527 -57.347  1.00  0.00     0.163 HD
HETATM   14  O   UNL     1     -44.437  57.398 -56.449  1.00  0.00    -0.267 OA
BRANCH  12  15
HETATM   15  C   UNL     1     -43.140  56.383 -58.738  1.00  0.00     0.161 C 
BRANCH  15  16
HETATM   16  C   UNL     1     -43.104  57.640 -59.566  1.00  0.00    -0.040 A 
HETATM   17  C   UNL     1     -41.899  58.104 -60.110  1.00  0.00     0.011 A 
HETATM   18  C   UNL     1     -41.872  59.233 -60.938  1.00  0.00     0.037 A 
HETATM   19  C   UNL     1     -43.054  59.911 -61.236  1.00  0.00     0.068 A 
HETATM   20  C   UNL     1     -44.253  59.471 -60.675  1.00  0.00     0.037 A 
HETATM   21  C   UNL     1     -44.283  58.341 -59.853  1.00  0.00     0.011 A 
BRANCH  19  22
HETATM   22  O   UNL     1     -43.161  61.009 -62.044  1.00  0.00    -0.356 OA
HETATM   23  C   UNL     1     -42.053  61.902 -62.043  1.00  0.00     0.210 C 
ENDBRANCH  19  22
ENDBRANCH  15  16
ENDBRANCH  12  15
ENDBRANCH   1  11
BRANCH   4  24
HETATM   24  C   UNL     1     -41.255  57.352 -50.734  1.00  0.00     0.409 C 
HETATM   25  F   UNL     1     -41.296  56.813 -49.494  1.00  0.00    -0.169 F 
HETATM   26  F   UNL     1     -40.070  58.020 -50.819  1.00  0.00    -0.169 F 
HETATM   27  F   UNL     1     -42.217  58.292 -50.825  1.00  0.00    -0.169 F 
ENDBRANCH   4  24
BRANCH   6  28
HETATM   28  C   UNL     1     -41.480  53.302 -52.827  1.00  0.00    -0.035 A 
HETATM   29  C   UNL     1     -41.265  52.776 -54.115  1.00  0.00     0.009 A 
HETATM   30  C   UNL     1     -40.241  51.858 -54.358  1.00  0.00     0.001 A 
HETATM   31  C   UNL     1     -39.406  51.455 -53.321  1.00  0.00     0.000 A 
HETATM   32  C   UNL     1     -39.594  51.970 -52.042  1.00  0.00     0.001 A 
HETATM   33  C   UNL     1     -40.622  52.885 -51.797  1.00  0.00     0.009 A 
ENDBRANCH   6  28
TORSDOF 6
ENDMDL
MODEL 3
REMARK VINA RESULT:      -8.2      1.885      2.723
REMARK  6 active torsions:
REMARK  status: ('A' for Active; 'I' for Inactive)
REMARK    1  A    between atoms: O_2  and  C_3 
REMARK    2  A    between atoms: C_6  and  C_7 
REMARK    3  A    between atoms: C_7  and  N_8 
REMARK       I    between atoms: N_8  and  C_9 
REMARK    4  A    between atoms: C_9  and  C_10 
REMARK    5  A    between atoms: C_13  and  C_14 
REMARK    6  A    between atoms: C_19  and  C_20 
ROOT
HETATM    1  C   UNL     1     -42.495  59.009 -54.788  1.00  0.00     0.096 A 
HETATM    2  C   UNL     1     -42.460  57.902 -53.959  1.00  0.00     0.138 A 
HETATM    3  N   UNL     1     -41.546  58.201 -52.973  1.00  0.00    -0.240 N 
HETATM    4  C   UNL     1     -41.230  57.323 -51.860  1.00  0.00     0.221 C 
HETATM    5  C   UNL     1     -42.384  56.327 -51.644  1.00  0.00     0.066 C 
HETATM    6  C   UNL     1     -42.817  55.676 -52.965  1.00  0.00     0.118 C 
HETATM    7  N   UNL     1     -43.128  56.719 -53.942  1.00  0.00    -0.365 N 
HETATM    8  N   UNL     1     -40.932  59.380 -53.146  1.00  0.00    -0.181 NA
HETATM    9  C   UNL     1     -41.543  59.890 -54.218  1.00  0.00     0.160 A 
HETATM   10  H   UNL     1     -43.956  56.552 -54.509  1.00  0.00     0.161 HD
ENDROOT
BRANCH   1  11
HETATM   11  C   UNL     1     -43.303  59.278 -55.962  1.00  0.00     0.257 C 
HETATM   12  N   UNL     1     -42.642  59.902 -56.994  1.00  0.00    -0.352 N 
HETATM   13  H   UNL     1     -41.744  60.321 -56.792  1.00  0.00     0.163 HD
HETATM   14  O   UNL     1     -44.493  58.987 -56.007  1.00  0.00    -0.267 OA
BRANCH  12  15
HETATM   15  C   UNL     1     -43.294  60.217 -58.242  1.00  0.00     0.161 C 
BRANCH  15  16
HETATM   16  C   UNL     1     -43.560  58.991 -59.077  1.00  0.00    -0.040 A 
HETATM   17  C   UNL     1     -42.514  58.131 -59.437  1.00  0.00     0.011 A 
HETATM   18  C   UNL     1     -42.767  56.954 -60.153  1.00  0.00     0.037 A 
HETATM   19  C   UNL     1     -44.072  56.622 -60.517  1.00  0.00     0.068 A 
HETATM   20  C   UNL     1     -45.114  57.489 -60.186  1.00  0.00     0.037 A 
HETATM   21  C   UNL     1     -44.865  58.660 -59.466  1.00  0.00     0.011 A 
BRANCH  19  22
HETATM   22  O   UNL     1     -44.448  55.497 -61.197  1.00  0.00    -0.356 OA
HETATM   23  C   UNL     1     -44.931  54.415 -60.408  1.00  0.00     0.210 C 
ENDBRANCH  19  22
ENDBRANCH  15  16
ENDBRANCH  12  15
ENDBRANCH   1  11
BRANCH   4  24
HETATM   24  C   UNL     1     -40.983  58.084 -50.573  1.00  0.00     0.409 C 
HETATM   25  F   UNL     1     -41.892  59.065 -50.368  1.00  0.00    -0.169 F 
HETATM   26  F   UNL     1     -41.099  57.231 -49.515  1.00  0.00    -0.169 F 
HETATM   27  F   UNL     1     -39.748  58.616 -50.483  1.00  0.00    -0.169 F 
ENDBRANCH   4  24
BRANCH   6  28
HETATM   28  C   UNL     1     -41.804  54.661 -53.479  1.00  0.00    -0.035 A 
HETATM   29  C   UNL     1     -41.234  54.851 -54.753  1.00  0.00     0.009 A 
HETATM   30  C   UNL     1     -40.323  53.932 -55.280  1.00  0.00     0.001 A 
HETATM   31  C   UNL     1     -39.958  52.812 -54.541  1.00  0.00     0.000 A 
HETATM   32  C   UNL     1     -40.501  52.610 -53.275  1.00  0.00     0.001 A 
HETATM   33  C   UNL     1     -41.415  53.526 -52.749  1.00  0.00     0.009 A 
ENDBRANCH   6  28
TORSDOF 6
ENDMDL
MODEL 4
REMARK VINA RESULT:      -8.2      2.776      3.598
REMARK  6 active torsions:
REMARK  status: ('A' for Active; 'I' for Inactive)
REMARK    1  A    between atoms: O_2  and  C_3 
REMARK    2  A    between atoms: C_6  and  C_7 
REMARK    3  A    between atoms: C_7  and  N_8 
REMARK       I    between atoms: N_8  and  C_9 
REMARK    4  A    between atoms: C_9  and  C_10 
REMARK    5  A    between atoms: C_13  and  C_14 
REMARK    6  A    between atoms: C_19  and  C_20 
ROOT
HETATM    1  C   UNL     1     -42.996  56.823 -57.170  1.00  0.00     0.096 A 
HETATM    2  C   UNL     1     -43.099  56.313 -55.889  1.00  0.00     0.138 A 
HETATM    3  N   UNL     1     -42.582  57.282 -55.057  1.00  0.00    -0.240 N 
HETATM    4  C   UNL     1     -42.536  57.175 -53.609  1.00  0.00     0.221 C 
HETATM    5  C   UNL     1     -43.580  56.147 -53.134  1.00  0.00     0.066 C 
HETATM    6  C   UNL     1     -43.498  54.849 -53.947  1.00  0.00     0.118 C 
HETATM    7  N   UNL     1     -43.601  55.160 -55.373  1.00  0.00    -0.365 N 
HETATM    8  N   UNL     1     -42.082  58.341 -55.709  1.00  0.00    -0.181 NA
HETATM    9  C   UNL     1     -42.377  58.084 -56.985  1.00  0.00     0.160 A 
HETATM   10  H   UNL     1     -44.184  54.528 -55.917  1.00  0.00     0.161 HD
ENDROOT
BRANCH   1  11
HETATM   11  C   UNL     1     -43.417  56.264 -58.440  1.00  0.00     0.257 C 
HETATM   12  N   UNL     1     -44.772  56.302 -58.673  1.00  0.00    -0.352 N 
HETATM   13  H   UNL     1     -45.379  56.496 -57.888  1.00  0.00     0.163 HD
HETATM   14  O   UNL     1     -42.615  55.772 -59.227  1.00  0.00    -0.267 OA
BRANCH  12  15
HETATM   15  C   UNL     1     -45.353  55.811 -59.900  1.00  0.00     0.161 C 
BRANCH  15  16
HETATM   16  C   UNL     1     -46.373  56.759 -60.474  1.00  0.00    -0.040 A 
HETATM   17  C   UNL     1     -46.286  58.136 -60.230  1.00  0.00     0.011 A 
HETATM   18  C   UNL     1     -47.191  59.027 -60.819  1.00  0.00     0.037 A 
HETATM   19  C   UNL     1     -48.194  58.552 -61.663  1.00  0.00     0.068 A 
HETATM   20  C   UNL     1     -48.304  57.179 -61.886  1.00  0.00     0.037 A 
HETATM   21  C   UNL     1     -47.398  56.288 -61.305  1.00  0.00     0.011 A 
BRANCH  19  22
HETATM   22  O   UNL     1     -49.122  59.320 -62.310  1.00  0.00    -0.356 OA
HETATM   23  C   UNL     1     -50.157  58.619 -62.990  1.00  0.00     0.210 C 
ENDBRANCH  19  22
ENDBRANCH  15  16
ENDBRANCH  12  15
ENDBRANCH   1  11
BRANCH   4  24
HETATM   24  C   UNL     1     -42.795  58.500 -52.921  1.00  0.00     0.409 C 
HETATM   25  F   UNL     1     -43.130  58.352 -51.619  1.00  0.00    -0.169 F 
HETATM   26  F   UNL     1     -41.654  59.247 -52.937  1.00  0.00    -0.169 F 
HETATM   27  F   UNL     1     -43.736  59.252 -53.525  1.00  0.00    -0.169 F 
ENDBRANCH   4  24
BRANCH   6  28
HETATM   28  C   UNL     1     -42.267  54.018 -53.607  1.00  0.00    -0.035 A 
HETATM   29  C   UNL     1     -41.610  53.318 -54.636  1.00  0.00     0.009 A 
HETATM   30  C   UNL     1     -40.495  52.520 -54.369  1.00  0.00     0.001 A 
HETATM   31  C   UNL     1     -40.011  52.413 -53.069  1.00  0.00     0.000 A 
HETATM   32  C   UNL     1     -40.639  53.106 -52.037  1.00  0.00     0.001 A 
HETATM   33  C   UNL     1     -41.757  53.901 -52.304  1.00  0.00     0.009 A 
ENDBRANCH   6  28
TORSDOF 6
ENDMDL
MODEL 5
REMARK VINA RESULT:      -8.0      4.068      9.530
REMARK  6 active torsions:
REMARK  status: ('A' for Active; 'I' for Inactive)
REMARK    1  A    between atoms: O_2  and  C_3 
REMARK    2  A    between atoms: C_6  and  C_7 
REMARK    3  A    between atoms: C_7  and  N_8 
REMARK       I    between atoms: N_8  and  C_9 
REMARK    4  A    between atoms: C_9  and  C_10 
REMARK    5  A    between atoms: C_13  and  C_14 
REMARK    6  A    between atoms: C_19  and  C_20 
ROOT
HETATM    1  C   UNL     1     -42.931  56.580 -56.993  1.00  0.00     0.096 A 
HETATM    2  C   UNL     1     -43.529  57.555 -57.771  1.00  0.00     0.138 A 
HETATM    3  N   UNL     1     -44.055  56.895 -58.861  1.00  0.00    -0.240 N 
HETATM    4  C   UNL     1     -44.813  57.540 -59.918  1.00  0.00     0.221 C 
HETATM    5  C   UNL     1     -45.387  58.873 -59.402  1.00  0.00     0.066 C 
HETATM    6  C   UNL     1     -44.315  59.704 -58.684  1.00  0.00     0.118 C 
HETATM    7  N   UNL     1     -43.695  58.897 -57.634  1.00  0.00    -0.365 N 
HETATM    8  N   UNL     1     -43.772  55.585 -58.885  1.00  0.00    -0.181 NA
HETATM    9  C   UNL     1     -43.135  55.386 -57.729  1.00  0.00     0.160 A 
HETATM   10  H   UNL     1     -43.523  59.380 -56.756  1.00  0.00     0.161 HD
ENDROOT
BRANCH   1  11
HETATM   11  C   UNL     1     -42.259  56.682 -55.713  1.00  0.00     0.257 C 
HETATM   12  N   UNL     1     -41.757  55.499 -55.221  1.00  0.00    -0.352 N 
HETATM   13  H   UNL     1     -42.075  54.640 -55.649  1.00  0.00     0.163 HD
HETATM   14  O   UNL     1     -42.173  57.748 -55.112  1.00  0.00    -0.267 OA
BRANCH  12  15
HETATM   15  C   UNL     1     -41.037  55.433 -53.972  1.00  0.00     0.161 C 
BRANCH  15  16
HETATM   16  C   UNL     1     -40.676  54.021 -53.591  1.00  0.00    -0.040 A 
HETATM   17  C   UNL     1     -40.580  53.019 -54.566  1.00  0.00     0.011 A 
HETATM   18  C   UNL     1     -40.176  51.722 -54.225  1.00  0.00     0.037 A 
HETATM   19  C   UNL     1     -39.861  51.411 -52.902  1.00  0.00     0.068 A 
HETATM   20  C   UNL     1     -39.983  52.397 -51.922  1.00  0.00     0.037 A 
HETATM   21  C   UNL     1     -40.379  53.694 -52.261  1.00  0.00     0.011 A 
BRANCH  19  22
HETATM   22  O   UNL     1     -39.438  50.193 -52.449  1.00  0.00    -0.356 OA
HETATM   23  C   UNL     1     -39.547  49.969 -51.048  1.00  0.00     0.210 C 
ENDBRANCH  19  22
ENDBRANCH  15  16
ENDBRANCH  12  15
ENDBRANCH   1  11
BRANCH   4  24
HETATM   24  C   UNL     1     -45.948  56.676 -60.428  1.00  0.00     0.409 C 
HETATM   25  F   UNL     1     -45.509  55.598 -61.118  1.00  0.00    -0.169 F 
HETATM   26  F   UNL     1     -46.655  56.188 -59.370  1.00  0.00    -0.169 F 
HETATM   27  F   UNL     1     -46.838  57.340 -61.192  1.00  0.00    -0.169 F 
ENDBRANCH   4  24
BRANCH   6  28
HETATM   28  C   UNL     1     -43.300  60.311 -59.646  1.00  0.00    -0.035 A 
HETATM   29  C   UNL     1     -42.204  61.023 -59.122  1.00  0.00     0.009 A 
HETATM   30  C   UNL     1     -41.265  61.622 -59.964  1.00  0.00     0.001 A 
HETATM   31  C   UNL     1     -41.397  61.514 -61.345  1.00  0.00     0.000 A 
HETATM   32  C   UNL     1     -42.467  60.806 -61.884  1.00  0.00     0.001 A 
HETATM   33  C   UNL     1     -43.410  60.210 -61.043  1.00  0.00     0.009 A 
ENDBRANCH   6  28
TORSDOF 6
ENDMDL
MODEL 6
REMARK VINA RESULT:      -7.8      4.096      9.129
REMARK  6 active torsions:
REMARK  status: ('A' for Active; 'I' for Inactive)
REMARK    1  A    between atoms: O_2  and  C_3 
REMARK    2  A    between atoms: C_6  and  C_7 
REMARK    3  A    between atoms: C_7  and  N_8 
REMARK       I    between atoms: N_8  and  C_9 
REMARK    4  A    between atoms: C_9  and  C_10 
REMARK    5  A    between atoms: C_13  and  C_14 
REMARK    6  A    between atoms: C_19  and  C_20 
ROOT
HETATM    1  C   UNL     1     -43.224  57.662 -56.141  1.00  0.00     0.096 A 
HETATM    2  C   UNL     1     -43.867  57.735 -57.364  1.00  0.00     0.138 A 
HETATM    3  N   UNL     1     -43.156  58.650 -58.108  1.00  0.00    -0.240 N 
HETATM    4  C   UNL     1     -43.466  59.001 -59.483  1.00  0.00     0.221 C 
HETATM    5  C   UNL     1     -44.295  57.875 -60.128  1.00  0.00     0.066 C 
HETATM    6  C   UNL     1     -45.458  57.446 -59.223  1.00  0.00     0.118 C 
HETATM    7  N   UNL     1     -44.941  57.098 -57.900  1.00  0.00    -0.365 N 
HETATM    8  N   UNL     1     -42.154  59.231 -57.433  1.00  0.00    -0.181 NA
HETATM    9  C   UNL     1     -42.165  58.596 -56.259  1.00  0.00     0.160 A 
HETATM   10  H   UNL     1     -45.351  56.269 -57.476  1.00  0.00     0.161 HD
ENDROOT
BRANCH   1  11
HETATM   11  C   UNL     1     -43.500  56.836 -54.982  1.00  0.00     0.257 C 
HETATM   12  N   UNL     1     -42.389  56.394 -54.302  1.00  0.00    -0.352 N 
HETATM   13  H   UNL     1     -41.493  56.477 -54.762  1.00  0.00     0.163 HD
HETATM   14  O   UNL     1     -44.646  56.539 -54.659  1.00  0.00    -0.267 OA
BRANCH  12  15
HETATM   15  C   UNL     1     -42.491  55.585 -53.112  1.00  0.00     0.161 C 
BRANCH  15  16
HETATM   16  C   UNL     1     -41.600  54.372 -53.163  1.00  0.00    -0.040 A 
HETATM   17  C   UNL     1     -40.911  53.943 -52.021  1.00  0.00     0.011 A 
HETATM   18  C   UNL     1     -40.137  52.775 -52.046  1.00  0.00     0.037 A 
HETATM   19  C   UNL     1     -40.045  52.020 -53.214  1.00  0.00     0.068 A 
HETATM   20  C   UNL     1     -40.706  52.458 -54.363  1.00  0.00     0.037 A 
HETATM   21  C   UNL     1     -41.484  53.619 -54.339  1.00  0.00     0.011 A 
BRANCH  19  22
HETATM   22  O   UNL     1     -39.341  50.857 -53.359  1.00  0.00    -0.356 OA
HETATM   23  C   UNL     1     -39.755  49.996 -54.413  1.00  0.00     0.210 C 
ENDBRANCH  19  22
ENDBRANCH  15  16
ENDBRANCH  12  15
ENDBRANCH   1  11
BRANCH   4  24
HETATM   24  C   UNL     1     -42.222  59.240 -60.315  1.00  0.00     0.409 C 
HETATM   25  F   UNL     1     -41.447  58.136 -60.420  1.00  0.00    -0.169 F 
HETATM   26  F   UNL     1     -42.586  59.571 -61.586  1.00  0.00    -0.169 F 
HETATM   27  F   UNL     1     -41.459  60.259 -59.872  1.00  0.00    -0.169 F 
ENDBRANCH   4  24
BRANCH   6  28
HETATM   28  C   UNL     1     -46.576  58.480 -59.173  1.00  0.00    -0.035 A 
HETATM   29  C   UNL     1     -47.107  58.851 -57.923  1.00  0.00     0.009 A 
HETATM   30  C   UNL     1     -48.152  59.772 -57.828  1.00  0.00     0.001 A 
HETATM   31  C   UNL     1     -48.680  60.348 -58.979  1.00  0.00     0.000 A 
HETATM   32  C   UNL     1     -48.163  60.004 -60.225  1.00  0.00     0.001 A 
HETATM   33  C   UNL     1     -47.120  59.079 -60.321  1.00  0.00     0.009 A 
ENDBRANCH   6  28
TORSDOF 6
ENDMDL
MODEL 7
REMARK VINA RESULT:      -7.8      5.234      8.794
REMARK  6 active torsions:
REMARK  status: ('A' for Active; 'I' for Inactive)
REMARK    1  A    between atoms: O_2  and  C_3 
REMARK    2  A    between atoms: C_6  and  C_7 
REMARK    3  A    between atoms: C_7  and  N_8 
REMARK       I    between atoms: N_8  and  C_9 
REMARK    4  A    between atoms: C_9  and  C_10 
REMARK    5  A    between atoms: C_13  and  C_14 
REMARK    6  A    between atoms: C_19  and  C_20 
ROOT
HETATM    1  C   UNL     1     -42.084  59.202 -50.822  1.00  0.00     0.096 A 
HETATM    2  C   UNL     1     -42.477  57.934 -51.207  1.00  0.00     0.138 A 
HETATM    3  N   UNL     1     -41.458  57.091 -50.822  1.00  0.00    -0.240 N 
HETATM    4  C   UNL     1     -41.479  55.649 -50.999  1.00  0.00     0.221 C 
HETATM    5  C   UNL     1     -42.935  55.171 -51.154  1.00  0.00     0.066 C 
HETATM    6  C   UNL     1     -43.700  56.025 -52.174  1.00  0.00     0.118 C 
HETATM    7  N   UNL     1     -43.592  57.436 -51.804  1.00  0.00    -0.365 N 
HETATM    8  N   UNL     1     -40.405  57.728 -50.291  1.00  0.00    -0.181 NA
HETATM    9  C   UNL     1     -40.805  59.000 -50.246  1.00  0.00     0.160 A 
HETATM   10  H   UNL     1     -44.448  57.979 -51.900  1.00  0.00     0.161 HD
ENDROOT
BRANCH   1  11
HETATM   11  C   UNL     1     -42.773  60.473 -50.931  1.00  0.00     0.257 C 
HETATM   12  N   UNL     1     -43.533  60.820 -49.838  1.00  0.00    -0.352 N 
HETATM   13  H   UNL     1     -43.739  60.099 -49.160  1.00  0.00     0.163 HD
HETATM   14  O   UNL     1     -42.695  61.165 -51.940  1.00  0.00    -0.267 OA
BRANCH  12  15
HETATM   15  C   UNL     1     -44.261  62.065 -49.776  1.00  0.00     0.161 C 
BRANCH  15  16
HETATM   16  C   UNL     1     -44.657  62.430 -48.369  1.00  0.00    -0.040 A 
HETATM   17  C   UNL     1     -44.874  61.435 -47.407  1.00  0.00     0.011 A 
HETATM   18  C   UNL     1     -45.173  61.772 -46.081  1.00  0.00     0.037 A 
HETATM   19  C   UNL     1     -45.257  63.111 -45.699  1.00  0.00     0.068 A 
HETATM   20  C   UNL     1     -45.070  64.106 -46.660  1.00  0.00     0.037 A 
HETATM   21  C   UNL     1     -44.764  63.772 -47.982  1.00  0.00     0.011 A 
BRANCH  19  22
HETATM   22  O   UNL     1     -45.522  63.566 -44.438  1.00  0.00    -0.356 OA
HETATM   23  C   UNL     1     -46.481  64.611 -44.333  1.00  0.00     0.210 C 
ENDBRANCH  19  22
ENDBRANCH  15  16
ENDBRANCH  12  15
ENDBRANCH   1  11
BRANCH   4  24
HETATM   24  C   UNL     1     -40.835  54.914 -49.841  1.00  0.00     0.409 C 
HETATM   25  F   UNL     1     -41.235  55.387 -48.639  1.00  0.00    -0.169 F 
HETATM   26  F   UNL     1     -41.209  53.603 -49.876  1.00  0.00    -0.169 F 
HETATM   27  F   UNL     1     -39.488  54.915 -49.877  1.00  0.00    -0.169 F 
ENDBRANCH   4  24
BRANCH   6  28
HETATM   28  C   UNL     1     -43.271  55.751 -53.610  1.00  0.00    -0.035 A 
HETATM   29  C   UNL     1     -43.513  54.478 -54.163  1.00  0.00     0.009 A 
HETATM   30  C   UNL     1     -43.111  54.170 -55.464  1.00  0.00     0.001 A 
HETATM   31  C   UNL     1     -42.469  55.129 -56.241  1.00  0.00     0.000 A 
HETATM   32  C   UNL     1     -42.230  56.396 -55.718  1.00  0.00     0.001 A 
HETATM   33  C   UNL     1     -42.627  56.704 -54.414  1.00  0.00     0.009 A 
ENDBRANCH   6  28
TORSDOF 6
ENDMDL
MODEL 8
REMARK VINA RESULT:      -7.7      2.160      2.968
REMARK  6 active torsions:
REMARK  status: ('A' for Active; 'I' for Inactive)
REMARK    1  A    between atoms: O_2  and  C_3 
REMARK    2  A    between atoms: C_6  and  C_7 
REMARK    3  A    between atoms: C_7  and  N_8 
REMARK       I    between atoms: N_8  and  C_9 
REMARK    4  A    between atoms: C_9  and  C_10 
REMARK    5  A    between atoms: C_13  and  C_14 
REMARK    6  A    between atoms: C_19  and  C_20 
ROOT
HETATM    1  C   UNL     1     -42.171  57.154 -55.053  1.00  0.00     0.096 A 
HETATM    2  C   UNL     1     -42.187  56.209 -54.043  1.00  0.00     0.138 A 
HETATM    3  N   UNL     1     -41.460  56.755 -53.007  1.00  0.00    -0.240 N 
HETATM    4  C   UNL     1     -41.259  56.108 -51.722  1.00  0.00     0.221 C 
HETATM    5  C   UNL     1     -42.361  55.056 -51.496  1.00  0.00     0.066 C 
HETATM    6  C   UNL     1     -42.537  54.156 -52.726  1.00  0.00     0.118 C 
HETATM    7  N   UNL     1     -42.765  54.987 -53.908  1.00  0.00    -0.365 N 
HETATM    8  N   UNL     1     -40.911  57.941 -53.301  1.00  0.00    -0.181 NA
HETATM    9  C   UNL     1     -41.382  58.205 -54.521  1.00  0.00     0.160 A 
HETATM   10  H   UNL     1     -43.481  54.650 -54.547  1.00  0.00     0.161 HD
ENDROOT
BRANCH   1  11
HETATM   11  C   UNL     1     -42.803  57.145 -56.357  1.00  0.00     0.257 C 
HETATM   12  N   UNL     1     -42.901  58.374 -56.966  1.00  0.00    -0.352 N 
HETATM   13  H   UNL     1     -42.745  59.195 -56.397  1.00  0.00     0.163 HD
HETATM   14  O   UNL     1     -43.237  56.113 -56.857  1.00  0.00    -0.267 OA
BRANCH  12  15
HETATM   15  C   UNL     1     -43.480  58.535 -58.278  1.00  0.00     0.161 C 
BRANCH  15  16
HETATM   16  C   UNL     1     -44.932  58.935 -58.222  1.00  0.00    -0.040 A 
HETATM   17  C   UNL     1     -45.941  57.963 -58.244  1.00  0.00     0.011 A 
HETATM   18  C   UNL     1     -47.288  58.326 -58.121  1.00  0.00     0.037 A 
HETATM   19  C   UNL     1     -47.643  59.667 -57.972  1.00  0.00     0.068 A 
HETATM   20  C   UNL     1     -46.643  60.641 -57.979  1.00  0.00     0.037 A 
HETATM   21  C   UNL     1     -45.298  60.281 -58.095  1.00  0.00     0.011 A 
BRANCH  19  22
HETATM   22  O   UNL     1     -48.915  60.144 -57.825  1.00  0.00    -0.356 OA
HETATM   23  C   UNL     1     -49.052  61.557 -57.729  1.00  0.00     0.210 C 
ENDBRANCH  19  22
ENDBRANCH  15  16
ENDBRANCH  12  15
ENDBRANCH   1  11
BRANCH   4  24
HETATM   24  C   UNL     1     -41.269  57.093 -50.570  1.00  0.00     0.409 C 
HETATM   25  F   UNL     1     -40.170  57.881 -50.552  1.00  0.00    -0.169 F 
HETATM   26  F   UNL     1     -42.336  57.931 -50.703  1.00  0.00    -0.169 F 
HETATM   27  F   UNL     1     -41.403  56.514 -49.360  1.00  0.00    -0.169 F 
ENDBRANCH   4  24
BRANCH   6  28
HETATM   28  C   UNL     1     -41.388  53.171 -52.903  1.00  0.00    -0.035 A 
HETATM   29  C   UNL     1     -41.174  52.592 -54.169  1.00  0.00     0.009 A 
HETATM   30  C   UNL     1     -40.152  51.662 -54.373  1.00  0.00     0.001 A 
HETATM   31  C   UNL     1     -39.319  51.300 -53.319  1.00  0.00     0.000 A 
HETATM   32  C   UNL     1     -39.506  51.868 -52.062  1.00  0.00     0.001 A 
HETATM   33  C   UNL     1     -40.531  52.795 -51.856  1.00  0.00     0.009 A 
ENDBRANCH   6  28
TORSDOF 6
ENDMDL
MODEL 9
REMARK VINA RESULT:      -7.7      3.649      7.828
REMARK  6 active torsions:
REMARK  status: ('A' for Active; 'I' for Inactive)
REMARK    1  A    between atoms: O_2  and  C_3 
REMARK    2  A    between atoms: C_6  and  C_7 
REMARK    3  A    between atoms: C_7  and  N_8 
REMARK       I    between atoms: N_8  and  C_9 
REMARK    4  A    between atoms: C_9  and  C_10 
REMARK    5  A    between atoms: C_13  and  C_14 
REMARK    6  A    between atoms: C_19  and  C_20 
ROOT
HETATM    1  C   UNL     1     -43.376  58.206 -52.890  1.00  0.00     0.096 A 
HETATM    2  C   UNL     1     -43.109  58.627 -54.180  1.00  0.00     0.138 A 
HETATM    3  N   UNL     1     -44.250  59.269 -54.610  1.00  0.00    -0.240 N 
HETATM    4  C   UNL     1     -44.388  59.907 -55.907  1.00  0.00     0.221 C 
HETATM    5  C   UNL     1     -42.993  60.232 -56.473  1.00  0.00     0.066 C 
HETATM    6  C   UNL     1     -42.051  59.024 -56.370  1.00  0.00     0.118 C 
HETATM    7  N   UNL     1     -42.018  58.550 -54.987  1.00  0.00    -0.365 N 
HETATM    8  N   UNL     1     -45.258  59.223 -53.727  1.00  0.00    -0.181 NA
HETATM    9  C   UNL     1     -44.712  58.623 -52.668  1.00  0.00     0.160 A 
HETATM   10  H   UNL     1     -41.099  58.289 -54.637  1.00  0.00     0.161 HD
ENDROOT
BRANCH   1  11
HETATM   11  C   UNL     1     -42.533  57.517 -51.933  1.00  0.00     0.257 C 
HETATM   12  N   UNL     1     -42.329  56.181 -52.191  1.00  0.00    -0.352 N 
HETATM   13  H   UNL     1     -42.935  55.734 -52.865  1.00  0.00     0.163 HD
HETATM   14  O   UNL     1     -42.064  58.090 -50.956  1.00  0.00    -0.267 OA
BRANCH  12  15
HETATM   15  C   UNL     1     -41.493  55.358 -51.351  1.00  0.00     0.161 C 
BRANCH  15  16
HETATM   16  C   UNL     1     -40.960  54.150 -52.076  1.00  0.00    -0.040 A 
HETATM   17  C   UNL     1     -41.062  54.051 -53.470  1.00  0.00     0.011 A 
HETATM   18  C   UNL     1     -40.505  52.963 -54.154  1.00  0.00     0.037 A 
HETATM   19  C   UNL     1     -39.836  51.961 -53.452  1.00  0.00     0.068 A 
HETATM   20  C   UNL     1     -39.756  52.040 -52.061  1.00  0.00     0.037 A 
HETATM   21  C   UNL     1     -40.305  53.128 -51.376  1.00  0.00     0.011 A 
BRANCH  19  22
HETATM   22  O   UNL     1     -39.236  50.864 -54.005  1.00  0.00    -0.356 OA
HETATM   23  C   UNL     1     -40.106  49.848 -54.492  1.00  0.00     0.210 C 
ENDBRANCH  19  22
ENDBRANCH  15  16
ENDBRANCH  12  15
ENDBRANCH   1  11
BRANCH   4  24
HETATM   24  C   UNL     1     -45.205  61.181 -55.842  1.00  0.00     0.409 C 
HETATM   25  F   UNL     1     -44.952  61.904 -54.727  1.00  0.00    -0.169 F 
HETATM   26  F   UNL     1     -44.878  61.982 -56.896  1.00  0.00    -0.169 F 
HETATM   27  F   UNL     1     -46.535  60.980 -55.930  1.00  0.00    -0.169 F 
ENDBRANCH   4  24
BRANCH   6  28
HETATM   28  C   UNL     1     -42.395  57.925 -57.368  1.00  0.00    -0.035 A 
HETATM   29  C   UNL     1     -42.731  56.646 -56.885  1.00  0.00     0.009 A 
HETATM   30  C   UNL     1     -43.025  55.598 -57.762  1.00  0.00     0.001 A 
HETATM   31  C   UNL     1     -42.996  55.811 -59.136  1.00  0.00     0.000 A 
HETATM   32  C   UNL     1     -42.676  57.070 -59.635  1.00  0.00     0.001 A 
HETATM   33  C   UNL     1     -42.378  58.118 -58.759  1.00  0.00     0.009 A 
ENDBRANCH   6  28
TORSDOF 6
ENDMDL
MODEL 10
REMARK VINA RESULT:      -7.7      2.509      3.279
REMARK  6 active torsions:
REMARK  status: ('A' for Active; 'I' for Inactive)
REMARK    1  A    between atoms: O_2  and  C_3 
REMARK    2  A    between atoms: C_6  and  C_7 
REMARK    3  A    between atoms: C_7  and  N_8 
REMARK       I    between atoms: N_8  and  C_9 
REMARK    4  A    between atoms: C_9  and  C_10 
REMARK    5  A    between atoms: C_13  and  C_14 
REMARK    6  A    between atoms: C_19  and  C_20 
ROOT
HETATM    1  C   UNL     1     -42.447  56.848 -55.180  1.00  0.00     0.096 A 
HETATM    2  C   UNL     1     -42.657  56.680 -53.823  1.00  0.00     0.138 A 
HETATM    3  N   UNL     1     -42.167  57.820 -53.223  1.00  0.00    -0.240 N 
HETATM    4  C   UNL     1     -42.226  58.080 -51.795  1.00  0.00     0.221 C 
HETATM    5  C   UNL     1     -43.336  57.222 -51.160  1.00  0.00     0.066 C 
HETATM    6  C   UNL     1     -43.241  55.759 -51.613  1.00  0.00     0.118 C 
HETATM    7  N   UNL     1     -43.233  55.702 -53.075  1.00  0.00    -0.365 N 
HETATM    8  N   UNL     1     -41.587  58.672 -54.079  1.00  0.00    -0.181 NA
HETATM    9  C   UNL     1     -41.801  58.106 -55.269  1.00  0.00     0.160 A 
HETATM   10  H   UNL     1     -43.798  54.963 -53.486  1.00  0.00     0.161 HD
ENDROOT
BRANCH   1  11
HETATM   11  C   UNL     1     -42.797  55.994 -56.297  1.00  0.00     0.257 C 
HETATM   12  N   UNL     1     -42.812  56.615 -57.524  1.00  0.00    -0.352 N 
HETATM   13  H   UNL     1     -42.805  57.626 -57.540  1.00  0.00     0.163 HD
HETATM   14  O   UNL     1     -43.083  54.811 -56.141  1.00  0.00    -0.267 OA
BRANCH  12  15
HETATM   15  C   UNL     1     -43.114  55.900 -58.741  1.00  0.00     0.161 C 
BRANCH  15  16
HETATM   16  C   UNL     1     -44.412  56.346 -59.363  1.00  0.00    -0.040 A 
HETATM   17  C   UNL     1     -44.931  57.620 -59.098  1.00  0.00     0.011 A 
HETATM   18  C   UNL     1     -46.100  58.064 -59.729  1.00  0.00     0.037 A 
HETATM   19  C   UNL     1     -46.763  57.239 -60.637  1.00  0.00     0.068 A 
HETATM   20  C   UNL     1     -46.267  55.958 -60.883  1.00  0.00     0.037 A 
HETATM   21  C   UNL     1     -45.097  55.515 -60.260  1.00  0.00     0.011 A 
BRANCH  19  22
HETATM   22  O   UNL     1     -47.897  57.563 -61.328  1.00  0.00    -0.356 OA
HETATM   23  C   UNL     1     -48.333  56.622 -62.302  1.00  0.00     0.210 C 
ENDBRANCH  19  22
ENDBRANCH  15  16
ENDBRANCH  12  15
ENDBRANCH   1  11
BRANCH   4  24
HETATM   24  C   UNL     1     -42.488  59.540 -51.483  1.00  0.00     0.409 C 
HETATM   25  F   UNL     1     -41.406  60.320 -51.707  1.00  0.00    -0.169 F 
HETATM   26  F   UNL     1     -43.470  60.008 -52.304  1.00  0.00    -0.169 F 
HETATM   27  F   UNL     1     -42.922  59.758 -50.226  1.00  0.00    -0.169 F 
ENDBRANCH   4  24
BRANCH   6  28
HETATM   28  C   UNL     1     -42.066  55.022 -50.982  1.00  0.00    -0.035 A 
HETATM   29  C   UNL     1     -41.348  54.092 -51.758  1.00  0.00     0.009 A 
HETATM   30  C   UNL     1     -40.282  53.371 -51.215  1.00  0.00     0.001 A 
HETATM   31  C   UNL     1     -39.907  53.572 -49.891  1.00  0.00     0.000 A 
HETATM   32  C   UNL     1     -40.596  54.495 -49.109  1.00  0.00     0.001 A 
HETATM   33  C   UNL     1     -41.666  55.213 -49.650  1.00  0.00     0.009 A 
ENDBRANCH   6  28
TORSDOF 6
ENDMDL
