MODEL 1
REMARK VINA RESULT:      -9.0      0.000      0.000
REMARK  6 active torsions:
REMARK  status: ('A' for Active; 'I' for Inactive)
REMARK    1  A    between atoms: O_2  and  C_3 
REMARK    2  A    between atoms: C_5  and  C_6 
REMARK    3  A    between atoms: C_12  and  C_13 
REMARK       I    between atoms: C_13  and  N_14 
REMARK    4  A    between atoms: N_14  and  C_15 
REMARK    5  A    between atoms: C_15  and  C_16 
REMARK    6  A    between atoms: C_23  and  C_24 
ROOT
HETATM    1  C   UNL     1     -40.950  54.320 -52.968  1.00  0.00     0.118 C 
HETATM    2  N   UNL     1     -41.511  54.773 -54.243  1.00  0.00    -0.365 N 
HETATM    3  C   UNL     1     -42.375  55.822 -54.292  1.00  0.00     0.138 A 
HETATM    4  N   UNL     1     -42.818  56.419 -53.133  1.00  0.00    -0.240 N 
HETATM    5  N   UNL     1     -43.770  57.343 -53.321  1.00  0.00    -0.181 NA
HETATM    6  C   UNL     1     -43.879  57.396 -54.651  1.00  0.00     0.160 A 
HETATM    7  C   UNL     1     -43.023  56.483 -55.320  1.00  0.00     0.096 A 
HETATM    8  C   UNL     1     -42.443  55.998 -51.796  1.00  0.00     0.221 C 
HETATM    9  C   UNL     1     -41.965  54.537 -51.832  1.00  0.00     0.066 C 
HETATM   10  H   UNL     1     -41.502  54.070 -54.985  1.00  0.00     0.161 HD
ENDROOT
BRANCH   7  11
HETATM   11  C   UNL     1     -42.919  56.332 -56.759  1.00  0.00     0.257 C 
HETATM   12  N   UNL     1     -43.018  57.496 -57.483  1.00  0.00    -0.352 N 
HETATM   13  H   UNL     1     -43.310  58.333 -56.995  1.00  0.00     0.163 HD
HETATM   14  O   UNL     1     -42.787  55.229 -57.279  1.00  0.00    -0.267 OA
BRANCH  12  15
HETATM   15  C   UNL     1     -43.051  57.491 -58.927  1.00  0.00     0.161 C 
BRANCH  15  16
HETATM   16  C   UNL     1     -44.389  57.068 -59.481  1.00  0.00    -0.041 A 
HETATM   17  C   UNL     1     -44.496  56.081 -60.473  1.00  0.00     0.009 A 
HETATM   18  C   UNL     1     -45.748  55.649 -60.915  1.00  0.00     0.001 A 
HETATM   19  C   UNL     1     -46.908  56.184 -60.360  1.00  0.00     0.000 A 
HETATM   20  C   UNL     1     -46.818  57.151 -59.362  1.00  0.00     0.001 A 
HETATM   21  C   UNL     1     -45.567  57.589 -58.923  1.00  0.00     0.009 A 
ENDBRANCH  15  16
ENDBRANCH  12  15
ENDBRANCH   7  11
BRANCH   1  22
HETATM   22  C   UNL     1     -40.472  52.887 -53.104  1.00  0.00    -0.033 A 
HETATM   23  C   UNL     1     -40.110  52.107 -51.993  1.00  0.00     0.046 A 
HETATM   24  C   UNL     1     -39.672  50.786 -52.143  1.00  0.00     0.068 A 
HETATM   25  C   UNL     1     -39.613  50.223 -53.416  1.00  0.00     0.037 A 
HETATM   26  C   UNL     1     -39.992  50.975 -54.529  1.00  0.00     0.003 A 
HETATM   27  C   UNL     1     -40.421  52.294 -54.375  1.00  0.00     0.009 A 
BRANCH  24  28
HETATM   28  O   UNL     1     -39.335  50.162 -50.972  1.00  0.00    -0.356 OA
HETATM   29  C   UNL     1     -40.225  50.333 -49.875  1.00  0.00     0.210 C 
ENDBRANCH  24  28
ENDBRANCH   1  22
BRANCH   8  30
HETATM   30  C   UNL     1     -41.409  56.945 -51.231  1.00  0.00     0.409 C 
HETATM   31  F   UNL     1     -40.550  56.348 -50.377  1.00  0.00    -0.169 F 
HETATM   32  F   UNL     1     -40.678  57.557 -52.187  1.00  0.00    -0.169 F 
HETATM   33  F   UNL     1     -42.026  57.933 -50.529  1.00  0.00    -0.169 F 
ENDBRANCH   8  30
TORSDOF 6
ENDMDL
MODEL 2
REMARK VINA RESULT:      -8.9      1.011      1.872
REMARK  6 active torsions:
REMARK  status: ('A' for Active; 'I' for Inactive)
REMARK    1  A    between atoms: O_2  and  C_3 
REMARK    2  A    between atoms: C_5  and  C_6 
REMARK    3  A    between atoms: C_12  and  C_13 
REMARK       I    between atoms: C_13  and  N_14 
REMARK    4  A    between atoms: N_14  and  C_15 
REMARK    5  A    between atoms: C_15  and  C_16 
REMARK    6  A    between atoms: C_23  and  C_24 
ROOT
HETATM    1  C   UNL     1     -41.181  55.095 -52.138  1.00  0.00     0.118 C 
HETATM    2  N   UNL     1     -41.665  55.256 -53.511  1.00  0.00    -0.365 N 
HETATM    3  C   UNL     1     -42.537  56.250 -53.832  1.00  0.00     0.138 A 
HETATM    4  N   UNL     1     -43.059  57.065 -52.855  1.00  0.00    -0.240 N 
HETATM    5  N   UNL     1     -44.008  57.906 -53.291  1.00  0.00    -0.181 NA
HETATM    6  C   UNL     1     -44.032  57.676 -54.606  1.00  0.00     0.160 A 
HETATM    7  C   UNL     1     -43.124  56.665 -55.014  1.00  0.00     0.096 A 
HETATM    8  C   UNL     1     -42.766  56.945 -51.439  1.00  0.00     0.221 C 
HETATM    9  C   UNL     1     -42.270  55.521 -51.136  1.00  0.00     0.066 C 
HETATM   10  H   UNL     1     -41.601  54.414 -54.085  1.00  0.00     0.161 HD
ENDROOT
BRANCH   7  11
HETATM   11  C   UNL     1     -42.926  56.217 -56.379  1.00  0.00     0.257 C 
HETATM   12  N   UNL     1     -42.975  57.202 -57.336  1.00  0.00    -0.352 N 
HETATM   13  H   UNL     1     -43.296  58.120 -57.054  1.00  0.00     0.163 HD
HETATM   14  O   UNL     1     -42.764  55.031 -56.647  1.00  0.00    -0.267 OA
BRANCH  12  15
HETATM   15  C   UNL     1     -42.913  56.895 -58.746  1.00  0.00     0.161 C 
BRANCH  15  16
HETATM   16  C   UNL     1     -44.266  56.590 -59.339  1.00  0.00    -0.041 A 
HETATM   17  C   UNL     1     -45.411  57.315 -58.974  1.00  0.00     0.009 A 
HETATM   18  C   UNL     1     -46.638  57.069 -59.593  1.00  0.00     0.001 A 
HETATM   19  C   UNL     1     -46.733  56.107 -60.596  1.00  0.00     0.000 A 
HETATM   20  C   UNL     1     -45.603  55.392 -60.982  1.00  0.00     0.001 A 
HETATM   21  C   UNL     1     -44.376  55.633 -60.360  1.00  0.00     0.009 A 
ENDBRANCH  15  16
ENDBRANCH  12  15
ENDBRANCH   7  11
BRANCH   1  22
HETATM   22  C   UNL     1     -40.680  53.678 -51.939  1.00  0.00    -0.033 A 
HETATM   23  C   UNL     1     -40.151  52.913 -52.992  1.00  0.00     0.046 A 
HETATM   24  C   UNL     1     -39.695  51.606 -52.784  1.00  0.00     0.068 A 
HETATM   25  C   UNL     1     -39.742  51.058 -51.504  1.00  0.00     0.037 A 
HETATM   26  C   UNL     1     -40.241  51.813 -50.441  1.00  0.00     0.003 A 
HETATM   27  C   UNL     1     -40.702  53.112 -50.655  1.00  0.00     0.009 A 
BRANCH  24  28
HETATM   28  O   UNL     1     -39.229  50.981 -53.909  1.00  0.00    -0.356 OA
HETATM   29  C   UNL     1     -39.987  49.877 -54.391  1.00  0.00     0.210 C 
ENDBRANCH  24  28
ENDBRANCH   1  22
BRANCH   8  30
HETATM   30  C   UNL     1     -41.781  58.014 -51.025  1.00  0.00     0.409 C 
HETATM   31  F   UNL     1     -41.033  57.665 -49.955  1.00  0.00    -0.169 F 
HETATM   32  F   UNL     1     -40.937  58.364 -52.018  1.00  0.00    -0.169 F 
HETATM   33  F   UNL     1     -42.451  59.145 -50.675  1.00  0.00    -0.169 F 
ENDBRANCH   8  30
TORSDOF 6
ENDMDL
MODEL 3
REMARK VINA RESULT:      -8.4      2.937      8.175
REMARK  6 active torsions:
REMARK  status: ('A' for Active; 'I' for Inactive)
REMARK    1  A    between atoms: O_2  and  C_3 
REMARK    2  A    between atoms: C_5  and  C_6 
REMARK    3  A    between atoms: C_12  and  C_13 
REMARK       I    between atoms: C_13  and  N_14 
REMARK    4  A    between atoms: N_14  and  C_15 
REMARK    5  A    between atoms: C_15  and  C_16 
REMARK    6  A    between atoms: C_23  and  C_24 
ROOT
HETATM    1  C   UNL     1     -43.987  57.899 -57.485  1.00  0.00     0.118 C 
HETATM    2  N   UNL     1     -43.585  57.218 -56.252  1.00  0.00    -0.365 N 
HETATM    3  C   UNL     1     -42.780  57.835 -55.346  1.00  0.00     0.138 A 
HETATM    4  N   UNL     1     -42.247  59.075 -55.612  1.00  0.00    -0.240 N 
HETATM    5  N   UNL     1     -41.364  59.502 -54.698  1.00  0.00    -0.181 NA
HETATM    6  C   UNL     1     -41.397  58.537 -53.775  1.00  0.00     0.160 A 
HETATM    7  C   UNL     1     -42.276  57.474 -54.109  1.00  0.00     0.096 A 
HETATM    8  C   UNL     1     -42.459  59.815 -56.843  1.00  0.00     0.221 C 
HETATM    9  C   UNL     1     -42.870  58.843 -57.962  1.00  0.00     0.066 C 
HETATM   10  H   UNL     1     -43.638  56.199 -56.292  1.00  0.00     0.161 HD
ENDROOT
BRANCH   7  11
HETATM   11  C   UNL     1     -42.523  56.302 -53.289  1.00  0.00     0.257 C 
HETATM   12  N   UNL     1     -41.467  55.896 -52.509  1.00  0.00    -0.352 N 
HETATM   13  H   UNL     1     -40.565  56.325 -52.672  1.00  0.00     0.163 HD
HETATM   14  O   UNL     1     -43.595  55.708 -53.329  1.00  0.00    -0.267 OA
BRANCH  12  15
HETATM   15  C   UNL     1     -41.524  54.680 -51.730  1.00  0.00     0.161 C 
BRANCH  15  16
HETATM   16  C   UNL     1     -40.771  53.539 -52.370  1.00  0.00    -0.041 A 
HETATM   17  C   UNL     1     -40.082  52.589 -51.600  1.00  0.00     0.009 A 
HETATM   18  C   UNL     1     -39.459  51.497 -52.208  1.00  0.00     0.001 A 
HETATM   19  C   UNL     1     -39.531  51.331 -53.589  1.00  0.00     0.000 A 
HETATM   20  C   UNL     1     -40.226  52.256 -54.364  1.00  0.00     0.001 A 
HETATM   21  C   UNL     1     -40.845  53.352 -53.759  1.00  0.00     0.009 A 
ENDBRANCH  15  16
ENDBRANCH  12  15
ENDBRANCH   7  11
BRANCH   1  22
HETATM   22  C   UNL     1     -44.409  56.871 -58.518  1.00  0.00    -0.033 A 
HETATM   23  C   UNL     1     -45.587  57.003 -59.271  1.00  0.00     0.046 A 
HETATM   24  C   UNL     1     -45.957  56.041 -60.219  1.00  0.00     0.068 A 
HETATM   25  C   UNL     1     -45.129  54.941 -60.438  1.00  0.00     0.037 A 
HETATM   26  C   UNL     1     -43.942  54.806 -59.716  1.00  0.00     0.003 A 
HETATM   27  C   UNL     1     -43.583  55.764 -58.767  1.00  0.00     0.009 A 
BRANCH  24  28
HETATM   28  O   UNL     1     -47.140  56.296 -60.857  1.00  0.00    -0.356 OA
HETATM   29  C   UNL     1     -47.486  57.663 -61.045  1.00  0.00     0.210 C 
ENDBRANCH  24  28
ENDBRANCH   1  22
BRANCH   8  30
HETATM   30  C   UNL     1     -43.471  60.914 -56.613  1.00  0.00     0.409 C 
HETATM   31  F   UNL     1     -44.228  61.177 -57.700  1.00  0.00    -0.169 F 
HETATM   32  F   UNL     1     -44.307  60.653 -55.585  1.00  0.00    -0.169 F 
HETATM   33  F   UNL     1     -42.830  62.071 -56.301  1.00  0.00    -0.169 F 
ENDBRANCH   8  30
TORSDOF 6
ENDMDL
MODEL 4
REMARK VINA RESULT:      -8.3      1.464      2.292
REMARK  6 active torsions:
REMARK  status: ('A' for Active; 'I' for Inactive)
REMARK    1  A    between atoms: O_2  and  C_3 
REMARK    2  A    between atoms: C_5  and  C_6 
REMARK    3  A    between atoms: C_12  and  C_13 
REMARK       I    between atoms: C_13  and  N_14 
REMARK    4  A    between atoms: N_14  and  C_15 
REMARK    5  A    between atoms: C_15  and  C_16 
REMARK    6  A    between atoms: C_23  and  C_24 
ROOT
HETATM    1  C   UNL     1     -41.379  55.229 -52.927  1.00  0.00     0.118 C 
HETATM    2  N   UNL     1     -41.991  55.555 -54.217  1.00  0.00    -0.365 N 
HETATM    3  C   UNL     1     -42.959  56.506 -54.309  1.00  0.00     0.138 A 
HETATM    4  N   UNL     1     -43.454  57.114 -53.177  1.00  0.00    -0.240 N 
HETATM    5  N   UNL     1     -44.497  57.925 -53.401  1.00  0.00    -0.181 NA
HETATM    6  C   UNL     1     -44.619  57.899 -54.731  1.00  0.00     0.160 A 
HETATM    7  C   UNL     1     -43.678  57.045 -55.362  1.00  0.00     0.096 A 
HETATM    8  C   UNL     1     -43.029  56.804 -51.825  1.00  0.00     0.221 C 
HETATM    9  C   UNL     1     -42.404  55.399 -51.792  1.00  0.00     0.066 C 
HETATM   10  H   UNL     1     -41.916  54.820 -54.922  1.00  0.00     0.161 HD
ENDROOT
BRANCH   7  11
HETATM   11  C   UNL     1     -43.568  56.831 -56.793  1.00  0.00     0.257 C 
HETATM   12  N   UNL     1     -44.544  57.426 -57.554  1.00  0.00    -0.352 N 
HETATM   13  H   UNL     1     -45.342  57.824 -57.075  1.00  0.00     0.163 HD
HETATM   14  O   UNL     1     -42.678  56.134 -57.269  1.00  0.00    -0.267 OA
BRANCH  12  15
HETATM   15  C   UNL     1     -44.635  57.206 -58.979  1.00  0.00     0.161 C 
BRANCH  15  16
HETATM   16  C   UNL     1     -43.959  58.289 -59.783  1.00  0.00    -0.041 A 
HETATM   17  C   UNL     1     -44.582  59.523 -60.026  1.00  0.00     0.009 A 
HETATM   18  C   UNL     1     -43.908  60.540 -60.704  1.00  0.00     0.001 A 
HETATM   19  C   UNL     1     -42.598  60.344 -61.133  1.00  0.00     0.000 A 
HETATM   20  C   UNL     1     -41.959  59.132 -60.884  1.00  0.00     0.001 A 
HETATM   21  C   UNL     1     -42.634  58.111 -60.211  1.00  0.00     0.009 A 
ENDBRANCH  15  16
ENDBRANCH  12  15
ENDBRANCH   7  11
BRANCH   1  22
HETATM   22  C   UNL     1     -40.757  53.847 -52.996  1.00  0.00    -0.033 A 
HETATM   23  C   UNL     1     -40.525  53.070 -51.849  1.00  0.00     0.046 A 
HETATM   24  C   UNL     1     -39.950  51.796 -51.936  1.00  0.00     0.068 A 
HETATM   25  C   UNL     1     -39.621  51.278 -53.187  1.00  0.00     0.037 A 
HETATM   26  C   UNL     1     -39.867  52.026 -54.340  1.00  0.00     0.003 A 
HETATM   27  C   UNL     1     -40.434  53.297 -54.246  1.00  0.00     0.009 A 
BRANCH  24  28
HETATM   28  O   UNL     1     -39.766  51.171 -50.733  1.00  0.00    -0.356 OA
HETATM   29  C   UNL     1     -39.562  49.764 -50.765  1.00  0.00     0.210 C 
ENDBRANCH  24  28
ENDBRANCH   1  22
BRANCH   8  30
HETATM   30  C   UNL     1     -42.094  57.880 -51.321  1.00  0.00     0.409 C 
HETATM   31  F   UNL     1     -42.740  58.974 -50.862  1.00  0.00    -0.169 F 
HETATM   32  F   UNL     1     -41.275  57.446 -50.339  1.00  0.00    -0.169 F 
HETATM   33  F   UNL     1     -41.291  58.302 -52.333  1.00  0.00    -0.169 F 
ENDBRANCH   8  30
TORSDOF 6
ENDMDL
MODEL 5
REMARK VINA RESULT:      -8.3      1.772      2.491
REMARK  6 active torsions:
REMARK  status: ('A' for Active; 'I' for Inactive)
REMARK    1  A    between atoms: O_2  and  C_3 
REMARK    2  A    between atoms: C_5  and  C_6 
REMARK    3  A    between atoms: C_12  and  C_13 
REMARK       I    between atoms: C_13  and  N_14 
REMARK    4  A    between atoms: N_14  and  C_15 
REMARK    5  A    between atoms: C_15  and  C_16 
REMARK    6  A    between atoms: C_23  and  C_24 
ROOT
HETATM    1  C   UNL     1     -41.512  56.627 -53.116  1.00  0.00     0.118 C 
HETATM    2  N   UNL     1     -42.552  57.014 -54.071  1.00  0.00    -0.365 N 
HETATM    3  C   UNL     1     -43.454  57.985 -53.764  1.00  0.00     0.138 A 
HETATM    4  N   UNL     1     -43.470  58.556 -52.512  1.00  0.00    -0.240 N 
HETATM    5  N   UNL     1     -44.495  59.394 -52.304  1.00  0.00    -0.181 NA
HETATM    6  C   UNL     1     -45.107  59.422 -53.490  1.00  0.00     0.160 A 
HETATM    7  C   UNL     1     -44.497  58.577 -54.454  1.00  0.00     0.096 A 
HETATM    8  C   UNL     1     -42.579  58.186 -51.428  1.00  0.00     0.221 C 
HETATM    9  C   UNL     1     -42.031  56.770 -51.675  1.00  0.00     0.066 C 
HETATM   10  H   UNL     1     -42.769  56.306 -54.775  1.00  0.00     0.161 HD
ENDROOT
BRANCH   7  11
HETATM   11  C   UNL     1     -44.938  58.418 -55.827  1.00  0.00     0.257 C 
HETATM   12  N   UNL     1     -43.999  58.711 -56.786  1.00  0.00    -0.352 N 
HETATM   13  H   UNL     1     -43.142  59.160 -56.487  1.00  0.00     0.163 HD
HETATM   14  O   UNL     1     -46.086  58.077 -56.095  1.00  0.00    -0.267 OA
BRANCH  12  15
HETATM   15  C   UNL     1     -44.326  58.712 -58.193  1.00  0.00     0.161 C 
BRANCH  15  16
HETATM   16  C   UNL     1     -44.495  57.323 -58.756  1.00  0.00    -0.041 A 
HETATM   17  C   UNL     1     -45.611  56.974 -59.534  1.00  0.00     0.009 A 
HETATM   18  C   UNL     1     -45.709  55.707 -60.111  1.00  0.00     0.001 A 
HETATM   19  C   UNL     1     -44.686  54.778 -59.934  1.00  0.00     0.000 A 
HETATM   20  C   UNL     1     -43.564  55.115 -59.181  1.00  0.00     0.001 A 
HETATM   21  C   UNL     1     -43.467  56.380 -58.598  1.00  0.00     0.009 A 
ENDBRANCH  15  16
ENDBRANCH  12  15
ENDBRANCH   7  11
BRANCH   1  22
HETATM   22  C   UNL     1     -41.004  55.238 -53.454  1.00  0.00    -0.033 A 
HETATM   23  C   UNL     1     -40.814  54.248 -52.475  1.00  0.00     0.046 A 
HETATM   24  C   UNL     1     -40.344  52.973 -52.811  1.00  0.00     0.068 A 
HETATM   25  C   UNL     1     -40.081  52.669 -54.145  1.00  0.00     0.037 A 
HETATM   26  C   UNL     1     -40.288  53.632 -55.134  1.00  0.00     0.003 A 
HETATM   27  C   UNL     1     -40.749  54.904 -54.793  1.00  0.00     0.009 A 
BRANCH  24  28
HETATM   28  O   UNL     1     -40.190  52.126 -51.747  1.00  0.00    -0.356 OA
HETATM   29  C   UNL     1     -39.439  50.939 -51.975  1.00  0.00     0.210 C 
ENDBRANCH  24  28
ENDBRANCH   1  22
BRANCH   8  30
HETATM   30  C   UNL     1     -41.491  59.224 -51.280  1.00  0.00     0.409 C 
HETATM   31  F   UNL     1     -40.307  58.703 -50.890  1.00  0.00    -0.169 F 
HETATM   32  F   UNL     1     -41.276  59.927 -52.412  1.00  0.00    -0.169 F 
HETATM   33  F   UNL     1     -41.845  60.129 -50.329  1.00  0.00    -0.169 F 
ENDBRANCH   8  30
TORSDOF 6
ENDMDL
MODEL 6
REMARK VINA RESULT:      -8.2      2.416      7.504
REMARK  6 active torsions:
REMARK  status: ('A' for Active; 'I' for Inactive)
REMARK    1  A    between atoms: O_2  and  C_3 
REMARK    2  A    between atoms: C_5  and  C_6 
REMARK    3  A    between atoms: C_12  and  C_13 
REMARK       I    between atoms: C_13  and  N_14 
REMARK    4  A    between atoms: N_14  and  C_15 
REMARK    5  A    between atoms: C_15  and  C_16 
REMARK    6  A    between atoms: C_23  and  C_24 
ROOT
HETATM    1  C   UNL     1     -42.839  57.748 -54.241  1.00  0.00     0.118 C 
HETATM    2  N   UNL     1     -42.385  56.779 -53.241  1.00  0.00    -0.365 N 
HETATM    3  C   UNL     1     -41.773  57.192 -52.098  1.00  0.00     0.138 A 
HETATM    4  N   UNL     1     -41.480  58.522 -51.901  1.00  0.00    -0.240 N 
HETATM    5  N   UNL     1     -40.755  58.767 -50.801  1.00  0.00    -0.181 NA
HETATM    6  C   UNL     1     -40.652  57.563 -50.234  1.00  0.00     0.160 A 
HETATM    7  C   UNL     1     -41.282  56.536 -50.984  1.00  0.00     0.096 A 
HETATM    8  C   UNL     1     -41.761  59.576 -52.858  1.00  0.00     0.221 C 
HETATM    9  C   UNL     1     -41.904  58.969 -54.264  1.00  0.00     0.066 C 
HETATM   10  H   UNL     1     -42.233  55.835 -53.601  1.00  0.00     0.161 HD
ENDROOT
BRANCH   7  11
HETATM   11  C   UNL     1     -41.341  55.137 -50.603  1.00  0.00     0.257 C 
HETATM   12  N   UNL     1     -40.184  54.422 -50.801  1.00  0.00    -0.352 N 
HETATM   13  H   UNL     1     -39.442  54.861 -51.332  1.00  0.00     0.163 HD
HETATM   14  O   UNL     1     -42.372  54.634 -50.169  1.00  0.00    -0.267 OA
BRANCH  12  15
HETATM   15  C   UNL     1     -40.126  52.996 -50.580  1.00  0.00     0.161 C 
BRANCH  15  16
HETATM   16  C   UNL     1     -40.120  52.204 -51.864  1.00  0.00    -0.041 A 
HETATM   17  C   UNL     1     -40.483  52.785 -53.090  1.00  0.00     0.009 A 
HETATM   18  C   UNL     1     -40.395  52.057 -54.277  1.00  0.00     0.001 A 
HETATM   19  C   UNL     1     -39.927  50.745 -54.259  1.00  0.00     0.000 A 
HETATM   20  C   UNL     1     -39.547  50.160 -53.054  1.00  0.00     0.001 A 
HETATM   21  C   UNL     1     -39.640  50.885 -51.864  1.00  0.00     0.009 A 
ENDBRANCH  15  16
ENDBRANCH  12  15
ENDBRANCH   7  11
BRANCH   1  22
HETATM   22  C   UNL     1     -42.988  57.059 -55.584  1.00  0.00    -0.033 A 
HETATM   23  C   UNL     1     -43.372  57.750 -56.745  1.00  0.00     0.046 A 
HETATM   24  C   UNL     1     -43.503  57.093 -57.975  1.00  0.00     0.068 A 
HETATM   25  C   UNL     1     -43.224  55.730 -58.056  1.00  0.00     0.037 A 
HETATM   26  C   UNL     1     -42.817  55.032 -56.918  1.00  0.00     0.003 A 
HETATM   27  C   UNL     1     -42.696  55.690 -55.694  1.00  0.00     0.009 A 
BRANCH  24  28
HETATM   28  O   UNL     1     -43.905  57.894 -59.008  1.00  0.00    -0.356 OA
HETATM   29  C   UNL     1     -43.392  57.585 -60.298  1.00  0.00     0.210 C 
ENDBRANCH  24  28
ENDBRANCH   1  22
BRANCH   8  30
HETATM   30  C   UNL     1     -42.982  60.353 -52.422  1.00  0.00     0.409 C 
HETATM   31  F   UNL     1     -43.884  59.599 -51.757  1.00  0.00    -0.169 F 
HETATM   32  F   UNL     1     -42.680  61.413 -51.643  1.00  0.00    -0.169 F 
HETATM   33  F   UNL     1     -43.624  60.849 -53.513  1.00  0.00    -0.169 F 
ENDBRANCH   8  30
TORSDOF 6
ENDMDL
MODEL 7
REMARK VINA RESULT:      -8.1      3.944      6.580
REMARK  6 active torsions:
REMARK  status: ('A' for Active; 'I' for Inactive)
REMARK    1  A    between atoms: O_2  and  C_3 
REMARK    2  A    between atoms: C_5  and  C_6 
REMARK    3  A    between atoms: C_12  and  C_13 
REMARK       I    between atoms: C_13  and  N_14 
REMARK    4  A    between atoms: N_14  and  C_15 
REMARK    5  A    between atoms: C_15  and  C_16 
REMARK    6  A    between atoms: C_23  and  C_24 
ROOT
HETATM    1  C   UNL     1     -41.504  54.269 -53.578  1.00  0.00     0.118 C 
HETATM    2  N   UNL     1     -41.470  55.511 -52.803  1.00  0.00    -0.365 N 
HETATM    3  C   UNL     1     -41.631  56.717 -53.412  1.00  0.00     0.138 A 
HETATM    4  N   UNL     1     -41.732  56.802 -54.781  1.00  0.00    -0.240 N 
HETATM    5  N   UNL     1     -41.746  58.057 -55.254  1.00  0.00    -0.181 NA
HETATM    6  C   UNL     1     -41.737  58.797 -54.142  1.00  0.00     0.160 A 
HETATM    7  C   UNL     1     -41.684  58.022 -52.954  1.00  0.00     0.096 A 
HETATM    8  C   UNL     1     -41.659  55.668 -55.684  1.00  0.00     0.221 C 
HETATM    9  C   UNL     1     -40.935  54.504 -54.988  1.00  0.00     0.066 C 
HETATM   10  H   UNL     1     -40.984  55.441 -51.908  1.00  0.00     0.161 HD
ENDROOT
BRANCH   7  11
HETATM   11  C   UNL     1     -41.676  58.555 -51.605  1.00  0.00     0.257 C 
HETATM   12  N   UNL     1     -42.163  59.833 -51.474  1.00  0.00    -0.352 N 
HETATM   13  H   UNL     1     -42.337  60.363 -52.319  1.00  0.00     0.163 HD
HETATM   14  O   UNL     1     -41.230  57.909 -50.664  1.00  0.00    -0.267 OA
BRANCH  12  15
HETATM   15  C   UNL     1     -42.111  60.540 -50.215  1.00  0.00     0.161 C 
BRANCH  15  16
HETATM   16  C   UNL     1     -43.272  61.485 -50.025  1.00  0.00    -0.041 A 
HETATM   17  C   UNL     1     -44.517  61.036 -49.558  1.00  0.00     0.009 A 
HETATM   18  C   UNL     1     -45.554  61.938 -49.314  1.00  0.00     0.001 A 
HETATM   19  C   UNL     1     -45.355  63.302 -49.515  1.00  0.00     0.000 A 
HETATM   20  C   UNL     1     -44.119  63.765 -49.960  1.00  0.00     0.001 A 
HETATM   21  C   UNL     1     -43.082  62.863 -50.211  1.00  0.00     0.009 A 
ENDBRANCH  15  16
ENDBRANCH  12  15
ENDBRANCH   7  11
BRANCH   1  22
HETATM   22  C   UNL     1     -40.801  53.169 -52.804  1.00  0.00    -0.033 A 
HETATM   23  C   UNL     1     -40.322  52.003 -53.424  1.00  0.00     0.046 A 
HETATM   24  C   UNL     1     -39.677  51.001 -52.689  1.00  0.00     0.068 A 
HETATM   25  C   UNL     1     -39.484  51.171 -51.320  1.00  0.00     0.037 A 
HETATM   26  C   UNL     1     -39.931  52.335 -50.692  1.00  0.00     0.003 A 
HETATM   27  C   UNL     1     -40.581  53.327 -51.427  1.00  0.00     0.009 A 
BRANCH  24  28
HETATM   28  O   UNL     1     -39.287  49.916 -53.427  1.00  0.00    -0.356 OA
HETATM   29  C   UNL     1     -39.859  49.783 -54.723  1.00  0.00     0.210 C 
ENDBRANCH  24  28
ENDBRANCH   1  22
BRANCH   8  30
HETATM   30  C   UNL     1     -43.046  55.302 -56.161  1.00  0.00     0.409 C 
HETATM   31  F   UNL     1     -43.342  55.808 -57.377  1.00  0.00    -0.169 F 
HETATM   32  F   UNL     1     -43.250  53.968 -56.212  1.00  0.00    -0.169 F 
HETATM   33  F   UNL     1     -43.974  55.799 -55.300  1.00  0.00    -0.169 F 
ENDBRANCH   8  30
TORSDOF 6
ENDMDL
MODEL 8
REMARK VINA RESULT:      -8.0      4.079      6.499
REMARK  6 active torsions:
REMARK  status: ('A' for Active; 'I' for Inactive)
REMARK    1  A    between atoms: O_2  and  C_3 
REMARK    2  A    between atoms: C_5  and  C_6 
REMARK    3  A    between atoms: C_12  and  C_13 
REMARK       I    between atoms: C_13  and  N_14 
REMARK    4  A    between atoms: N_14  and  C_15 
REMARK    5  A    between atoms: C_15  and  C_16 
REMARK    6  A    between atoms: C_23  and  C_24 
ROOT
HETATM    1  C   UNL     1     -41.617  54.709 -53.530  1.00  0.00     0.118 C 
HETATM    2  N   UNL     1     -41.615  55.943 -52.741  1.00  0.00    -0.365 N 
HETATM    3  C   UNL     1     -41.765  57.154 -53.340  1.00  0.00     0.138 A 
HETATM    4  N   UNL     1     -41.823  57.255 -54.712  1.00  0.00    -0.240 N 
HETATM    5  N   UNL     1     -41.831  58.515 -55.170  1.00  0.00    -0.181 NA
HETATM    6  C   UNL     1     -41.862  59.242 -54.050  1.00  0.00     0.160 A 
HETATM    7  C   UNL     1     -41.841  58.453 -52.870  1.00  0.00     0.096 A 
HETATM    8  C   UNL     1     -41.715  56.132 -55.624  1.00  0.00     0.221 C 
HETATM    9  C   UNL     1     -41.005  54.964 -54.919  1.00  0.00     0.066 C 
HETATM   10  H   UNL     1     -41.157  55.865 -51.831  1.00  0.00     0.161 HD
ENDROOT
BRANCH   7  11
HETATM   11  C   UNL     1     -41.880  58.972 -51.516  1.00  0.00     0.257 C 
HETATM   12  N   UNL     1     -42.741  60.022 -51.311  1.00  0.00    -0.352 N 
HETATM   13  H   UNL     1     -43.158  60.458 -52.123  1.00  0.00     0.163 HD
HETATM   14  O   UNL     1     -41.159  58.514 -50.635  1.00  0.00    -0.267 OA
BRANCH  12  15
HETATM   15  C   UNL     1     -42.803  60.717 -50.046  1.00  0.00     0.161 C 
BRANCH  15  16
HETATM   16  C   UNL     1     -44.128  61.402 -49.817  1.00  0.00    -0.041 A 
HETATM   17  C   UNL     1     -44.996  61.699 -50.880  1.00  0.00     0.009 A 
HETATM   18  C   UNL     1     -46.251  62.260 -50.638  1.00  0.00     0.001 A 
HETATM   19  C   UNL     1     -46.662  62.516 -49.332  1.00  0.00     0.000 A 
HETATM   20  C   UNL     1     -45.820  62.209 -48.266  1.00  0.00     0.001 A 
HETATM   21  C   UNL     1     -44.562  61.653 -48.506  1.00  0.00     0.009 A 
ENDBRANCH  15  16
ENDBRANCH  12  15
ENDBRANCH   7  11
BRANCH   1  22
HETATM   22  C   UNL     1     -40.932  53.605 -52.747  1.00  0.00    -0.033 A 
HETATM   23  C   UNL     1     -40.959  53.551 -51.344  1.00  0.00     0.046 A 
HETATM   24  C   UNL     1     -40.319  52.522 -50.643  1.00  0.00     0.068 A 
HETATM   25  C   UNL     1     -39.661  51.517 -51.349  1.00  0.00     0.037 A 
HETATM   26  C   UNL     1     -39.645  51.541 -52.745  1.00  0.00     0.003 A 
HETATM   27  C   UNL     1     -40.277  52.573 -53.438  1.00  0.00     0.009 A 
BRANCH  24  28
HETATM   28  O   UNL     1     -40.415  52.617 -49.281  1.00  0.00    -0.356 OA
HETATM   29  C   UNL     1     -40.524  53.926 -48.735  1.00  0.00     0.210 C 
ENDBRANCH  24  28
ENDBRANCH   1  22
BRANCH   8  30
HETATM   30  C   UNL     1     -43.084  55.762 -56.149  1.00  0.00     0.409 C 
HETATM   31  F   UNL     1     -43.216  54.443 -56.408  1.00  0.00    -0.169 F 
HETATM   32  F   UNL     1     -44.081  56.118 -55.312  1.00  0.00    -0.169 F 
HETATM   33  F   UNL     1     -43.317  56.411 -57.321  1.00  0.00    -0.169 F 
ENDBRANCH   8  30
TORSDOF 6
ENDMDL
MODEL 9
REMARK VINA RESULT:      -7.8      1.906      3.011
REMARK  6 active torsions:
REMARK  status: ('A' for Active; 'I' for Inactive)
REMARK    1  A    between atoms: O_2  and  C_3 
REMARK    2  A    between atoms: C_5  and  C_6 
REMARK    3  A    between atoms: C_12  and  C_13 
REMARK       I    between atoms: C_13  and  N_14 
REMARK    4  A    between atoms: N_14  and  C_15 
REMARK    5  A    between atoms: C_15  and  C_16 
REMARK    6  A    between atoms: C_23  and  C_24 
ROOT
HETATM    1  C   UNL     1     -40.994  56.121 -51.951  1.00  0.00     0.118 C 
HETATM    2  N   UNL     1     -42.119  56.385 -52.851  1.00  0.00    -0.365 N 
HETATM    3  C   UNL     1     -42.862  57.517 -52.725  1.00  0.00     0.138 A 
HETATM    4  N   UNL     1     -42.634  58.392 -51.687  1.00  0.00    -0.240 N 
HETATM    5  N   UNL     1     -43.527  59.389 -51.604  1.00  0.00    -0.181 NA
HETATM    6  C   UNL     1     -44.301  59.189 -52.673  1.00  0.00     0.160 A 
HETATM    7  C   UNL     1     -43.930  58.046 -53.428  1.00  0.00     0.096 A 
HETATM    8  C   UNL     1     -41.636  58.199 -50.652  1.00  0.00     0.221 C 
HETATM    9  C   UNL     1     -41.277  56.707 -50.557  1.00  0.00     0.066 C 
HETATM   10  H   UNL     1     -42.508  55.555 -53.301  1.00  0.00     0.161 HD
ENDROOT
BRANCH   7  11
HETATM   11  C   UNL     1     -44.582  57.596 -54.643  1.00  0.00     0.257 C 
HETATM   12  N   UNL     1     -44.501  58.457 -55.710  1.00  0.00    -0.352 N 
HETATM   13  H   UNL     1     -44.145  59.389 -55.540  1.00  0.00     0.163 HD
HETATM   14  O   UNL     1     -45.191  56.532 -54.686  1.00  0.00    -0.267 OA
BRANCH  12  15
HETATM   15  C   UNL     1     -45.200  58.200 -56.948  1.00  0.00     0.161 C 
BRANCH  15  16
HETATM   16  C   UNL     1     -44.274  57.808 -58.073  1.00  0.00    -0.041 A 
HETATM   17  C   UNL     1     -44.750  57.176 -59.232  1.00  0.00     0.009 A 
HETATM   18  C   UNL     1     -43.889  56.894 -60.294  1.00  0.00     0.001 A 
HETATM   19  C   UNL     1     -42.546  57.254 -60.219  1.00  0.00     0.000 A 
HETATM   20  C   UNL     1     -42.062  57.898 -59.083  1.00  0.00     0.001 A 
HETATM   21  C   UNL     1     -42.920  58.176 -58.017  1.00  0.00     0.009 A 
ENDBRANCH  15  16
ENDBRANCH  12  15
ENDBRANCH   7  11
BRANCH   1  22
HETATM   22  C   UNL     1     -40.686  54.636 -51.946  1.00  0.00    -0.033 A 
HETATM   23  C   UNL     1     -40.581  53.886 -53.130  1.00  0.00     0.046 A 
HETATM   24  C   UNL     1     -40.297  52.515 -53.100  1.00  0.00     0.068 A 
HETATM   25  C   UNL     1     -40.089  51.884 -51.875  1.00  0.00     0.037 A 
HETATM   26  C   UNL     1     -40.164  52.619 -50.691  1.00  0.00     0.003 A 
HETATM   27  C   UNL     1     -40.456  53.983 -50.725  1.00  0.00     0.009 A 
BRANCH  24  28
HETATM   28  O   UNL     1     -40.249  51.918 -54.330  1.00  0.00    -0.356 OA
HETATM   29  C   UNL     1     -40.060  50.508 -54.353  1.00  0.00     0.210 C 
ENDBRANCH  24  28
ENDBRANCH   1  22
BRANCH   8  30
HETATM   30  C   UNL     1     -40.438  59.079 -50.923  1.00  0.00     0.409 C 
HETATM   31  F   UNL     1     -40.265  59.355 -52.234  1.00  0.00    -0.169 F 
HETATM   32  F   UNL     1     -40.488  60.254 -50.260  1.00  0.00    -0.169 F 
HETATM   33  F   UNL     1     -39.304  58.453 -50.509  1.00  0.00    -0.169 F 
ENDBRANCH   8  30
TORSDOF 6
ENDMDL
MODEL 10
REMARK VINA RESULT:      -7.8     15.418     17.529
REMARK  6 active torsions:
REMARK  status: ('A' for Active; 'I' for Inactive)
REMARK    1  A    between atoms: O_2  and  C_3 
REMARK    2  A    between atoms: C_5  and  C_6 
REMARK    3  A    between atoms: C_12  and  C_13 
REMARK       I    between atoms: C_13  and  N_14 
REMARK    4  A    between atoms: N_14  and  C_15 
REMARK    5  A    between atoms: C_15  and  C_16 
REMARK    6  A    between atoms: C_23  and  C_24 
ROOT
HETATM    1  C   UNL     1     -32.910  39.891 -52.900  1.00  0.00     0.118 C 
HETATM    2  N   UNL     1     -34.349  40.141 -53.000  1.00  0.00    -0.365 N 
HETATM    3  C   UNL     1     -35.179  39.866 -51.957  1.00  0.00     0.138 A 
HETATM    4  N   UNL     1     -34.697  39.255 -50.822  1.00  0.00    -0.240 N 
HETATM    5  N   UNL     1     -35.645  38.917 -49.936  1.00  0.00    -0.181 NA
HETATM    6  C   UNL     1     -36.759  39.404 -50.488  1.00  0.00     0.160 A 
HETATM    7  C   UNL     1     -36.536  40.025 -51.744  1.00  0.00     0.096 A 
HETATM    8  C   UNL     1     -33.320  38.839 -50.632  1.00  0.00     0.221 C 
HETATM    9  C   UNL     1     -32.641  38.671 -52.002  1.00  0.00     0.066 C 
HETATM   10  H   UNL     1     -34.709  40.180 -53.955  1.00  0.00     0.161 HD
ENDROOT
BRANCH   7  11
HETATM   11  C   UNL     1     -37.558  40.651 -52.563  1.00  0.00     0.257 C 
HETATM   12  N   UNL     1     -37.406  40.492 -53.919  1.00  0.00    -0.352 N 
HETATM   13  H   UNL     1     -36.534  40.102 -54.255  1.00  0.00     0.163 HD
HETATM   14  O   UNL     1     -38.468  41.303 -52.063  1.00  0.00    -0.267 OA
BRANCH  12  15
HETATM   15  C   UNL     1     -38.276  41.154 -54.863  1.00  0.00     0.161 C 
BRANCH  15  16
HETATM   16  C   UNL     1     -37.705  41.194 -56.259  1.00  0.00    -0.041 A 
HETATM   17  C   UNL     1     -38.390  40.638 -57.351  1.00  0.00     0.009 A 
HETATM   18  C   UNL     1     -37.881  40.755 -58.645  1.00  0.00     0.001 A 
HETATM   19  C   UNL     1     -36.690  41.443 -58.868  1.00  0.00     0.000 A 
HETATM   20  C   UNL     1     -36.008  42.015 -57.798  1.00  0.00     0.001 A 
HETATM   21  C   UNL     1     -36.513  41.894 -56.501  1.00  0.00     0.009 A 
ENDBRANCH  15  16
ENDBRANCH  12  15
ENDBRANCH   7  11
BRANCH   1  22
HETATM   22  C   UNL     1     -32.318  39.774 -54.292  1.00  0.00    -0.033 A 
HETATM   23  C   UNL     1     -31.169  39.010 -54.559  1.00  0.00     0.046 A 
HETATM   24  C   UNL     1     -30.641  38.918 -55.852  1.00  0.00     0.068 A 
HETATM   25  C   UNL     1     -31.277  39.578 -56.902  1.00  0.00     0.037 A 
HETATM   26  C   UNL     1     -32.434  40.321 -56.659  1.00  0.00     0.003 A 
HETATM   27  C   UNL     1     -32.952  40.416 -55.367  1.00  0.00     0.009 A 
BRANCH  24  28
HETATM   28  O   UNL     1     -29.509  38.156 -55.950  1.00  0.00    -0.356 OA
HETATM   29  C   UNL     1     -28.827  38.176 -57.199  1.00  0.00     0.210 C 
ENDBRANCH  24  28
ENDBRANCH   1  22
BRANCH   8  30
HETATM   30  C   UNL     1     -32.605  39.823 -49.735  1.00  0.00     0.409 C 
HETATM   31  F   UNL     1     -31.283  39.917 -49.994  1.00  0.00    -0.169 F 
HETATM   32  F   UNL     1     -33.125  41.067 -49.799  1.00  0.00    -0.169 F 
HETATM   33  F   UNL     1     -32.716  39.428 -48.439  1.00  0.00    -0.169 F 
ENDBRANCH   8  30
TORSDOF 6
ENDMDL
