MODEL 1
REMARK VINA RESULT:      -9.5      0.000      0.000
REMARK  7 active torsions:
REMARK  status: ('A' for Active; 'I' for Inactive)
REMARK    1  A    between atoms: C_2  and  O_3 
REMARK    2  A    between atoms: O_3  and  C_4 
REMARK    3  A    between atoms: C_7  and  N_8 
REMARK    4  A    between atoms: C_9  and  C_11 
REMARK    5  A    between atoms: C_9  and  O_10 
REMARK       I    between atoms: C_11  and  N_12 
REMARK    6  A    between atoms: N_12  and  C_13 
REMARK    7  A    between atoms: C_13  and  C_14 
ROOT
HETATM    1  N   UNL     1     -43.489  56.764 -53.293  1.00  0.00    -0.254 N 
HETATM    2  C   UNL     1     -43.215  55.998 -54.524  1.00  0.00     0.256 C 
HETATM    3  C   UNL     1     -43.658  56.712 -55.787  1.00  0.00     0.034 A 
HETATM    4  C   UNL     1     -44.632  57.698 -55.678  1.00  0.00     0.048 A 
HETATM    5  N   UNL     1     -45.114  58.032 -54.420  1.00  0.00    -0.308 N 
HETATM    6  C   UNL     1     -44.592  57.604 -53.235  1.00  0.00     0.330 C 
HETATM    7  O   UNL     1     -45.090  58.047 -52.199  1.00  0.00    -0.246 OA
HETATM    8  C   UNL     1     -43.206  56.366 -57.074  1.00  0.00     0.015 A 
HETATM    9  C   UNL     1     -43.695  57.025 -58.205  1.00  0.00     0.001 A 
HETATM   10  C   UNL     1     -44.662  58.017 -58.070  1.00  0.00     0.002 A 
HETATM   11  C   UNL     1     -45.141  58.350 -56.804  1.00  0.00     0.030 A 
HETATM   12  H   UNL     1     -45.855  58.715 -54.326  1.00  0.00     0.170 HD
ENDROOT
BRANCH   2  13
HETATM   13  C   UNL     1     -41.697  55.555 -54.666  1.00  0.00     0.279 C 
HETATM   14  N   UNL     1     -41.525  54.183 -54.772  1.00  0.00    -0.352 N 
HETATM   15  H   UNL     1     -42.347  53.644 -55.029  1.00  0.00     0.162 HD
HETATM   16  O   UNL     1     -40.744  56.333 -54.645  1.00  0.00    -0.268 OA
BRANCH  14  17
HETATM   17  C   UNL     1     -40.220  53.605 -54.963  1.00  0.00     0.161 C 
BRANCH  17  18
HETATM   18  C   UNL     1     -40.063  52.361 -54.130  1.00  0.00    -0.038 A 
HETATM   19  C   UNL     1     -40.087  52.436 -52.728  1.00  0.00     0.048 A 
HETATM   20  C   UNL     1     -39.929  51.268 -52.012  1.00  0.00     0.105 A 
HETATM   21  C   UNL     1     -39.744  50.056 -52.633  1.00  0.00     0.105 A 
HETATM   22  O   UNL     1     -39.934  51.162 -50.656  1.00  0.00    -0.323 OA
HETATM   23  O   UNL     1     -39.613  49.033 -51.745  1.00  0.00    -0.323 OA
HETATM   24  C   UNL     1     -39.700  49.942 -54.004  1.00  0.00     0.040 A 
HETATM   25  C   UNL     1     -39.745  49.741 -50.494  1.00  0.00     0.352 A 
HETATM   26  C   UNL     1     -39.858  51.110 -54.758  1.00  0.00     0.012 A 
ENDBRANCH  17  18
ENDBRANCH  14  17
ENDBRANCH   2  13
BRANCH   2  27
HETATM   27  O   UNL     1     -44.029  54.811 -54.459  1.00  0.00    -0.359 OA
HETATM   28  H   UNL     1     -44.272  54.640 -55.382  1.00  0.00     0.213 HD
ENDBRANCH   2  27
BRANCH   1  29
HETATM   29  C   UNL     1     -42.910  56.318 -52.062  1.00  0.00     0.043 A 
HETATM   30  C   UNL     1     -41.922  57.068 -51.416  1.00  0.00     0.032 A 
HETATM   31  C   UNL     1     -41.378  56.628 -50.205  1.00  0.00     0.039 A 
HETATM   32  C   UNL     1     -41.793  55.423 -49.633  1.00  0.00     0.068 A 
HETATM   33  C   UNL     1     -42.752  54.656 -50.291  1.00  0.00     0.039 A 
HETATM   34  C   UNL     1     -43.299  55.098 -51.501  1.00  0.00     0.032 A 
BRANCH  32  35
HETATM   35  O   UNL     1     -41.183  55.106 -48.452  1.00  0.00    -0.352 OA
BRANCH  35  36
HETATM   36  C   UNL     1     -40.332  53.961 -48.450  1.00  0.00     0.171 C 
HETATM   37  C   UNL     1     -39.230  54.191 -49.468  1.00  0.00     0.034 C 
ENDBRANCH  35  36
ENDBRANCH  32  35
ENDBRANCH   1  29
TORSDOF 7
ENDMDL
MODEL 2
REMARK VINA RESULT:      -8.8      2.438      7.531
REMARK  7 active torsions:
REMARK  status: ('A' for Active; 'I' for Inactive)
REMARK    1  A    between atoms: C_2  and  O_3 
REMARK    2  A    between atoms: O_3  and  C_4 
REMARK    3  A    between atoms: C_7  and  N_8 
REMARK    4  A    between atoms: C_9  and  C_11 
REMARK    5  A    between atoms: C_9  and  O_10 
REMARK       I    between atoms: C_11  and  N_12 
REMARK    6  A    between atoms: N_12  and  C_13 
REMARK    7  A    between atoms: C_13  and  C_14 
ROOT
HETATM    1  N   UNL     1     -41.741  55.508 -52.586  1.00  0.00    -0.254 N 
HETATM    2  C   UNL     1     -41.296  54.800 -53.803  1.00  0.00     0.256 C 
HETATM    3  C   UNL     1     -40.773  53.403 -53.529  1.00  0.00     0.034 A 
HETATM    4  C   UNL     1     -40.331  53.107 -52.244  1.00  0.00     0.048 A 
HETATM    5  N   UNL     1     -40.441  54.073 -51.254  1.00  0.00    -0.308 N 
HETATM    6  C   UNL     1     -41.115  55.252 -51.374  1.00  0.00     0.330 C 
HETATM    7  O   UNL     1     -41.181  55.976 -50.378  1.00  0.00    -0.246 OA
HETATM    8  C   UNL     1     -40.623  52.421 -54.526  1.00  0.00     0.015 A 
HETATM    9  C   UNL     1     -40.081  51.170 -54.220  1.00  0.00     0.001 A 
HETATM   10  C   UNL     1     -39.656  50.892 -52.924  1.00  0.00     0.002 A 
HETATM   11  C   UNL     1     -39.771  51.865 -51.933  1.00  0.00     0.030 A 
HETATM   12  H   UNL     1     -40.084  53.890 -50.326  1.00  0.00     0.170 HD
ENDROOT
BRANCH   2  13
HETATM   13  C   UNL     1     -42.404  54.743 -54.938  1.00  0.00     0.279 C 
HETATM   14  N   UNL     1     -42.053  55.423 -56.095  1.00  0.00    -0.352 N 
HETATM   15  H   UNL     1     -41.066  55.633 -56.212  1.00  0.00     0.162 HD
HETATM   16  O   UNL     1     -43.495  54.187 -54.813  1.00  0.00    -0.268 OA
BRANCH  14  17
HETATM   17  C   UNL     1     -42.913  55.431 -57.249  1.00  0.00     0.161 C 
BRANCH  17  18
HETATM   18  C   UNL     1     -42.637  56.634 -58.109  1.00  0.00    -0.038 A 
HETATM   19  C   UNL     1     -42.382  57.884 -57.522  1.00  0.00     0.048 A 
HETATM   20  C   UNL     1     -42.145  58.957 -58.356  1.00  0.00     0.105 A 
HETATM   21  C   UNL     1     -42.161  58.830 -59.725  1.00  0.00     0.105 A 
HETATM   22  O   UNL     1     -41.874  60.228 -57.955  1.00  0.00    -0.323 OA
HETATM   23  O   UNL     1     -41.900  60.006 -60.357  1.00  0.00    -0.323 OA
HETATM   24  C   UNL     1     -42.422  57.626 -60.339  1.00  0.00     0.040 A 
HETATM   25  C   UNL     1     -41.709  60.885 -59.229  1.00  0.00     0.352 A 
HETATM   26  C   UNL     1     -42.667  56.519 -59.519  1.00  0.00     0.012 A 
ENDBRANCH  17  18
ENDBRANCH  14  17
ENDBRANCH   2  13
BRANCH   2  27
HETATM   27  O   UNL     1     -40.165  55.532 -54.312  1.00  0.00    -0.359 OA
HETATM   28  H   UNL     1     -39.765  54.929 -54.959  1.00  0.00     0.213 HD
ENDBRANCH   2  27
BRANCH   1  29
HETATM   29  C   UNL     1     -42.473  56.730 -52.729  1.00  0.00     0.043 A 
HETATM   30  C   UNL     1     -43.839  56.791 -52.435  1.00  0.00     0.032 A 
HETATM   31  C   UNL     1     -44.536  57.997 -52.563  1.00  0.00     0.039 A 
HETATM   32  C   UNL     1     -43.888  59.151 -53.009  1.00  0.00     0.068 A 
HETATM   33  C   UNL     1     -42.535  59.086 -53.334  1.00  0.00     0.039 A 
HETATM   34  C   UNL     1     -41.837  57.881 -53.203  1.00  0.00     0.032 A 
BRANCH  32  35
HETATM   35  O   UNL     1     -44.682  60.261 -53.091  1.00  0.00    -0.352 OA
BRANCH  35  36
HETATM   36  C   UNL     1     -44.572  61.047 -54.276  1.00  0.00     0.171 C 
HETATM   37  C   UNL     1     -45.363  60.358 -55.374  1.00  0.00     0.034 C 
ENDBRANCH  35  36
ENDBRANCH  32  35
ENDBRANCH   1  29
TORSDOF 7
ENDMDL
MODEL 3
REMARK VINA RESULT:      -8.8      2.319      7.226
REMARK  7 active torsions:
REMARK  status: ('A' for Active; 'I' for Inactive)
REMARK    1  A    between atoms: C_2  and  O_3 
REMARK    2  A    between atoms: O_3  and  C_4 
REMARK    3  A    between atoms: C_7  and  N_8 
REMARK    4  A    between atoms: C_9  and  C_11 
REMARK    5  A    between atoms: C_9  and  O_10 
REMARK       I    between atoms: C_11  and  N_12 
REMARK    6  A    between atoms: N_12  and  C_13 
REMARK    7  A    between atoms: C_13  and  C_14 
ROOT
HETATM    1  N   UNL     1     -41.540  54.964 -52.044  1.00  0.00    -0.254 N 
HETATM    2  C   UNL     1     -41.261  54.393 -53.376  1.00  0.00     0.256 C 
HETATM    3  C   UNL     1     -40.700  52.985 -53.321  1.00  0.00     0.034 A 
HETATM    4  C   UNL     1     -40.086  52.567 -52.146  1.00  0.00     0.048 A 
HETATM    5  N   UNL     1     -40.065  53.425 -51.055  1.00  0.00    -0.308 N 
HETATM    6  C   UNL     1     -40.755  54.598 -50.960  1.00  0.00     0.330 C 
HETATM    7  O   UNL     1     -40.688  55.214 -49.894  1.00  0.00    -0.246 OA
HETATM    8  C   UNL     1     -40.683  52.113 -54.426  1.00  0.00     0.015 A 
HETATM    9  C   UNL     1     -40.099  50.847 -54.327  1.00  0.00     0.001 A 
HETATM   10  C   UNL     1     -39.500  50.446 -53.136  1.00  0.00     0.002 A 
HETATM   11  C   UNL     1     -39.485  51.311 -52.043  1.00  0.00     0.030 A 
HETATM   12  H   UNL     1     -39.584  53.155 -50.207  1.00  0.00     0.170 HD
ENDROOT
BRANCH   2  13
HETATM   13  C   UNL     1     -42.513  54.432 -54.352  1.00  0.00     0.279 C 
HETATM   14  N   UNL     1     -42.231  54.969 -55.599  1.00  0.00    -0.352 N 
HETATM   15  H   UNL     1     -41.251  55.014 -55.859  1.00  0.00     0.162 HD
HETATM   16  O   UNL     1     -43.645  54.063 -54.040  1.00  0.00    -0.268 OA
BRANCH  14  17
HETATM   17  C   UNL     1     -43.234  55.032 -56.631  1.00  0.00     0.161 C 
BRANCH  17  18
HETATM   18  C   UNL     1     -42.900  56.106 -57.630  1.00  0.00    -0.038 A 
HETATM   19  C   UNL     1     -42.559  57.398 -57.198  1.00  0.00     0.048 A 
HETATM   20  C   UNL     1     -42.272  58.348 -58.155  1.00  0.00     0.105 A 
HETATM   21  C   UNL     1     -42.320  58.063 -59.499  1.00  0.00     0.105 A 
HETATM   22  O   UNL     1     -41.917  59.639 -57.911  1.00  0.00    -0.323 OA
HETATM   23  O   UNL     1     -42.000  59.138 -60.269  1.00  0.00    -0.323 OA
HETATM   24  C   UNL     1     -42.665  56.813 -59.963  1.00  0.00     0.040 A 
HETATM   25  C   UNL     1     -41.735  60.130 -59.255  1.00  0.00     0.352 A 
HETATM   26  C   UNL     1     -42.962  55.828 -59.016  1.00  0.00     0.012 A 
ENDBRANCH  17  18
ENDBRANCH  14  17
ENDBRANCH   2  13
BRANCH   2  27
HETATM   27  O   UNL     1     -40.213  55.194 -53.954  1.00  0.00    -0.359 OA
HETATM   28  H   UNL     1     -39.405  54.875 -53.521  1.00  0.00     0.213 HD
ENDBRANCH   2  27
BRANCH   1  29
HETATM   29  C   UNL     1     -42.290  56.181 -51.959  1.00  0.00     0.043 A 
HETATM   30  C   UNL     1     -41.755  57.391 -52.412  1.00  0.00     0.032 A 
HETATM   31  C   UNL     1     -42.507  58.568 -52.338  1.00  0.00     0.039 A 
HETATM   32  C   UNL     1     -43.792  58.560 -51.789  1.00  0.00     0.068 A 
HETATM   33  C   UNL     1     -44.315  57.363 -51.306  1.00  0.00     0.039 A 
HETATM   34  C   UNL     1     -43.563  56.185 -51.383  1.00  0.00     0.032 A 
BRANCH  32  35
HETATM   35  O   UNL     1     -44.418  59.775 -51.775  1.00  0.00    -0.352 OA
BRANCH  35  36
HETATM   36  C   UNL     1     -45.717  59.825 -51.186  1.00  0.00     0.171 C 
HETATM   37  C   UNL     1     -46.611  60.658 -52.088  1.00  0.00     0.034 C 
ENDBRANCH  35  36
ENDBRANCH  32  35
ENDBRANCH   1  29
TORSDOF 7
ENDMDL
MODEL 4
REMARK VINA RESULT:      -8.7      2.897      6.952
REMARK  7 active torsions:
REMARK  status: ('A' for Active; 'I' for Inactive)
REMARK    1  A    between atoms: C_2  and  O_3 
REMARK    2  A    between atoms: O_3  and  C_4 
REMARK    3  A    between atoms: C_7  and  N_8 
REMARK    4  A    between atoms: C_9  and  C_11 
REMARK    5  A    between atoms: C_9  and  O_10 
REMARK       I    between atoms: C_11  and  N_12 
REMARK    6  A    between atoms: N_12  and  C_13 
REMARK    7  A    between atoms: C_13  and  C_14 
ROOT
HETATM    1  N   UNL     1     -43.320  56.394 -53.019  1.00  0.00    -0.254 N 
HETATM    2  C   UNL     1     -44.101  57.138 -54.027  1.00  0.00     0.256 C 
HETATM    3  C   UNL     1     -44.711  58.419 -53.490  1.00  0.00     0.034 A 
HETATM    4  C   UNL     1     -44.893  58.534 -52.116  1.00  0.00     0.048 A 
HETATM    5  N   UNL     1     -44.455  57.509 -51.290  1.00  0.00    -0.308 N 
HETATM    6  C   UNL     1     -43.690  56.451 -51.683  1.00  0.00     0.330 C 
HETATM    7  O   UNL     1     -43.322  55.658 -50.814  1.00  0.00    -0.246 OA
HETATM    8  C   UNL     1     -45.190  59.455 -54.312  1.00  0.00     0.015 A 
HETATM    9  C   UNL     1     -45.795  60.586 -53.758  1.00  0.00     0.001 A 
HETATM   10  C   UNL     1     -45.956  60.685 -52.378  1.00  0.00     0.002 A 
HETATM   11  C   UNL     1     -45.512  59.653 -51.553  1.00  0.00     0.030 A 
HETATM   12  H   UNL     1     -44.619  57.556 -50.293  1.00  0.00     0.170 HD
ENDROOT
BRANCH   2  13
HETATM   13  C   UNL     1     -43.283  57.451 -55.352  1.00  0.00     0.279 C 
HETATM   14  N   UNL     1     -43.686  56.700 -56.446  1.00  0.00    -0.352 N 
HETATM   15  H   UNL     1     -44.599  56.261 -56.380  1.00  0.00     0.162 HD
HETATM   16  O   UNL     1     -42.350  58.252 -55.416  1.00  0.00    -0.268 OA
BRANCH  14  17
HETATM   17  C   UNL     1     -43.092  56.891 -57.744  1.00  0.00     0.161 C 
BRANCH  17  18
HETATM   18  C   UNL     1     -44.080  56.568 -58.832  1.00  0.00    -0.038 A 
HETATM   19  C   UNL     1     -45.236  57.347 -58.998  1.00  0.00     0.048 A 
HETATM   20  C   UNL     1     -46.114  57.002 -60.004  1.00  0.00     0.105 A 
HETATM   21  C   UNL     1     -45.887  55.925 -60.827  1.00  0.00     0.105 A 
HETATM   22  O   UNL     1     -47.271  57.651 -60.304  1.00  0.00    -0.323 OA
HETATM   23  O   UNL     1     -46.871  55.763 -61.752  1.00  0.00    -0.323 OA
HETATM   24  C   UNL     1     -44.773  55.128 -60.688  1.00  0.00     0.040 A 
HETATM   25  C   UNL     1     -47.740  56.867 -61.421  1.00  0.00     0.352 A 
HETATM   26  C   UNL     1     -43.864  55.453 -59.676  1.00  0.00     0.012 A 
ENDBRANCH  17  18
ENDBRANCH  14  17
ENDBRANCH   2  13
BRANCH   2  27
HETATM   27  O   UNL     1     -45.222  56.304 -54.375  1.00  0.00    -0.359 OA
HETATM   28  H   UNL     1     -44.957  55.418 -54.081  1.00  0.00     0.213 HD
ENDBRANCH   2  27
BRANCH   1  29
HETATM   29  C   UNL     1     -42.499  55.305 -53.452  1.00  0.00     0.043 A 
HETATM   30  C   UNL     1     -41.104  55.381 -53.384  1.00  0.00     0.032 A 
HETATM   31  C   UNL     1     -40.316  54.300 -53.794  1.00  0.00     0.039 A 
HETATM   32  C   UNL     1     -40.905  53.140 -54.301  1.00  0.00     0.068 A 
HETATM   33  C   UNL     1     -42.293  53.073 -54.402  1.00  0.00     0.039 A 
HETATM   34  C   UNL     1     -43.082  54.153 -53.988  1.00  0.00     0.032 A 
BRANCH  32  35
HETATM   35  O   UNL     1     -40.025  52.161 -54.667  1.00  0.00    -0.352 OA
BRANCH  35  36
HETATM   36  C   UNL     1     -39.564  51.287 -53.637  1.00  0.00     0.171 C 
HETATM   37  C   UNL     1     -39.811  49.858 -54.086  1.00  0.00     0.034 C 
ENDBRANCH  35  36
ENDBRANCH  32  35
ENDBRANCH   1  29
TORSDOF 7
ENDMDL
MODEL 5
REMARK VINA RESULT:      -8.4     14.577     17.188
REMARK  7 active torsions:
REMARK  status: ('A' for Active; 'I' for Inactive)
REMARK    1  A    between atoms: C_2  and  O_3 
REMARK    2  A    between atoms: O_3  and  C_4 
REMARK    3  A    between atoms: C_7  and  N_8 
REMARK    4  A    between atoms: C_9  and  C_11 
REMARK    5  A    between atoms: C_9  and  O_10 
REMARK       I    between atoms: C_11  and  N_12 
REMARK    6  A    between atoms: N_12  and  C_13 
REMARK    7  A    between atoms: C_13  and  C_14 
ROOT
HETATM    1  N   UNL     1     -36.869  40.476 -58.836  1.00  0.00    -0.254 N 
HETATM    2  C   UNL     1     -37.272  39.057 -58.888  1.00  0.00     0.256 C 
HETATM    3  C   UNL     1     -37.320  38.497 -60.297  1.00  0.00     0.034 A 
HETATM    4  C   UNL     1     -37.455  39.389 -61.354  1.00  0.00     0.048 A 
HETATM    5  N   UNL     1     -37.478  40.750 -61.089  1.00  0.00    -0.308 N 
HETATM    6  C   UNL     1     -37.200  41.324 -59.883  1.00  0.00     0.330 C 
HETATM    7  O   UNL     1     -37.193  42.555 -59.825  1.00  0.00    -0.246 OA
HETATM    8  C   UNL     1     -37.331  37.119 -60.584  1.00  0.00     0.015 A 
HETATM    9  C   UNL     1     -37.435  36.665 -61.901  1.00  0.00     0.001 A 
HETATM   10  C   UNL     1     -37.557  37.577 -62.946  1.00  0.00     0.002 A 
HETATM   11  C   UNL     1     -37.577  38.944 -62.673  1.00  0.00     0.030 A 
HETATM   12  H   UNL     1     -37.620  41.411 -61.841  1.00  0.00     0.170 HD
ENDROOT
BRANCH   2  13
HETATM   13  C   UNL     1     -36.383  38.116 -57.969  1.00  0.00     0.279 C 
HETATM   14  N   UNL     1     -35.050  38.064 -58.348  1.00  0.00    -0.352 N 
HETATM   15  H   UNL     1     -34.725  38.809 -58.956  1.00  0.00     0.162 HD
HETATM   16  O   UNL     1     -36.821  37.454 -57.027  1.00  0.00    -0.268 OA
BRANCH  14  17
HETATM   17  C   UNL     1     -34.087  37.303 -57.595  1.00  0.00     0.161 C 
BRANCH  17  18
HETATM   18  C   UNL     1     -33.388  38.178 -56.590  1.00  0.00    -0.038 A 
HETATM   19  C   UNL     1     -33.776  38.160 -55.241  1.00  0.00     0.048 A 
HETATM   20  C   UNL     1     -33.110  38.989 -54.362  1.00  0.00     0.105 A 
HETATM   21  C   UNL     1     -32.098  39.822 -54.775  1.00  0.00     0.105 A 
HETATM   22  O   UNL     1     -33.353  39.089 -53.028  1.00  0.00    -0.323 OA
HETATM   23  O   UNL     1     -31.574  40.549 -53.752  1.00  0.00    -0.323 OA
HETATM   24  C   UNL     1     -31.698  39.879 -56.092  1.00  0.00     0.040 A 
HETATM   25  C   UNL     1     -32.368  40.072 -52.646  1.00  0.00     0.352 A 
HETATM   26  C   UNL     1     -32.355  39.050 -57.007  1.00  0.00     0.012 A 
ENDBRANCH  17  18
ENDBRANCH  14  17
ENDBRANCH   2  13
BRANCH   2  27
HETATM   27  O   UNL     1     -38.631  38.999 -58.413  1.00  0.00    -0.359 OA
HETATM   28  H   UNL     1     -38.775  39.866 -58.003  1.00  0.00     0.213 HD
ENDBRANCH   2  27
BRANCH   1  29
HETATM   29  C   UNL     1     -36.552  41.056 -57.566  1.00  0.00     0.043 A 
HETATM   30  C   UNL     1     -37.545  41.275 -56.605  1.00  0.00     0.032 A 
HETATM   31  C   UNL     1     -37.216  41.827 -55.363  1.00  0.00     0.039 A 
HETATM   32  C   UNL     1     -35.899  42.190 -55.069  1.00  0.00     0.068 A 
HETATM   33  C   UNL     1     -34.914  42.005 -56.036  1.00  0.00     0.039 A 
HETATM   34  C   UNL     1     -35.242  41.449 -57.278  1.00  0.00     0.032 A 
BRANCH  32  35
HETATM   35  O   UNL     1     -35.713  42.719 -53.823  1.00  0.00    -0.352 OA
BRANCH  35  36
HETATM   36  C   UNL     1     -35.994  41.869 -52.712  1.00  0.00     0.171 C 
HETATM   37  C   UNL     1     -34.957  42.140 -51.636  1.00  0.00     0.034 C 
ENDBRANCH  35  36
ENDBRANCH  32  35
ENDBRANCH   1  29
TORSDOF 7
ENDMDL
MODEL 6
REMARK VINA RESULT:      -8.4      2.495      4.084
REMARK  7 active torsions:
REMARK  status: ('A' for Active; 'I' for Inactive)
REMARK    1  A    between atoms: C_2  and  O_3 
REMARK    2  A    between atoms: O_3  and  C_4 
REMARK    3  A    between atoms: C_7  and  N_8 
REMARK    4  A    between atoms: C_9  and  C_11 
REMARK    5  A    between atoms: C_9  and  O_10 
REMARK       I    between atoms: C_11  and  N_12 
REMARK    6  A    between atoms: N_12  and  C_13 
REMARK    7  A    between atoms: C_13  and  C_14 
ROOT
HETATM    1  N   UNL     1     -42.382  58.071 -55.908  1.00  0.00    -0.254 N 
HETATM    2  C   UNL     1     -43.232  56.945 -56.342  1.00  0.00     0.256 C 
HETATM    3  C   UNL     1     -43.234  56.738 -57.845  1.00  0.00     0.034 A 
HETATM    4  C   UNL     1     -42.877  57.808 -58.657  1.00  0.00     0.048 A 
HETATM    5  N   UNL     1     -42.476  58.998 -58.065  1.00  0.00    -0.308 N 
HETATM    6  C   UNL     1     -42.223  59.173 -56.737  1.00  0.00     0.330 C 
HETATM    7  O   UNL     1     -41.805  60.275 -56.376  1.00  0.00    -0.246 OA
HETATM    8  C   UNL     1     -43.668  55.551 -58.464  1.00  0.00     0.015 A 
HETATM    9  C   UNL     1     -43.700  55.441 -59.857  1.00  0.00     0.001 A 
HETATM   10  C   UNL     1     -43.326  56.523 -60.650  1.00  0.00     0.002 A 
HETATM   11  C   UNL     1     -42.922  57.715 -60.050  1.00  0.00     0.030 A 
HETATM   12  H   UNL     1     -42.256  59.801 -58.640  1.00  0.00     0.170 HD
ENDROOT
BRANCH   2  13
HETATM   13  C   UNL     1     -42.885  55.578 -55.615  1.00  0.00     0.279 C 
HETATM   14  N   UNL     1     -43.711  55.295 -54.537  1.00  0.00    -0.352 N 
HETATM   15  H   UNL     1     -44.587  55.806 -54.494  1.00  0.00     0.162 HD
HETATM   16  O   UNL     1     -41.952  54.841 -55.934  1.00  0.00    -0.268 OA
BRANCH  14  17
HETATM   17  C   UNL     1     -43.577  54.069 -53.792  1.00  0.00     0.161 C 
BRANCH  17  18
HETATM   18  C   UNL     1     -42.870  54.315 -52.488  1.00  0.00    -0.038 A 
HETATM   19  C   UNL     1     -41.621  53.724 -52.233  1.00  0.00     0.048 A 
HETATM   20  C   UNL     1     -41.020  53.974 -51.017  1.00  0.00     0.105 A 
HETATM   21  C   UNL     1     -41.612  54.768 -50.064  1.00  0.00     0.105 A 
HETATM   22  O   UNL     1     -39.815  53.490 -50.614  1.00  0.00    -0.323 OA
HETATM   23  O   UNL     1     -40.851  54.887 -48.943  1.00  0.00    -0.323 OA
HETATM   24  C   UNL     1     -42.841  55.353 -50.269  1.00  0.00     0.040 A 
HETATM   25  C   UNL     1     -39.709  54.082 -49.303  1.00  0.00     0.352 A 
HETATM   26  C   UNL     1     -43.476  55.119 -51.494  1.00  0.00     0.012 A 
ENDBRANCH  17  18
ENDBRANCH  14  17
ENDBRANCH   2  13
BRANCH   2  27
HETATM   27  O   UNL     1     -44.587  57.303 -56.011  1.00  0.00    -0.359 OA
HETATM   28  H   UNL     1     -44.596  57.321 -55.040  1.00  0.00     0.213 HD
ENDBRANCH   2  27
BRANCH   1  29
HETATM   29  C   UNL     1     -42.102  58.225 -54.513  1.00  0.00     0.043 A 
HETATM   30  C   UNL     1     -40.989  57.611 -53.928  1.00  0.00     0.032 A 
HETATM   31  C   UNL     1     -40.720  57.785 -52.567  1.00  0.00     0.039 A 
HETATM   32  C   UNL     1     -41.569  58.552 -51.764  1.00  0.00     0.068 A 
HETATM   33  C   UNL     1     -42.697  59.136 -52.336  1.00  0.00     0.039 A 
HETATM   34  C   UNL     1     -42.964  58.965 -53.699  1.00  0.00     0.032 A 
BRANCH  32  35
HETATM   35  O   UNL     1     -41.194  58.641 -50.453  1.00  0.00    -0.352 OA
BRANCH  35  36
HETATM   36  C   UNL     1     -40.578  59.859 -50.038  1.00  0.00     0.171 C 
HETATM   37  C   UNL     1     -39.087  59.748 -50.307  1.00  0.00     0.034 C 
ENDBRANCH  35  36
ENDBRANCH  32  35
ENDBRANCH   1  29
TORSDOF 7
ENDMDL
MODEL 7
REMARK VINA RESULT:      -8.3      2.387      7.758
REMARK  7 active torsions:
REMARK  status: ('A' for Active; 'I' for Inactive)
REMARK    1  A    between atoms: C_2  and  O_3 
REMARK    2  A    between atoms: O_3  and  C_4 
REMARK    3  A    between atoms: C_7  and  N_8 
REMARK    4  A    between atoms: C_9  and  C_11 
REMARK    5  A    between atoms: C_9  and  O_10 
REMARK       I    between atoms: C_11  and  N_12 
REMARK    6  A    between atoms: N_12  and  C_13 
REMARK    7  A    between atoms: C_13  and  C_14 
ROOT
HETATM    1  N   UNL     1     -41.963  55.688 -51.693  1.00  0.00    -0.254 N 
HETATM    2  C   UNL     1     -41.582  55.279 -53.060  1.00  0.00     0.256 C 
HETATM    3  C   UNL     1     -40.969  53.893 -53.123  1.00  0.00     0.034 A 
HETATM    4  C   UNL     1     -40.410  53.368 -51.964  1.00  0.00     0.048 A 
HETATM    5  N   UNL     1     -40.489  54.099 -50.787  1.00  0.00    -0.308 N 
HETATM    6  C   UNL     1     -41.230  55.230 -50.608  1.00  0.00     0.330 C 
HETATM    7  O   UNL     1     -41.252  55.725 -49.480  1.00  0.00    -0.246 OA
HETATM    8  C   UNL     1     -40.850  53.151 -54.313  1.00  0.00     0.015 A 
HETATM    9  C   UNL     1     -40.222  51.903 -54.317  1.00  0.00     0.001 A 
HETATM   10  C   UNL     1     -39.681  51.391 -53.141  1.00  0.00     0.002 A 
HETATM   11  C   UNL     1     -39.765  52.129 -51.961  1.00  0.00     0.030 A 
HETATM   12  H   UNL     1     -40.049  53.752 -49.944  1.00  0.00     0.170 HD
ENDROOT
BRANCH   2  13
HETATM   13  C   UNL     1     -42.774  55.385 -54.103  1.00  0.00     0.279 C 
HETATM   14  N   UNL     1     -42.574  56.346 -55.083  1.00  0.00    -0.352 N 
HETATM   15  H   UNL     1     -41.619  56.669 -55.209  1.00  0.00     0.162 HD
HETATM   16  O   UNL     1     -43.805  54.715 -54.046  1.00  0.00    -0.268 OA
BRANCH  14  17
HETATM   17  C   UNL     1     -43.526  56.542 -56.145  1.00  0.00     0.161 C 
BRANCH  17  18
HETATM   18  C   UNL     1     -44.212  57.874 -56.004  1.00  0.00    -0.038 A 
HETATM   19  C   UNL     1     -45.178  58.278 -56.939  1.00  0.00     0.048 A 
HETATM   20  C   UNL     1     -45.770  59.512 -56.769  1.00  0.00     0.105 A 
HETATM   21  C   UNL     1     -45.433  60.342 -55.726  1.00  0.00     0.105 A 
HETATM   22  O   UNL     1     -46.724  60.052 -57.574  1.00  0.00    -0.323 OA
HETATM   23  O   UNL     1     -46.136  61.506 -55.741  1.00  0.00    -0.323 OA
HETATM   24  C   UNL     1     -44.481  59.988 -54.796  1.00  0.00     0.040 A 
HETATM   25  C   UNL     1     -46.960  61.311 -56.909  1.00  0.00     0.352 A 
HETATM   26  C   UNL     1     -43.863  58.741 -54.942  1.00  0.00     0.012 A 
ENDBRANCH  17  18
ENDBRANCH  14  17
ENDBRANCH   2  13
BRANCH   2  27
HETATM   27  O   UNL     1     -40.534  56.174 -53.478  1.00  0.00    -0.359 OA
HETATM   28  H   UNL     1     -40.833  57.047 -53.176  1.00  0.00     0.213 HD
ENDBRANCH   2  27
BRANCH   1  29
HETATM   29  C   UNL     1     -42.765  56.862 -51.524  1.00  0.00     0.043 A 
HETATM   30  C   UNL     1     -44.142  56.768 -51.297  1.00  0.00     0.032 A 
HETATM   31  C   UNL     1     -44.909  57.924 -51.117  1.00  0.00     0.039 A 
HETATM   32  C   UNL     1     -44.320  59.189 -51.184  1.00  0.00     0.068 A 
HETATM   33  C   UNL     1     -42.955  59.287 -51.444  1.00  0.00     0.039 A 
HETATM   34  C   UNL     1     -42.187  58.131 -51.621  1.00  0.00     0.032 A 
BRANCH  32  35
HETATM   35  O   UNL     1     -45.179  60.234 -50.992  1.00  0.00    -0.352 OA
BRANCH  35  36
HETATM   36  C   UNL     1     -46.438  60.166 -51.659  1.00  0.00     0.171 C 
HETATM   37  C   UNL     1     -46.757  61.546 -52.206  1.00  0.00     0.034 C 
ENDBRANCH  35  36
ENDBRANCH  32  35
ENDBRANCH   1  29
TORSDOF 7
ENDMDL
MODEL 8
REMARK VINA RESULT:      -8.2     14.472     17.935
REMARK  7 active torsions:
REMARK  status: ('A' for Active; 'I' for Inactive)
REMARK    1  A    between atoms: C_2  and  O_3 
REMARK    2  A    between atoms: O_3  and  C_4 
REMARK    3  A    between atoms: C_7  and  N_8 
REMARK    4  A    between atoms: C_9  and  C_11 
REMARK    5  A    between atoms: C_9  and  O_10 
REMARK       I    between atoms: C_11  and  N_12 
REMARK    6  A    between atoms: N_12  and  C_13 
REMARK    7  A    between atoms: C_13  and  C_14 
ROOT
HETATM    1  N   UNL     1     -35.036  40.958 -54.012  1.00  0.00    -0.254 N 
HETATM    2  C   UNL     1     -33.815  40.128 -54.008  1.00  0.00     0.256 C 
HETATM    3  C   UNL     1     -33.263  39.877 -52.617  1.00  0.00     0.034 A 
HETATM    4  C   UNL     1     -33.615  40.758 -51.601  1.00  0.00     0.048 A 
HETATM    5  N   UNL     1     -34.499  41.790 -51.881  1.00  0.00    -0.308 N 
HETATM    6  C   UNL     1     -35.212  41.929 -53.035  1.00  0.00     0.330 C 
HETATM    7  O   UNL     1     -36.011  42.864 -53.104  1.00  0.00    -0.246 OA
HETATM    8  C   UNL     1     -32.341  38.856 -52.322  1.00  0.00     0.015 A 
HETATM    9  C   UNL     1     -31.825  38.711 -51.031  1.00  0.00     0.001 A 
HETATM   10  C   UNL     1     -32.201  39.599 -50.027  1.00  0.00     0.002 A 
HETATM   11  C   UNL     1     -33.091  40.632 -50.313  1.00  0.00     0.030 A 
HETATM   12  H   UNL     1     -34.731  42.467 -51.165  1.00  0.00     0.170 HD
ENDROOT
BRANCH   2  13
HETATM   13  C   UNL     1     -33.990  38.747 -54.771  1.00  0.00     0.279 C 
HETATM   14  N   UNL     1     -33.554  38.778 -56.087  1.00  0.00    -0.352 N 
HETATM   15  H   UNL     1     -32.933  39.542 -56.338  1.00  0.00     0.162 HD
HETATM   16  O   UNL     1     -34.500  37.742 -54.275  1.00  0.00    -0.268 OA
BRANCH  14  17
HETATM   17  C   UNL     1     -33.585  37.600 -56.914  1.00  0.00     0.161 C 
BRANCH  17  18
HETATM   18  C   UNL     1     -34.676  37.704 -57.945  1.00  0.00    -0.038 A 
HETATM   19  C   UNL     1     -34.375  38.082 -59.263  1.00  0.00     0.048 A 
HETATM   20  C   UNL     1     -35.413  38.172 -60.167  1.00  0.00     0.105 A 
HETATM   21  C   UNL     1     -36.714  37.911 -59.807  1.00  0.00     0.105 A 
HETATM   22  O   UNL     1     -35.297  38.516 -61.478  1.00  0.00    -0.323 OA
HETATM   23  O   UNL     1     -37.579  38.054 -60.846  1.00  0.00    -0.323 OA
HETATM   24  C   UNL     1     -37.052  37.551 -58.521  1.00  0.00     0.040 A 
HETATM   25  C   UNL     1     -36.672  38.427 -61.905  1.00  0.00     0.352 A 
HETATM   26  C   UNL     1     -36.020  37.452 -57.582  1.00  0.00     0.012 A 
ENDBRANCH  17  18
ENDBRANCH  14  17
ENDBRANCH   2  13
BRANCH   2  27
HETATM   27  O   UNL     1     -32.798  40.892 -54.684  1.00  0.00    -0.359 OA
HETATM   28  H   UNL     1     -32.983  41.810 -54.428  1.00  0.00     0.213 HD
ENDBRANCH   2  27
BRANCH   1  29
HETATM   29  C   UNL     1     -35.789  41.070 -55.224  1.00  0.00     0.043 A 
HETATM   30  C   UNL     1     -35.308  41.814 -56.306  1.00  0.00     0.032 A 
HETATM   31  C   UNL     1     -36.048  41.899 -57.490  1.00  0.00     0.039 A 
HETATM   32  C   UNL     1     -37.288  41.265 -57.603  1.00  0.00     0.068 A 
HETATM   33  C   UNL     1     -37.785  40.551 -56.516  1.00  0.00     0.039 A 
HETATM   34  C   UNL     1     -37.044  40.463 -55.332  1.00  0.00     0.032 A 
BRANCH  32  35
HETATM   35  O   UNL     1     -37.909  41.428 -58.810  1.00  0.00    -0.352 OA
BRANCH  35  36
HETATM   36  C   UNL     1     -37.071  41.659 -59.942  1.00  0.00     0.171 C 
HETATM   37  C   UNL     1     -37.499  42.965 -60.587  1.00  0.00     0.034 C 
ENDBRANCH  35  36
ENDBRANCH  32  35
ENDBRANCH   1  29
TORSDOF 7
ENDMDL
MODEL 9
REMARK VINA RESULT:      -8.1      2.568      3.780
REMARK  7 active torsions:
REMARK  status: ('A' for Active; 'I' for Inactive)
REMARK    1  A    between atoms: C_2  and  O_3 
REMARK    2  A    between atoms: O_3  and  C_4 
REMARK    3  A    between atoms: C_7  and  N_8 
REMARK    4  A    between atoms: C_9  and  C_11 
REMARK    5  A    between atoms: C_9  and  O_10 
REMARK       I    between atoms: C_11  and  N_12 
REMARK    6  A    between atoms: N_12  and  C_13 
REMARK    7  A    between atoms: C_13  and  C_14 
ROOT
HETATM    1  N   UNL     1     -44.221  58.807 -54.298  1.00  0.00    -0.254 N 
HETATM    2  C   UNL     1     -43.750  57.419 -54.478  1.00  0.00     0.256 C 
HETATM    3  C   UNL     1     -43.653  57.002 -55.933  1.00  0.00     0.034 A 
HETATM    4  C   UNL     1     -44.405  57.702 -56.869  1.00  0.00     0.048 A 
HETATM    5  N   UNL     1     -45.162  58.787 -56.450  1.00  0.00    -0.308 N 
HETATM    6  C   UNL     1     -45.106  59.358 -55.213  1.00  0.00     0.330 C 
HETATM    7  O   UNL     1     -45.792  60.363 -55.017  1.00  0.00    -0.246 OA
HETATM    8  C   UNL     1     -42.918  55.885 -56.372  1.00  0.00     0.015 A 
HETATM    9  C   UNL     1     -42.914  55.517 -57.720  1.00  0.00     0.001 A 
HETATM   10  C   UNL     1     -43.665  56.241 -58.643  1.00  0.00     0.002 A 
HETATM   11  C   UNL     1     -44.421  57.332 -58.216  1.00  0.00     0.030 A 
HETATM   12  H   UNL     1     -45.749  59.280 -57.110  1.00  0.00     0.170 HD
ENDROOT
BRANCH   2  13
HETATM   13  C   UNL     1     -42.376  57.120 -53.743  1.00  0.00     0.279 C 
HETATM   14  N   UNL     1     -42.454  56.101 -52.805  1.00  0.00    -0.352 N 
HETATM   15  H   UNL     1     -43.256  55.483 -52.879  1.00  0.00     0.162 HD
HETATM   16  O   UNL     1     -41.335  57.747 -53.941  1.00  0.00    -0.268 OA
BRANCH  14  17
HETATM   17  C   UNL     1     -41.291  55.658 -52.082  1.00  0.00     0.161 C 
BRANCH  17  18
HETATM   18  C   UNL     1     -40.848  54.305 -52.567  1.00  0.00    -0.038 A 
HETATM   19  C   UNL     1     -40.504  53.298 -51.650  1.00  0.00     0.048 A 
HETATM   20  C   UNL     1     -40.094  52.079 -52.148  1.00  0.00     0.105 A 
HETATM   21  C   UNL     1     -40.010  51.836 -53.498  1.00  0.00     0.105 A 
HETATM   22  O   UNL     1     -39.734  50.999 -51.403  1.00  0.00    -0.323 OA
HETATM   23  O   UNL     1     -39.590  50.572 -53.773  1.00  0.00    -0.323 OA
HETATM   24  C   UNL     1     -40.325  52.802 -54.429  1.00  0.00     0.040 A 
HETATM   25  C   UNL     1     -39.427  50.044 -52.440  1.00  0.00     0.352 A 
HETATM   26  C   UNL     1     -40.744  54.049 -53.955  1.00  0.00     0.012 A 
ENDBRANCH  17  18
ENDBRANCH  14  17
ENDBRANCH   2  13
BRANCH   2  27
HETATM   27  O   UNL     1     -44.762  56.566 -53.909  1.00  0.00    -0.359 OA
HETATM   28  H   UNL     1     -44.360  55.683 -53.920  1.00  0.00     0.213 HD
ENDBRANCH   2  27
BRANCH   1  29
HETATM   29  C   UNL     1     -44.129  59.402 -52.999  1.00  0.00     0.043 A 
HETATM   30  C   UNL     1     -44.984  59.010 -51.963  1.00  0.00     0.032 A 
HETATM   31  C   UNL     1     -44.870  59.589 -50.695  1.00  0.00     0.039 A 
HETATM   32  C   UNL     1     -43.920  60.583 -50.448  1.00  0.00     0.068 A 
HETATM   33  C   UNL     1     -43.090  61.000 -51.486  1.00  0.00     0.039 A 
HETATM   34  C   UNL     1     -43.202  60.418 -52.754  1.00  0.00     0.032 A 
BRANCH  32  35
HETATM   35  O   UNL     1     -43.914  61.066 -49.169  1.00  0.00    -0.352 OA
BRANCH  35  36
HETATM   36  C   UNL     1     -45.176  61.177 -48.514  1.00  0.00     0.171 C 
HETATM   37  C   UNL     1     -44.927  61.624 -47.085  1.00  0.00     0.034 C 
ENDBRANCH  35  36
ENDBRANCH  32  35
ENDBRANCH   1  29
TORSDOF 7
ENDMDL
MODEL 10
REMARK VINA RESULT:      -8.1      2.830      4.206
REMARK  7 active torsions:
REMARK  status: ('A' for Active; 'I' for Inactive)
REMARK    1  A    between atoms: C_2  and  O_3 
REMARK    2  A    between atoms: O_3  and  C_4 
REMARK    3  A    between atoms: C_7  and  N_8 
REMARK    4  A    between atoms: C_9  and  C_11 
REMARK    5  A    between atoms: C_9  and  O_10 
REMARK       I    between atoms: C_11  and  N_12 
REMARK    6  A    between atoms: N_12  and  C_13 
REMARK    7  A    between atoms: C_13  and  C_14 
ROOT
HETATM    1  N   UNL     1     -43.526  58.676 -53.360  1.00  0.00    -0.254 N 
HETATM    2  C   UNL     1     -43.858  57.238 -53.320  1.00  0.00     0.256 C 
HETATM    3  C   UNL     1     -43.434  56.488 -54.569  1.00  0.00     0.034 A 
HETATM    4  C   UNL     1     -43.239  57.215 -55.737  1.00  0.00     0.048 A 
HETATM    5  N   UNL     1     -43.377  58.596 -55.703  1.00  0.00    -0.308 N 
HETATM    6  C   UNL     1     -43.518  59.347 -54.574  1.00  0.00     0.330 C 
HETATM    7  O   UNL     1     -43.559  60.572 -54.705  1.00  0.00    -0.246 OA
HETATM    8  C   UNL     1     -43.321  55.087 -54.631  1.00  0.00     0.015 A 
HETATM    9  C   UNL     1     -42.981  54.450 -55.828  1.00  0.00     0.001 A 
HETATM   10  C   UNL     1     -42.779  55.201 -56.983  1.00  0.00     0.002 A 
HETATM   11  C   UNL     1     -42.917  56.587 -56.942  1.00  0.00     0.030 A 
HETATM   12  H   UNL     1     -43.283  59.136 -56.553  1.00  0.00     0.170 HD
ENDROOT
BRANCH   2  13
HETATM   13  C   UNL     1     -43.294  56.497 -52.034  1.00  0.00     0.279 C 
HETATM   14  N   UNL     1     -41.932  56.242 -52.090  1.00  0.00    -0.352 N 
HETATM   15  H   UNL     1     -41.401  56.778 -52.770  1.00  0.00     0.162 HD
HETATM   16  O   UNL     1     -43.988  56.137 -51.083  1.00  0.00    -0.268 OA
BRANCH  14  17
HETATM   17  C   UNL     1     -41.240  55.626 -50.988  1.00  0.00     0.161 C 
BRANCH  17  18
HETATM   18  C   UNL     1     -40.768  54.247 -51.361  1.00  0.00    -0.038 A 
HETATM   19  C   UNL     1     -40.681  53.867 -52.710  1.00  0.00     0.048 A 
HETATM   20  C   UNL     1     -40.251  52.588 -52.997  1.00  0.00     0.105 A 
HETATM   21  C   UNL     1     -39.920  51.693 -52.008  1.00  0.00     0.105 A 
HETATM   22  O   UNL     1     -40.103  52.063 -54.243  1.00  0.00    -0.323 OA
HETATM   23  O   UNL     1     -39.519  50.493 -52.506  1.00  0.00    -0.323 OA
HETATM   24  C   UNL     1     -40.006  52.023 -50.673  1.00  0.00     0.040 A 
HETATM   25  C   UNL     1     -39.628  50.738 -53.924  1.00  0.00     0.352 A 
HETATM   26  C   UNL     1     -40.439  53.314 -50.350  1.00  0.00     0.012 A 
ENDBRANCH  17  18
ENDBRANCH  14  17
ENDBRANCH   2  13
BRANCH   2  27
HETATM   27  O   UNL     1     -45.296  57.150 -53.298  1.00  0.00    -0.359 OA
HETATM   28  H   UNL     1     -45.497  56.777 -52.425  1.00  0.00     0.213 HD
ENDBRANCH   2  27
BRANCH   1  29
HETATM   29  C   UNL     1     -43.651  59.445 -52.159  1.00  0.00     0.043 A 
HETATM   30  C   UNL     1     -42.521  59.900 -51.471  1.00  0.00     0.032 A 
HETATM   31  C   UNL     1     -42.661  60.664 -50.309  1.00  0.00     0.039 A 
HETATM   32  C   UNL     1     -43.927  60.967 -49.802  1.00  0.00     0.068 A 
HETATM   33  C   UNL     1     -45.054  60.487 -50.465  1.00  0.00     0.039 A 
HETATM   34  C   UNL     1     -44.915  59.725 -51.630  1.00  0.00     0.032 A 
BRANCH  32  35
HETATM   35  O   UNL     1     -43.925  61.719 -48.661  1.00  0.00    -0.352 OA
BRANCH  35  36
HETATM   36  C   UNL     1     -45.157  61.817 -47.949  1.00  0.00     0.171 C 
HETATM   37  C   UNL     1     -45.043  60.978 -46.690  1.00  0.00     0.034 C 
ENDBRANCH  35  36
ENDBRANCH  32  35
ENDBRANCH   1  29
TORSDOF 7
ENDMDL
