MODEL 1
REMARK VINA RESULT:      -9.0      0.000      0.000
REMARK  5 active torsions:
REMARK  status: ('A' for Active; 'I' for Inactive)
REMARK    1  A    between atoms: C_4  and  O_5 
REMARK    2  A    between atoms: O_5  and  C_6 
REMARK    3  A    between atoms: C_6  and  C_7 
REMARK       I    between atoms: C_7  and  N_8 
REMARK    4  A    between atoms: N_8  and  C_9 
REMARK    5  A    between atoms: C_12  and  C_13 
ROOT
HETATM    1  C   UNL     1     -43.450  56.214 -58.208  1.00  0.00     0.034 A 
HETATM    2  C   UNL     1     -43.961  57.508 -58.072  1.00  0.00     0.030 A 
HETATM    3  C   UNL     1     -45.018  57.949 -58.877  1.00  0.00     0.017 A 
HETATM    4  C   UNL     1     -45.579  57.097 -59.831  1.00  0.00     0.010 A 
HETATM    5  C   UNL     1     -45.039  55.820 -60.012  1.00  0.00     0.017 A 
HETATM    6  C   UNL     1     -43.986  55.381 -59.199  1.00  0.00     0.030 A 
ENDROOT
BRANCH   1   7
HETATM    7  N   UNL     1     -42.437  55.688 -57.380  1.00  0.00    -0.325 N 
HETATM    8  C   UNL     1     -42.553  55.302 -56.057  1.00  0.00     0.246 C 
HETATM    9  O   UNL     1     -43.544  55.439 -55.341  1.00  0.00    -0.271 OA
HETATM   10  H   UNL     1     -41.526  55.526 -57.799  1.00  0.00     0.169 HD
BRANCH   8  11
HETATM   11  C   UNL     1     -41.284  54.674 -55.479  1.00  0.00     0.278 C 
BRANCH  11  12
HETATM   12  O   UNL     1     -41.297  54.575 -54.059  1.00  0.00    -0.342 OA
BRANCH  12  13
HETATM   13  C   UNL     1     -40.728  53.440 -53.540  1.00  0.00     0.069 A 
HETATM   14  C   UNL     1     -40.468  52.259 -54.245  1.00  0.00     0.043 A 
HETATM   15  C   UNL     1     -39.865  51.161 -53.611  1.00  0.00    -0.059 A 
HETATM   16  C   UNL     1     -39.543  49.915 -54.384  1.00  0.00     0.048 C 
HETATM   17  C   UNL     1     -39.514  51.261 -52.261  1.00  0.00     0.007 A 
HETATM   18  C   UNL     1     -39.783  52.429 -51.549  1.00  0.00     0.003 A 
HETATM   19  C   UNL     1     -40.391  53.511 -52.187  1.00  0.00     0.037 A 
ENDBRANCH  12  13
ENDBRANCH  11  12
ENDBRANCH   8  11
ENDBRANCH   1   7
BRANCH   4  20
HETATM   20  C   UNL     1     -46.752  57.522 -60.636  1.00  0.00     0.141 A 
HETATM   21  N   UNL     1     -47.266  58.704 -60.511  1.00  0.00    -0.230 NA
HETATM   22  C   UNL     1     -48.376  59.032 -61.313  1.00  0.00     0.074 A 
HETATM   23  C   UNL     1     -48.913  58.152 -62.256  1.00  0.00     0.061 A 
HETATM   24  C   UNL     1     -48.973  60.286 -61.165  1.00  0.00     0.032 A 
HETATM   25  C   UNL     1     -48.275  56.835 -62.391  1.00  0.00     0.259 A 
HETATM   26  C   UNL     1     -50.012  58.503 -63.047  1.00  0.00     0.019 A 
HETATM   27  O   UNL     1     -48.644  56.007 -63.215  1.00  0.00    -0.267 OA
HETATM   28  N   UNL     1     -47.229  56.596 -61.539  1.00  0.00    -0.307 N 
HETATM   29  H   UNL     1     -46.771  55.706 -61.672  1.00  0.00     0.170 HD
HETATM   30  C   UNL     1     -50.594  59.759 -62.889  1.00  0.00     0.001 A 
HETATM   31  C   UNL     1     -50.076  60.648 -61.948  1.00  0.00     0.002 A 
ENDBRANCH   4  20
TORSDOF 5
ENDMDL
MODEL 2
REMARK VINA RESULT:      -8.8      3.027     10.755
REMARK  5 active torsions:
REMARK  status: ('A' for Active; 'I' for Inactive)
REMARK    1  A    between atoms: C_4  and  O_5 
REMARK    2  A    between atoms: O_5  and  C_6 
REMARK    3  A    between atoms: C_6  and  C_7 
REMARK       I    between atoms: C_7  and  N_8 
REMARK    4  A    between atoms: N_8  and  C_9 
REMARK    5  A    between atoms: C_12  and  C_13 
ROOT
HETATM    1  C   UNL     1     -42.827  57.243 -56.240  1.00  0.00     0.034 A 
HETATM    2  C   UNL     1     -42.086  57.506 -55.085  1.00  0.00     0.030 A 
HETATM    3  C   UNL     1     -41.577  56.460 -54.306  1.00  0.00     0.017 A 
HETATM    4  C   UNL     1     -41.805  55.132 -54.676  1.00  0.00     0.010 A 
HETATM    5  C   UNL     1     -42.591  54.858 -55.799  1.00  0.00     0.017 A 
HETATM    6  C   UNL     1     -43.092  55.909 -56.580  1.00  0.00     0.030 A 
ENDROOT
BRANCH   1   7
HETATM    7  N   UNL     1     -43.304  58.251 -57.104  1.00  0.00    -0.325 N 
HETATM    8  C   UNL     1     -42.662  58.777 -58.211  1.00  0.00     0.246 C 
HETATM    9  O   UNL     1     -41.517  58.521 -58.580  1.00  0.00    -0.271 OA
HETATM   10  H   UNL     1     -44.239  58.609 -56.935  1.00  0.00     0.169 HD
BRANCH   8  11
HETATM   11  C   UNL     1     -43.502  59.789 -58.992  1.00  0.00     0.278 C 
BRANCH  11  12
HETATM   12  O   UNL     1     -43.896  59.325 -60.278  1.00  0.00    -0.342 OA
BRANCH  12  13
HETATM   13  C   UNL     1     -44.743  58.246 -60.284  1.00  0.00     0.069 A 
HETATM   14  C   UNL     1     -44.354  56.901 -60.259  1.00  0.00     0.043 A 
HETATM   15  C   UNL     1     -45.312  55.876 -60.253  1.00  0.00    -0.059 A 
HETATM   16  C   UNL     1     -44.892  54.437 -60.175  1.00  0.00     0.048 C 
HETATM   17  C   UNL     1     -46.670  56.211 -60.263  1.00  0.00     0.007 A 
HETATM   18  C   UNL     1     -47.064  57.548 -60.302  1.00  0.00     0.003 A 
HETATM   19  C   UNL     1     -46.103  58.559 -60.317  1.00  0.00     0.037 A 
ENDBRANCH  12  13
ENDBRANCH  11  12
ENDBRANCH   8  11
ENDBRANCH   1   7
BRANCH   4  20
HETATM   20  C   UNL     1     -41.205  54.014 -53.906  1.00  0.00     0.141 A 
HETATM   21  N   UNL     1     -40.977  52.862 -54.451  1.00  0.00    -0.230 NA
HETATM   22  C   UNL     1     -40.401  51.853 -53.655  1.00  0.00     0.074 A 
HETATM   23  C   UNL     1     -40.036  52.060 -52.322  1.00  0.00     0.061 A 
HETATM   24  C   UNL     1     -40.186  50.590 -54.211  1.00  0.00     0.032 A 
HETATM   25  C   UNL     1     -40.278  53.393 -51.755  1.00  0.00     0.259 A 
HETATM   26  C   UNL     1     -39.459  51.045 -51.552  1.00  0.00     0.019 A 
HETATM   27  O   UNL     1     -39.958  53.688 -50.609  1.00  0.00    -0.267 OA
HETATM   28  N   UNL     1     -40.879  54.292 -52.596  1.00  0.00    -0.307 N 
HETATM   29  H   UNL     1     -40.998  55.218 -52.210  1.00  0.00     0.170 HD
HETATM   30  C   UNL     1     -39.248  49.791 -52.123  1.00  0.00     0.001 A 
HETATM   31  C   UNL     1     -39.613  49.564 -53.450  1.00  0.00     0.002 A 
ENDBRANCH   4  20
TORSDOF 5
ENDMDL
MODEL 3
REMARK VINA RESULT:      -8.7      7.925     12.201
REMARK  5 active torsions:
REMARK  status: ('A' for Active; 'I' for Inactive)
REMARK    1  A    between atoms: C_4  and  O_5 
REMARK    2  A    between atoms: O_5  and  C_6 
REMARK    3  A    between atoms: C_6  and  C_7 
REMARK       I    between atoms: C_7  and  N_8 
REMARK    4  A    between atoms: N_8  and  C_9 
REMARK    5  A    between atoms: C_12  and  C_13 
ROOT
HETATM    1  C   UNL     1     -43.643  58.702 -51.402  1.00  0.00     0.034 A 
HETATM    2  C   UNL     1     -44.289  57.640 -52.039  1.00  0.00     0.030 A 
HETATM    3  C   UNL     1     -43.638  56.417 -52.235  1.00  0.00     0.017 A 
HETATM    4  C   UNL     1     -42.324  56.242 -51.792  1.00  0.00     0.010 A 
HETATM    5  C   UNL     1     -41.650  57.315 -51.203  1.00  0.00     0.017 A 
HETATM    6  C   UNL     1     -42.310  58.535 -51.003  1.00  0.00     0.030 A 
ENDROOT
BRANCH   1   7
HETATM    7  N   UNL     1     -44.269  59.932 -51.112  1.00  0.00    -0.325 N 
HETATM    8  C   UNL     1     -45.360  60.143 -50.288  1.00  0.00     0.246 C 
HETATM    9  O   UNL     1     -46.035  59.276 -49.737  1.00  0.00    -0.271 OA
HETATM   10  H   UNL     1     -43.858  60.772 -51.509  1.00  0.00     0.169 HD
BRANCH   8  11
HETATM   11  C   UNL     1     -45.728  61.617 -50.109  1.00  0.00     0.278 C 
BRANCH  11  12
HETATM   12  O   UNL     1     -46.673  61.842 -49.070  1.00  0.00    -0.342 OA
BRANCH  12  13
HETATM   13  C   UNL     1     -46.146  62.232 -47.864  1.00  0.00     0.069 A 
HETATM   14  C   UNL     1     -45.591  61.382 -46.901  1.00  0.00     0.043 A 
HETATM   15  C   UNL     1     -45.066  61.897 -45.705  1.00  0.00    -0.059 A 
HETATM   16  C   UNL     1     -44.427  60.987 -44.697  1.00  0.00     0.048 C 
HETATM   17  C   UNL     1     -45.093  63.278 -45.487  1.00  0.00     0.007 A 
HETATM   18  C   UNL     1     -45.657  64.129 -46.436  1.00  0.00     0.003 A 
HETATM   19  C   UNL     1     -46.185  63.606 -47.617  1.00  0.00     0.037 A 
ENDBRANCH  12  13
ENDBRANCH  11  12
ENDBRANCH   8  11
ENDBRANCH   1   7
BRANCH   4  20
HETATM   20  C   UNL     1     -41.647  54.926 -51.919  1.00  0.00     0.141 A 
HETATM   21  N   UNL     1     -41.467  54.366 -53.072  1.00  0.00    -0.230 NA
HETATM   22  C   UNL     1     -40.813  53.120 -53.109  1.00  0.00     0.074 A 
HETATM   23  C   UNL     1     -40.323  52.490 -51.962  1.00  0.00     0.061 A 
HETATM   24  C   UNL     1     -40.645  52.477 -54.338  1.00  0.00     0.032 A 
HETATM   25  C   UNL     1     -40.516  53.179 -50.679  1.00  0.00     0.259 A 
HETATM   26  C   UNL     1     -39.670  51.255 -52.024  1.00  0.00     0.019 A 
HETATM   27  O   UNL     1     -40.089  52.730 -49.621  1.00  0.00    -0.267 OA
HETATM   28  N   UNL     1     -41.199  54.365 -50.742  1.00  0.00    -0.307 N 
HETATM   29  H   UNL     1     -41.286  54.850 -49.862  1.00  0.00     0.170 HD
HETATM   30  C   UNL     1     -39.508  50.629 -53.258  1.00  0.00     0.001 A 
HETATM   31  C   UNL     1     -39.996  51.239 -54.413  1.00  0.00     0.002 A 
ENDBRANCH   4  20
TORSDOF 5
ENDMDL
MODEL 4
REMARK VINA RESULT:      -8.7     16.981     22.879
REMARK  5 active torsions:
REMARK  status: ('A' for Active; 'I' for Inactive)
REMARK    1  A    between atoms: C_4  and  O_5 
REMARK    2  A    between atoms: O_5  and  C_6 
REMARK    3  A    between atoms: C_6  and  C_7 
REMARK       I    between atoms: C_7  and  N_8 
REMARK    4  A    between atoms: N_8  and  C_9 
REMARK    5  A    between atoms: C_12  and  C_13 
ROOT
HETATM    1  C   UNL     1     -33.917  40.542 -52.488  1.00  0.00     0.034 A 
HETATM    2  C   UNL     1     -34.734  40.014 -51.484  1.00  0.00     0.030 A 
HETATM    3  C   UNL     1     -34.199  39.642 -50.246  1.00  0.00     0.017 A 
HETATM    4  C   UNL     1     -32.833  39.795 -49.996  1.00  0.00     0.010 A 
HETATM    5  C   UNL     1     -31.998  40.271 -51.011  1.00  0.00     0.017 A 
HETATM    6  C   UNL     1     -32.540  40.649 -52.247  1.00  0.00     0.030 A 
ENDROOT
BRANCH   1   7
HETATM    7  N   UNL     1     -34.407  41.002 -53.728  1.00  0.00    -0.325 N 
HETATM    8  C   UNL     1     -35.298  42.038 -53.944  1.00  0.00     0.246 C 
HETATM    9  O   UNL     1     -35.893  42.680 -53.081  1.00  0.00    -0.271 OA
HETATM   10  H   UNL     1     -34.041  40.564 -54.568  1.00  0.00     0.169 HD
BRANCH   8  11
HETATM   11  C   UNL     1     -35.545  42.346 -55.422  1.00  0.00     0.278 C 
BRANCH  11  12
HETATM   12  O   UNL     1     -36.913  42.247 -55.800  1.00  0.00    -0.342 OA
BRANCH  12  13
HETATM   13  C   UNL     1     -37.154  41.601 -56.986  1.00  0.00     0.069 A 
HETATM   14  C   UNL     1     -37.603  40.282 -57.122  1.00  0.00     0.043 A 
HETATM   15  C   UNL     1     -37.832  39.729 -58.391  1.00  0.00    -0.059 A 
HETATM   16  C   UNL     1     -38.361  38.331 -58.532  1.00  0.00     0.048 C 
HETATM   17  C   UNL     1     -37.614  40.514 -59.528  1.00  0.00     0.007 A 
HETATM   18  C   UNL     1     -37.153  41.823 -59.400  1.00  0.00     0.003 A 
HETATM   19  C   UNL     1     -36.921  42.362 -58.134  1.00  0.00     0.037 A 
ENDBRANCH  12  13
ENDBRANCH  11  12
ENDBRANCH   8  11
ENDBRANCH   1   7
BRANCH   4  20
HETATM   20  C   UNL     1     -32.264  39.481 -48.661  1.00  0.00     0.141 A 
HETATM   21  N   UNL     1     -31.346  40.220 -48.125  1.00  0.00    -0.230 NA
HETATM   22  C   UNL     1     -30.860  39.857 -46.854  1.00  0.00     0.074 A 
HETATM   23  C   UNL     1     -31.355  38.762 -46.141  1.00  0.00     0.061 A 
HETATM   24  C   UNL     1     -29.840  40.616 -46.275  1.00  0.00     0.032 A 
HETATM   25  C   UNL     1     -32.423  37.973 -46.770  1.00  0.00     0.259 A 
HETATM   26  C   UNL     1     -30.863  38.425 -44.876  1.00  0.00     0.019 A 
HETATM   27  O   UNL     1     -32.952  37.019 -46.212  1.00  0.00    -0.267 OA
HETATM   28  N   UNL     1     -32.798  38.381 -48.023  1.00  0.00    -0.307 N 
HETATM   29  H   UNL     1     -33.563  37.860 -48.426  1.00  0.00     0.170 HD
HETATM   30  C   UNL     1     -29.847  39.194 -44.312  1.00  0.00     0.001 A 
HETATM   31  C   UNL     1     -29.335  40.287 -45.012  1.00  0.00     0.002 A 
ENDBRANCH   4  20
TORSDOF 5
ENDMDL
MODEL 5
REMARK VINA RESULT:      -8.5     16.886     23.249
REMARK  5 active torsions:
REMARK  status: ('A' for Active; 'I' for Inactive)
REMARK    1  A    between atoms: C_4  and  O_5 
REMARK    2  A    between atoms: O_5  and  C_6 
REMARK    3  A    between atoms: C_6  and  C_7 
REMARK       I    between atoms: C_7  and  N_8 
REMARK    4  A    between atoms: N_8  and  C_9 
REMARK    5  A    between atoms: C_12  and  C_13 
ROOT
HETATM    1  C   UNL     1     -33.940  40.174 -51.965  1.00  0.00     0.034 A 
HETATM    2  C   UNL     1     -34.654  39.612 -50.904  1.00  0.00     0.030 A 
HETATM    3  C   UNL     1     -34.032  39.350 -49.679  1.00  0.00     0.017 A 
HETATM    4  C   UNL     1     -32.679  39.651 -49.499  1.00  0.00     0.010 A 
HETATM    5  C   UNL     1     -31.942  40.163 -50.570  1.00  0.00     0.017 A 
HETATM    6  C   UNL     1     -32.572  40.429 -51.794  1.00  0.00     0.030 A 
ENDROOT
BRANCH   1   7
HETATM    7  N   UNL     1     -34.527  40.527 -53.198  1.00  0.00    -0.325 N 
HETATM    8  C   UNL     1     -35.237  41.678 -53.489  1.00  0.00     0.246 C 
HETATM    9  O   UNL     1     -35.561  42.556 -52.690  1.00  0.00    -0.271 OA
HETATM   10  H   UNL     1     -34.384  39.898 -53.982  1.00  0.00     0.169 HD
BRANCH   8  11
HETATM   11  C   UNL     1     -35.653  41.798 -54.956  1.00  0.00     0.278 C 
BRANCH  11  12
HETATM   12  O   UNL     1     -36.977  41.343 -55.207  1.00  0.00    -0.342 OA
BRANCH  12  13
HETATM   13  C   UNL     1     -37.270  41.069 -56.519  1.00  0.00     0.069 A 
HETATM   14  C   UNL     1     -37.160  41.969 -57.586  1.00  0.00     0.043 A 
HETATM   15  C   UNL     1     -37.475  41.572 -58.895  1.00  0.00    -0.059 A 
HETATM   16  C   UNL     1     -37.307  42.525 -60.044  1.00  0.00     0.048 C 
HETATM   17  C   UNL     1     -37.894  40.259 -59.129  1.00  0.00     0.007 A 
HETATM   18  C   UNL     1     -38.020  39.362 -58.069  1.00  0.00     0.003 A 
HETATM   19  C   UNL     1     -37.713  39.769 -56.769  1.00  0.00     0.037 A 
ENDBRANCH  12  13
ENDBRANCH  11  12
ENDBRANCH   8  11
ENDBRANCH   1   7
BRANCH   4  20
HETATM   20  C   UNL     1     -32.024  39.455 -48.181  1.00  0.00     0.141 A 
HETATM   21  N   UNL     1     -32.387  38.505 -47.379  1.00  0.00    -0.230 NA
HETATM   22  C   UNL     1     -31.714  38.383 -46.148  1.00  0.00     0.074 A 
HETATM   23  C   UNL     1     -30.655  39.217 -45.781  1.00  0.00     0.061 A 
HETATM   24  C   UNL     1     -32.116  37.391 -45.250  1.00  0.00     0.032 A 
HETATM   25  C   UNL     1     -30.252  40.258 -46.736  1.00  0.00     0.259 A 
HETATM   26  C   UNL     1     -29.997  39.073 -44.555  1.00  0.00     0.019 A 
HETATM   27  O   UNL     1     -29.311  41.015 -46.526  1.00  0.00    -0.267 OA
HETATM   28  N   UNL     1     -30.994  40.322 -47.886  1.00  0.00    -0.307 N 
HETATM   29  H   UNL     1     -30.679  41.011 -48.554  1.00  0.00     0.170 HD
HETATM   30  C   UNL     1     -30.409  38.077 -43.672  1.00  0.00     0.001 A 
HETATM   31  C   UNL     1     -31.468  37.239 -44.019  1.00  0.00     0.002 A 
ENDBRANCH   4  20
TORSDOF 5
ENDMDL
MODEL 6
REMARK VINA RESULT:      -8.4      7.643      9.756
REMARK  5 active torsions:
REMARK  status: ('A' for Active; 'I' for Inactive)
REMARK    1  A    between atoms: C_4  and  O_5 
REMARK    2  A    between atoms: O_5  and  C_6 
REMARK    3  A    between atoms: C_6  and  C_7 
REMARK       I    between atoms: C_7  and  N_8 
REMARK    4  A    between atoms: N_8  and  C_9 
REMARK    5  A    between atoms: C_12  and  C_13 
ROOT
HETATM    1  C   UNL     1     -43.003  58.023 -51.877  1.00  0.00     0.034 A 
HETATM    2  C   UNL     1     -42.442  59.237 -51.472  1.00  0.00     0.030 A 
HETATM    3  C   UNL     1     -43.218  60.205 -50.825  1.00  0.00     0.017 A 
HETATM    4  C   UNL     1     -44.572  59.968 -50.574  1.00  0.00     0.010 A 
HETATM    5  C   UNL     1     -45.156  58.780 -51.024  1.00  0.00     0.017 A 
HETATM    6  C   UNL     1     -44.372  57.811 -51.665  1.00  0.00     0.030 A 
ENDROOT
BRANCH   1   7
HETATM    7  N   UNL     1     -42.258  56.981 -52.468  1.00  0.00    -0.325 N 
HETATM    8  C   UNL     1     -41.690  56.969 -53.729  1.00  0.00     0.246 C 
HETATM    9  O   UNL     1     -41.816  57.834 -54.594  1.00  0.00    -0.271 OA
HETATM   10  H   UNL     1     -42.071  56.159 -51.902  1.00  0.00     0.169 HD
BRANCH   8  11
HETATM   11  C   UNL     1     -40.858  55.719 -54.024  1.00  0.00     0.278 C 
BRANCH  11  12
HETATM   12  O   UNL     1     -41.611  54.513 -53.966  1.00  0.00    -0.342 OA
BRANCH  12  13
HETATM   13  C   UNL     1     -40.934  53.415 -53.497  1.00  0.00     0.069 A 
HETATM   14  C   UNL     1     -40.660  52.252 -54.225  1.00  0.00     0.043 A 
HETATM   15  C   UNL     1     -39.943  51.193 -53.645  1.00  0.00    -0.059 A 
HETATM   16  C   UNL     1     -39.608  49.968 -54.446  1.00  0.00     0.048 C 
HETATM   17  C   UNL     1     -39.494  51.315 -52.327  1.00  0.00     0.007 A 
HETATM   18  C   UNL     1     -39.776  52.465 -51.591  1.00  0.00     0.003 A 
HETATM   19  C   UNL     1     -40.497  53.508 -52.174  1.00  0.00     0.037 A 
ENDBRANCH  12  13
ENDBRANCH  11  12
ENDBRANCH   8  11
ENDBRANCH   1   7
BRANCH   4  20
HETATM   20  C   UNL     1     -45.390  60.950 -49.817  1.00  0.00     0.141 A 
HETATM   21  N   UNL     1     -45.336  61.023 -48.526  1.00  0.00    -0.230 NA
HETATM   22  C   UNL     1     -46.140  61.984 -47.882  1.00  0.00     0.074 A 
HETATM   23  C   UNL     1     -46.954  62.878 -48.581  1.00  0.00     0.061 A 
HETATM   24  C   UNL     1     -46.130  62.052 -46.486  1.00  0.00     0.032 A 
HETATM   25  C   UNL     1     -46.956  62.784 -50.048  1.00  0.00     0.259 A 
HETATM   26  C   UNL     1     -47.739  63.829 -47.921  1.00  0.00     0.019 A 
HETATM   27  O   UNL     1     -47.605  63.547 -50.755  1.00  0.00    -0.267 OA
HETATM   28  N   UNL     1     -46.174  61.792 -50.577  1.00  0.00    -0.307 N 
HETATM   29  H   UNL     1     -46.148  61.767 -51.586  1.00  0.00     0.170 HD
HETATM   30  C   UNL     1     -47.715  63.885 -46.529  1.00  0.00     0.001 A 
HETATM   31  C   UNL     1     -46.913  62.997 -45.813  1.00  0.00     0.002 A 
ENDBRANCH   4  20
TORSDOF 5
ENDMDL
MODEL 7
REMARK VINA RESULT:      -8.3      7.473     11.851
REMARK  5 active torsions:
REMARK  status: ('A' for Active; 'I' for Inactive)
REMARK    1  A    between atoms: C_4  and  O_5 
REMARK    2  A    between atoms: O_5  and  C_6 
REMARK    3  A    between atoms: C_6  and  C_7 
REMARK       I    between atoms: C_7  and  N_8 
REMARK    4  A    between atoms: N_8  and  C_9 
REMARK    5  A    between atoms: C_12  and  C_13 
ROOT
HETATM    1  C   UNL     1     -42.467  59.219 -50.644  1.00  0.00     0.034 A 
HETATM    2  C   UNL     1     -41.173  58.710 -50.508  1.00  0.00     0.030 A 
HETATM    3  C   UNL     1     -40.830  57.468 -51.053  1.00  0.00     0.017 A 
HETATM    4  C   UNL     1     -41.782  56.717 -51.747  1.00  0.00     0.010 A 
HETATM    5  C   UNL     1     -43.093  57.191 -51.843  1.00  0.00     0.017 A 
HETATM    6  C   UNL     1     -43.430  58.439 -51.300  1.00  0.00     0.030 A 
ENDROOT
BRANCH   1   7
HETATM    7  N   UNL     1     -42.855  60.493 -50.181  1.00  0.00    -0.325 N 
HETATM    8  C   UNL     1     -43.207  61.591 -50.945  1.00  0.00     0.246 C 
HETATM    9  O   UNL     1     -43.150  61.674 -52.171  1.00  0.00    -0.271 OA
HETATM   10  H   UNL     1     -42.933  60.622 -49.176  1.00  0.00     0.169 HD
BRANCH   8  11
HETATM   11  C   UNL     1     -43.675  62.794 -50.125  1.00  0.00     0.278 C 
BRANCH  11  12
HETATM   12  O   UNL     1     -44.957  62.612 -49.535  1.00  0.00    -0.342 OA
BRANCH  12  13
HETATM   13  C   UNL     1     -44.980  62.591 -48.163  1.00  0.00     0.069 A 
HETATM   14  C   UNL     1     -44.993  63.715 -47.329  1.00  0.00     0.043 A 
HETATM   15  C   UNL     1     -45.032  63.574 -45.933  1.00  0.00    -0.059 A 
HETATM   16  C   UNL     1     -45.097  64.782 -45.044  1.00  0.00     0.048 C 
HETATM   17  C   UNL     1     -45.066  62.291 -45.377  1.00  0.00     0.007 A 
HETATM   18  C   UNL     1     -45.038  61.167 -46.202  1.00  0.00     0.003 A 
HETATM   19  C   UNL     1     -44.991  61.319 -47.589  1.00  0.00     0.037 A 
ENDBRANCH  12  13
ENDBRANCH  11  12
ENDBRANCH   8  11
ENDBRANCH   1   7
BRANCH   4  20
HETATM   20  C   UNL     1     -41.412  55.436 -52.401  1.00  0.00     0.141 A 
HETATM   21  N   UNL     1     -40.770  54.510 -51.763  1.00  0.00    -0.230 NA
HETATM   22  C   UNL     1     -40.460  53.322 -52.452  1.00  0.00     0.074 A 
HETATM   23  C   UNL     1     -40.849  53.093 -53.774  1.00  0.00     0.061 A 
HETATM   24  C   UNL     1     -39.730  52.328 -51.796  1.00  0.00     0.032 A 
HETATM   25  C   UNL     1     -41.608  54.155 -54.449  1.00  0.00     0.259 A 
HETATM   26  C   UNL     1     -40.535  51.902 -54.437  1.00  0.00     0.019 A 
HETATM   27  O   UNL     1     -42.030  54.037 -55.594  1.00  0.00    -0.267 OA
HETATM   28  N   UNL     1     -41.824  55.288 -53.708  1.00  0.00    -0.307 N 
HETATM   29  H   UNL     1     -42.386  55.991 -54.166  1.00  0.00     0.170 HD
HETATM   30  C   UNL     1     -39.810  50.919 -53.767  1.00  0.00     0.001 A 
HETATM   31  C   UNL     1     -39.407  51.133 -52.449  1.00  0.00     0.002 A 
ENDBRANCH   4  20
TORSDOF 5
ENDMDL
MODEL 8
REMARK VINA RESULT:      -8.2      4.711     11.541
REMARK  5 active torsions:
REMARK  status: ('A' for Active; 'I' for Inactive)
REMARK    1  A    between atoms: C_4  and  O_5 
REMARK    2  A    between atoms: O_5  and  C_6 
REMARK    3  A    between atoms: C_6  and  C_7 
REMARK       I    between atoms: C_7  and  N_8 
REMARK    4  A    between atoms: N_8  and  C_9 
REMARK    5  A    between atoms: C_12  and  C_13 
ROOT
HETATM    1  C   UNL     1     -42.353  57.100 -56.090  1.00  0.00     0.034 A 
HETATM    2  C   UNL     1     -42.673  55.781 -56.425  1.00  0.00     0.030 A 
HETATM    3  C   UNL     1     -42.185  54.710 -55.668  1.00  0.00     0.017 A 
HETATM    4  C   UNL     1     -41.368  54.947 -54.559  1.00  0.00     0.010 A 
HETATM    5  C   UNL     1     -40.998  56.258 -54.248  1.00  0.00     0.017 A 
HETATM    6  C   UNL     1     -41.495  57.328 -55.005  1.00  0.00     0.030 A 
ENDROOT
BRANCH   1   7
HETATM    7  N   UNL     1     -42.871  58.222 -56.768  1.00  0.00    -0.325 N 
HETATM    8  C   UNL     1     -42.547  58.653 -58.043  1.00  0.00     0.246 C 
HETATM    9  O   UNL     1     -41.677  58.181 -58.772  1.00  0.00    -0.271 OA
HETATM   10  H   UNL     1     -43.595  58.760 -56.302  1.00  0.00     0.169 HD
BRANCH   8  11
HETATM   11  C   UNL     1     -43.368  59.852 -58.520  1.00  0.00     0.278 C 
BRANCH  11  12
HETATM   12  O   UNL     1     -42.817  61.105 -58.132  1.00  0.00    -0.342 OA
BRANCH  12  13
HETATM   13  C   UNL     1     -41.904  61.646 -59.002  1.00  0.00     0.069 A 
HETATM   14  C   UNL     1     -42.057  61.747 -60.389  1.00  0.00     0.043 A 
HETATM   15  C   UNL     1     -41.059  62.335 -61.181  1.00  0.00    -0.059 A 
HETATM   16  C   UNL     1     -41.249  62.488 -62.663  1.00  0.00     0.048 C 
HETATM   17  C   UNL     1     -39.904  62.831 -60.567  1.00  0.00     0.007 A 
HETATM   18  C   UNL     1     -39.739  62.721 -59.187  1.00  0.00     0.003 A 
HETATM   19  C   UNL     1     -40.734  62.126 -58.410  1.00  0.00     0.037 A 
ENDBRANCH  12  13
ENDBRANCH  11  12
ENDBRANCH   8  11
ENDBRANCH   1   7
BRANCH   4  20
HETATM   20  C   UNL     1     -40.909  53.827 -53.699  1.00  0.00     0.141 A 
HETATM   21  N   UNL     1     -40.638  52.661 -54.192  1.00  0.00    -0.230 NA
HETATM   22  C   UNL     1     -40.205  51.652 -53.310  1.00  0.00     0.074 A 
HETATM   23  C   UNL     1     -40.022  51.873 -51.943  1.00  0.00     0.061 A 
HETATM   24  C   UNL     1     -39.948  50.375 -53.814  1.00  0.00     0.032 A 
HETATM   25  C   UNL     1     -40.305  53.221 -51.432  1.00  0.00     0.259 A 
HETATM   26  C   UNL     1     -39.584  50.857 -51.087  1.00  0.00     0.019 A 
HETATM   27  O   UNL     1     -40.139  53.527 -50.257  1.00  0.00    -0.267 OA
HETATM   28  N   UNL     1     -40.760  54.120 -52.360  1.00  0.00    -0.307 N 
HETATM   29  H   UNL     1     -40.908  55.054 -52.007  1.00  0.00     0.170 HD
HETATM   30  C   UNL     1     -39.329  49.589 -51.606  1.00  0.00     0.001 A 
HETATM   31  C   UNL     1     -39.512  49.349 -52.968  1.00  0.00     0.002 A 
ENDBRANCH   4  20
TORSDOF 5
ENDMDL
MODEL 9
REMARK VINA RESULT:      -8.2      8.146     12.041
REMARK  5 active torsions:
REMARK  status: ('A' for Active; 'I' for Inactive)
REMARK    1  A    between atoms: C_4  and  O_5 
REMARK    2  A    between atoms: O_5  and  C_6 
REMARK    3  A    between atoms: C_6  and  C_7 
REMARK       I    between atoms: C_7  and  N_8 
REMARK    4  A    between atoms: N_8  and  C_9 
REMARK    5  A    between atoms: C_12  and  C_13 
ROOT
HETATM    1  C   UNL     1     -42.431  57.997 -51.299  1.00  0.00     0.034 A 
HETATM    2  C   UNL     1     -41.319  57.541 -50.586  1.00  0.00     0.030 A 
HETATM    3  C   UNL     1     -40.887  56.216 -50.702  1.00  0.00     0.017 A 
HETATM    4  C   UNL     1     -41.566  55.325 -51.538  1.00  0.00     0.010 A 
HETATM    5  C   UNL     1     -42.711  55.756 -52.213  1.00  0.00     0.017 A 
HETATM    6  C   UNL     1     -43.136  57.087 -52.099  1.00  0.00     0.030 A 
ENDROOT
BRANCH   1   7
HETATM    7  N   UNL     1     -42.872  59.337 -51.280  1.00  0.00    -0.325 N 
HETATM    8  C   UNL     1     -42.486  60.357 -52.131  1.00  0.00     0.246 C 
HETATM    9  O   UNL     1     -41.615  60.294 -52.998  1.00  0.00    -0.271 OA
HETATM   10  H   UNL     1     -43.585  59.587 -50.602  1.00  0.00     0.169 HD
BRANCH   8  11
HETATM   11  C   UNL     1     -43.232  61.672 -51.903  1.00  0.00     0.278 C 
BRANCH  11  12
HETATM   12  O   UNL     1     -43.058  62.202 -50.593  1.00  0.00    -0.342 OA
BRANCH  12  13
HETATM   13  C   UNL     1     -44.178  62.201 -49.800  1.00  0.00     0.069 A 
HETATM   14  C   UNL     1     -44.354  61.444 -48.636  1.00  0.00     0.043 A 
HETATM   15  C   UNL     1     -45.541  61.535 -47.893  1.00  0.00    -0.059 A 
HETATM   16  C   UNL     1     -45.706  60.760 -46.618  1.00  0.00     0.048 C 
HETATM   17  C   UNL     1     -46.551  62.402 -48.323  1.00  0.00     0.007 A 
HETATM   18  C   UNL     1     -46.388  63.148 -49.490  1.00  0.00     0.003 A 
HETATM   19  C   UNL     1     -45.207  63.043 -50.226  1.00  0.00     0.037 A 
ENDBRANCH  12  13
ENDBRANCH  11  12
ENDBRANCH   8  11
ENDBRANCH   1   7
BRANCH   4  20
HETATM   20  C   UNL     1     -41.073  53.938 -51.733  1.00  0.00     0.141 A 
HETATM   21  N   UNL     1     -40.802  53.476 -52.912  1.00  0.00    -0.230 NA
HETATM   22  C   UNL     1     -40.335  52.152 -53.014  1.00  0.00     0.074 A 
HETATM   23  C   UNL     1     -40.118  51.340 -51.898  1.00  0.00     0.061 A 
HETATM   24  C   UNL     1     -40.077  51.618 -54.279  1.00  0.00     0.032 A 
HETATM   25  C   UNL     1     -40.403  51.917 -50.577  1.00  0.00     0.259 A 
HETATM   26  C   UNL     1     -39.647  50.029 -52.023  1.00  0.00     0.019 A 
HETATM   27  O   UNL     1     -40.209  51.302 -49.535  1.00  0.00    -0.267 OA
HETATM   28  N   UNL     1     -40.892  53.197 -50.585  1.00  0.00    -0.307 N 
HETATM   29  H   UNL     1     -41.041  53.598 -49.671  1.00  0.00     0.170 HD
HETATM   30  C   UNL     1     -39.391  49.513 -53.292  1.00  0.00     0.001 A 
HETATM   31  C   UNL     1     -39.608  50.307 -54.418  1.00  0.00     0.002 A 
ENDBRANCH   4  20
TORSDOF 5
ENDMDL
MODEL 10
REMARK VINA RESULT:      -8.1      2.363     11.156
REMARK  5 active torsions:
REMARK  status: ('A' for Active; 'I' for Inactive)
REMARK    1  A    between atoms: C_4  and  O_5 
REMARK    2  A    between atoms: O_5  and  C_6 
REMARK    3  A    between atoms: C_6  and  C_7 
REMARK       I    between atoms: C_7  and  N_8 
REMARK    4  A    between atoms: N_8  and  C_9 
REMARK    5  A    between atoms: C_12  and  C_13 
ROOT
HETATM    1  C   UNL     1     -43.403  57.284 -57.018  1.00  0.00     0.034 A 
HETATM    2  C   UNL     1     -43.238  55.947 -57.386  1.00  0.00     0.030 A 
HETATM    3  C   UNL     1     -42.602  55.040 -56.530  1.00  0.00     0.017 A 
HETATM    4  C   UNL     1     -42.122  55.464 -55.288  1.00  0.00     0.010 A 
HETATM    5  C   UNL     1     -42.233  56.811 -54.933  1.00  0.00     0.017 A 
HETATM    6  C   UNL     1     -42.877  57.713 -55.791  1.00  0.00     0.030 A 
ENDROOT
BRANCH   1   7
HETATM    7  N   UNL     1     -44.097  58.228 -57.803  1.00  0.00    -0.325 N 
HETATM    8  C   UNL     1     -43.716  58.736 -59.032  1.00  0.00     0.246 C 
HETATM    9  O   UNL     1     -42.653  58.521 -59.612  1.00  0.00    -0.271 OA
HETATM   10  H   UNL     1     -45.000  58.546 -57.465  1.00  0.00     0.169 HD
BRANCH   8  11
HETATM   11  C   UNL     1     -44.750  59.669 -59.665  1.00  0.00     0.278 C 
BRANCH  11  12
HETATM   12  O   UNL     1     -46.088  59.376 -59.280  1.00  0.00    -0.342 OA
BRANCH  12  13
HETATM   13  C   UNL     1     -46.804  58.610 -60.165  1.00  0.00     0.069 A 
HETATM   14  C   UNL     1     -47.610  59.096 -61.201  1.00  0.00     0.043 A 
HETATM   15  C   UNL     1     -48.288  58.214 -62.057  1.00  0.00    -0.059 A 
HETATM   16  C   UNL     1     -49.111  58.738 -63.198  1.00  0.00     0.048 C 
HETATM   17  C   UNL     1     -48.143  56.836 -61.872  1.00  0.00     0.007 A 
HETATM   18  C   UNL     1     -47.353  56.345 -60.833  1.00  0.00     0.003 A 
HETATM   19  C   UNL     1     -46.690  57.231 -59.981  1.00  0.00     0.037 A 
ENDBRANCH  12  13
ENDBRANCH  11  12
ENDBRANCH   8  11
ENDBRANCH   1   7
BRANCH   4  20
HETATM   20  C   UNL     1     -41.518  54.498 -54.336  1.00  0.00     0.141 A 
HETATM   21  N   UNL     1     -41.137  53.321 -54.716  1.00  0.00    -0.230 NA
HETATM   22  C   UNL     1     -40.570  52.464 -53.753  1.00  0.00     0.074 A 
HETATM   23  C   UNL     1     -40.371  52.848 -52.424  1.00  0.00     0.061 A 
HETATM   24  C   UNL     1     -40.190  51.174 -54.131  1.00  0.00     0.032 A 
HETATM   25  C   UNL     1     -40.784  54.206 -52.045  1.00  0.00     0.259 A 
HETATM   26  C   UNL     1     -39.799  51.982 -51.487  1.00  0.00     0.019 A 
HETATM   27  O   UNL     1     -40.617  54.653 -50.916  1.00  0.00    -0.267 OA
HETATM   28  N   UNL     1     -41.362  54.947 -53.042  1.00  0.00    -0.307 N 
HETATM   29  H   UNL     1     -41.600  55.893 -52.781  1.00  0.00     0.170 HD
HETATM   30  C   UNL     1     -39.423  50.700 -51.881  1.00  0.00     0.001 A 
HETATM   31  C   UNL     1     -39.620  50.296 -53.202  1.00  0.00     0.002 A 
ENDBRANCH   4  20
TORSDOF 5
ENDMDL
