MODEL 1
REMARK VINA RESULT:      -9.8      0.000      0.000
REMARK  7 active torsions:
REMARK  status: ('A' for Active; 'I' for Inactive)
REMARK    1  A    between atoms: C_4  and  C_5 
REMARK    2  A    between atoms: C_5  and  C_6 
REMARK       I    between atoms: C_6  and  N_7 
REMARK    3  A    between atoms: N_7  and  C_8 
REMARK    4  A    between atoms: C_11  and  C_12 
REMARK       I    between atoms: C_12  and  N_13 
REMARK    5  A    between atoms: N_13  and  C_14 
REMARK    6  A    between atoms: C_15  and  C_16 
REMARK       I    between atoms: C_16  and  N_17 
REMARK    7  A    between atoms: N_20  and  C_21 
ROOT
HETATM    1  C   UNL     1     -42.341  60.334 -53.641  1.00  0.00     0.256 C 
HETATM    2  N   UNL     1     -43.148  60.324 -54.784  1.00  0.00    -0.322 N 
HETATM    3  O   UNL     1     -41.216  59.841 -53.587  1.00  0.00    -0.267 OA
HETATM    4  H   UNL     1     -44.128  60.190 -54.576  1.00  0.00     0.169 HD
ENDROOT
BRANCH   2   5
HETATM    5  C   UNL     1     -42.664  59.663 -55.941  1.00  0.00     0.050 C 
HETATM    6  C   UNL     1     -43.008  58.342 -56.307  1.00  0.00     0.059 C 
HETATM    7  C   UNL     1     -42.798  57.963 -57.643  1.00  0.00     0.019 C 
HETATM    8  C   UNL     1     -42.092  58.782 -58.530  1.00  0.00     0.001 C 
HETATM    9  C   UNL     1     -41.604  60.009 -58.101  1.00  0.00     0.002 C 
HETATM   10  C   UNL     1     -41.899  60.456 -56.815  1.00  0.00     0.030 C 
BRANCH   6  11
HETATM   11  C   UNL     1     -43.555  57.345 -55.313  1.00  0.00     0.256 C 
HETATM   12  N   UNL     1     -42.787  56.241 -54.888  1.00  0.00    -0.345 N 
HETATM   13  C   UNL     1     -41.388  55.951 -55.249  1.00  0.00     0.146 C 
HETATM   14  C   UNL     1     -43.541  55.103 -54.333  1.00  0.00     0.146 C 
HETATM   15  C   UNL     1     -40.637  55.066 -54.231  1.00  0.00     0.143 C 
HETATM   16  N   UNL     1     -41.447  53.874 -53.917  1.00  0.00    -0.378 N 
HETATM   17  C   UNL     1     -42.749  54.241 -53.334  1.00  0.00     0.143 C 
HETATM   18  O   UNL     1     -44.674  57.513 -54.829  1.00  0.00    -0.267 OA
BRANCH  16  19
HETATM   19  C   UNL     1     -40.742  52.791 -53.389  1.00  0.00     0.030 A 
HETATM   20  C   UNL     1     -40.306  52.721 -52.059  1.00  0.00     0.029 A 
HETATM   21  C   UNL     1     -39.645  51.589 -51.566  1.00  0.00     0.002 A 
HETATM   22  C   UNL     1     -39.412  50.496 -52.395  1.00  0.00     0.000 A 
HETATM   23  C   UNL     1     -39.838  50.537 -53.718  1.00  0.00     0.002 A 
HETATM   24  C   UNL     1     -40.492  51.672 -54.205  1.00  0.00     0.029 A 
ENDBRANCH  16  19
ENDBRANCH   6  11
ENDBRANCH   2   5
BRANCH   1  25
HETATM   25  C   UNL     1     -42.962  60.833 -52.375  1.00  0.00     0.032 A 
HETATM   26  C   UNL     1     -42.464  60.543 -51.101  1.00  0.00     0.019 A 
HETATM   27  C   UNL     1     -43.031  61.143 -49.964  1.00  0.00     0.030 A 
HETATM   28  C   UNL     1     -44.112  62.017 -50.083  1.00  0.00     0.034 A 
HETATM   29  C   UNL     1     -44.650  62.254 -51.352  1.00  0.00     0.030 A 
HETATM   30  C   UNL     1     -44.078  61.673 -52.486  1.00  0.00     0.019 A 
BRANCH  28  31
HETATM   31  N   UNL     1     -44.697  62.712 -49.006  1.00  0.00    -0.327 N 
HETATM   32  C   UNL     1     -45.823  62.358 -48.280  1.00  0.00     0.226 C 
HETATM   33  O   UNL     1     -46.559  61.400 -48.495  1.00  0.00    -0.273 OA
HETATM   34  H   UNL     1     -44.215  63.551 -48.710  1.00  0.00     0.169 HD
BRANCH  32  35
HETATM   35  C   UNL     1     -46.071  63.287 -47.098  1.00  0.00     0.141 C 
BRANCH  35  36
HETATM   36  C   UNL     1     -45.309  62.880 -45.864  1.00  0.00    -0.050 A 
HETATM   37  C   UNL     1     -44.915  61.545 -45.692  1.00  0.00     0.007 A 
HETATM   38  C   UNL     1     -44.212  61.157 -44.552  1.00  0.00     0.001 A 
HETATM   39  C   UNL     1     -43.902  62.094 -43.569  1.00  0.00     0.000 A 
HETATM   40  C   UNL     1     -44.295  63.422 -43.726  1.00  0.00     0.001 A 
HETATM   41  C   UNL     1     -44.995  63.815 -44.868  1.00  0.00     0.007 A 
ENDBRANCH  35  36
ENDBRANCH  32  35
ENDBRANCH  28  31
ENDBRANCH   1  25
TORSDOF 7
ENDMDL
MODEL 2
REMARK VINA RESULT:      -9.7      2.040      2.709
REMARK  7 active torsions:
REMARK  status: ('A' for Active; 'I' for Inactive)
REMARK    1  A    between atoms: C_4  and  C_5 
REMARK    2  A    between atoms: C_5  and  C_6 
REMARK       I    between atoms: C_6  and  N_7 
REMARK    3  A    between atoms: N_7  and  C_8 
REMARK    4  A    between atoms: C_11  and  C_12 
REMARK       I    between atoms: C_12  and  N_13 
REMARK    5  A    between atoms: N_13  and  C_14 
REMARK    6  A    between atoms: C_15  and  C_16 
REMARK       I    between atoms: C_16  and  N_17 
REMARK    7  A    between atoms: N_20  and  C_21 
ROOT
HETATM    1  C   UNL     1     -45.392  59.849 -54.777  1.00  0.00     0.256 C 
HETATM    2  N   UNL     1     -45.681  58.550 -55.205  1.00  0.00    -0.322 N 
HETATM    3  O   UNL     1     -45.016  60.754 -55.521  1.00  0.00    -0.267 OA
HETATM    4  H   UNL     1     -45.394  57.841 -54.544  1.00  0.00     0.169 HD
ENDROOT
BRANCH   2   5
HETATM    5  C   UNL     1     -45.483  58.236 -56.574  1.00  0.00     0.050 C 
HETATM    6  C   UNL     1     -44.299  57.673 -57.100  1.00  0.00     0.059 C 
HETATM    7  C   UNL     1     -44.379  57.048 -58.354  1.00  0.00     0.019 C 
HETATM    8  C   UNL     1     -45.526  57.150 -59.148  1.00  0.00     0.001 C 
HETATM    9  C   UNL     1     -46.625  57.862 -58.686  1.00  0.00     0.002 C 
HETATM   10  C   UNL     1     -46.611  58.393 -57.399  1.00  0.00     0.030 C 
BRANCH   6  11
HETATM   11  C   UNL     1     -42.976  57.751 -56.375  1.00  0.00     0.256 C 
HETATM   12  N   UNL     1     -42.478  56.652 -55.645  1.00  0.00    -0.345 N 
HETATM   13  C   UNL     1     -43.079  55.310 -55.553  1.00  0.00     0.146 C 
HETATM   14  C   UNL     1     -41.477  56.963 -54.609  1.00  0.00     0.146 C 
HETATM   15  C   UNL     1     -42.080  54.185 -55.210  1.00  0.00     0.143 C 
HETATM   16  N   UNL     1     -41.277  54.575 -54.035  1.00  0.00    -0.378 N 
HETATM   17  C   UNL     1     -40.511  55.809 -54.288  1.00  0.00     0.143 C 
HETATM   18  O   UNL     1     -42.295  58.774 -56.450  1.00  0.00    -0.267 OA
BRANCH  16  19
HETATM   19  C   UNL     1     -40.672  53.524 -53.344  1.00  0.00     0.030 A 
HETATM   20  C   UNL     1     -40.559  53.474 -51.948  1.00  0.00     0.029 A 
HETATM   21  C   UNL     1     -39.987  52.372 -51.301  1.00  0.00     0.002 A 
HETATM   22  C   UNL     1     -39.520  51.290 -52.040  1.00  0.00     0.000 A 
HETATM   23  C   UNL     1     -39.624  51.311 -53.426  1.00  0.00     0.002 A 
HETATM   24  C   UNL     1     -40.191  52.417 -54.065  1.00  0.00     0.029 A 
ENDBRANCH  16  19
ENDBRANCH   6  11
ENDBRANCH   2   5
BRANCH   1  25
HETATM   25  C   UNL     1     -45.388  60.094 -53.300  1.00  0.00     0.032 A 
HETATM   26  C   UNL     1     -46.274  60.964 -52.657  1.00  0.00     0.019 A 
HETATM   27  C   UNL     1     -46.288  61.053 -51.255  1.00  0.00     0.030 A 
HETATM   28  C   UNL     1     -45.404  60.296 -50.483  1.00  0.00     0.034 A 
HETATM   29  C   UNL     1     -44.475  59.477 -51.132  1.00  0.00     0.030 A 
HETATM   30  C   UNL     1     -44.471  59.372 -52.525  1.00  0.00     0.019 A 
BRANCH  28  31
HETATM   31  N   UNL     1     -45.395  60.274 -49.074  1.00  0.00    -0.327 N 
HETATM   32  C   UNL     1     -44.946  61.263 -48.214  1.00  0.00     0.226 C 
HETATM   33  O   UNL     1     -44.408  62.319 -48.533  1.00  0.00    -0.273 OA
HETATM   34  H   UNL     1     -45.794  59.450 -48.644  1.00  0.00     0.169 HD
BRANCH  32  35
HETATM   35  C   UNL     1     -45.225  60.936 -46.753  1.00  0.00     0.141 C 
BRANCH  35  36
HETATM   36  C   UNL     1     -45.761  62.113 -45.981  1.00  0.00    -0.050 A 
HETATM   37  C   UNL     1     -47.069  62.563 -46.209  1.00  0.00     0.007 A 
HETATM   38  C   UNL     1     -47.575  63.654 -45.503  1.00  0.00     0.001 A 
HETATM   39  C   UNL     1     -46.778  64.311 -44.568  1.00  0.00     0.000 A 
HETATM   40  C   UNL     1     -45.473  63.877 -44.339  1.00  0.00     0.001 A 
HETATM   41  C   UNL     1     -44.966  62.783 -45.041  1.00  0.00     0.007 A 
ENDBRANCH  35  36
ENDBRANCH  32  35
ENDBRANCH  28  31
ENDBRANCH   1  25
TORSDOF 7
ENDMDL
MODEL 3
REMARK VINA RESULT:      -9.5      6.523     10.346
REMARK  7 active torsions:
REMARK  status: ('A' for Active; 'I' for Inactive)
REMARK    1  A    between atoms: C_4  and  C_5 
REMARK    2  A    between atoms: C_5  and  C_6 
REMARK       I    between atoms: C_6  and  N_7 
REMARK    3  A    between atoms: N_7  and  C_8 
REMARK    4  A    between atoms: C_11  and  C_12 
REMARK       I    between atoms: C_12  and  N_13 
REMARK    5  A    between atoms: N_13  and  C_14 
REMARK    6  A    between atoms: C_15  and  C_16 
REMARK       I    between atoms: C_16  and  N_17 
REMARK    7  A    between atoms: N_20  and  C_21 
ROOT
HETATM    1  C   UNL     1     -44.075  57.042 -58.473  1.00  0.00     0.256 C 
HETATM    2  N   UNL     1     -45.353  57.503 -58.141  1.00  0.00    -0.322 N 
HETATM    3  O   UNL     1     -43.692  56.839 -59.624  1.00  0.00    -0.267 OA
HETATM    4  H   UNL     1     -45.720  57.082 -57.298  1.00  0.00     0.169 HD
ENDROOT
BRANCH   2   5
HETATM    5  C   UNL     1     -46.287  57.704 -59.190  1.00  0.00     0.050 C 
HETATM    6  C   UNL     1     -46.445  58.918 -59.895  1.00  0.00     0.059 C 
HETATM    7  C   UNL     1     -47.089  58.865 -61.141  1.00  0.00     0.019 C 
HETATM    8  C   UNL     1     -47.731  57.703 -61.581  1.00  0.00     0.001 C 
HETATM    9  C   UNL     1     -47.717  56.563 -60.789  1.00  0.00     0.002 C 
HETATM   10  C   UNL     1     -46.987  56.557 -59.603  1.00  0.00     0.030 C 
BRANCH   6  11
HETATM   11  C   UNL     1     -45.973  60.241 -59.340  1.00  0.00     0.256 C 
HETATM   12  N   UNL     1     -44.692  60.746 -59.646  1.00  0.00    -0.345 N 
HETATM   13  C   UNL     1     -43.707  60.151 -60.566  1.00  0.00     0.146 C 
HETATM   14  C   UNL     1     -44.150  61.747 -58.709  1.00  0.00     0.146 C 
HETATM   15  C   UNL     1     -42.694  61.155 -61.153  1.00  0.00     0.143 C 
HETATM   16  N   UNL     1     -42.104  61.958 -60.065  1.00  0.00    -0.378 N 
HETATM   17  C   UNL     1     -43.133  62.718 -59.333  1.00  0.00     0.143 C 
HETATM   18  O   UNL     1     -46.728  60.917 -58.641  1.00  0.00    -0.267 OA
BRANCH  16  19
HETATM   19  C   UNL     1     -40.884  62.569 -60.361  1.00  0.00     0.030 A 
HETATM   20  C   UNL     1     -40.371  62.691 -61.659  1.00  0.00     0.029 A 
HETATM   21  C   UNL     1     -39.165  63.357 -61.908  1.00  0.00     0.002 A 
HETATM   22  C   UNL     1     -38.448  63.924 -60.860  1.00  0.00     0.000 A 
HETATM   23  C   UNL     1     -38.936  63.823 -59.562  1.00  0.00     0.002 A 
HETATM   24  C   UNL     1     -40.138  63.151 -59.321  1.00  0.00     0.029 A 
ENDBRANCH  16  19
ENDBRANCH   6  11
ENDBRANCH   2   5
BRANCH   1  25
HETATM   25  C   UNL     1     -43.189  56.622 -57.342  1.00  0.00     0.032 A 
HETATM   26  C   UNL     1     -42.635  57.514 -56.419  1.00  0.00     0.019 A 
HETATM   27  C   UNL     1     -41.909  57.035 -55.317  1.00  0.00     0.030 A 
HETATM   28  C   UNL     1     -41.706  55.665 -55.137  1.00  0.00     0.034 A 
HETATM   29  C   UNL     1     -42.204  54.779 -56.097  1.00  0.00     0.030 A 
HETATM   30  C   UNL     1     -42.943  55.252 -57.185  1.00  0.00     0.019 A 
BRANCH  28  31
HETATM   31  N   UNL     1     -41.049  55.096 -54.028  1.00  0.00    -0.327 N 
HETATM   32  C   UNL     1     -41.603  54.332 -53.014  1.00  0.00     0.226 C 
HETATM   33  O   UNL     1     -42.793  54.072 -52.863  1.00  0.00    -0.273 OA
HETATM   34  H   UNL     1     -40.048  55.236 -53.991  1.00  0.00     0.169 HD
BRANCH  32  35
HETATM   35  C   UNL     1     -40.552  53.776 -52.062  1.00  0.00     0.141 C 
BRANCH  35  36
HETATM   36  C   UNL     1     -40.192  52.344 -52.360  1.00  0.00    -0.050 A 
HETATM   37  C   UNL     1     -40.216  51.876 -53.682  1.00  0.00     0.007 A 
HETATM   38  C   UNL     1     -39.887  50.552 -53.969  1.00  0.00     0.001 A 
HETATM   39  C   UNL     1     -39.540  49.679 -52.940  1.00  0.00     0.000 A 
HETATM   40  C   UNL     1     -39.520  50.132 -51.621  1.00  0.00     0.001 A 
HETATM   41  C   UNL     1     -39.844  51.458 -51.331  1.00  0.00     0.007 A 
ENDBRANCH  35  36
ENDBRANCH  32  35
ENDBRANCH  28  31
ENDBRANCH   1  25
TORSDOF 7
ENDMDL
MODEL 4
REMARK VINA RESULT:      -9.1      3.678      8.990
REMARK  7 active torsions:
REMARK  status: ('A' for Active; 'I' for Inactive)
REMARK    1  A    between atoms: C_4  and  C_5 
REMARK    2  A    between atoms: C_5  and  C_6 
REMARK       I    between atoms: C_6  and  N_7 
REMARK    3  A    between atoms: N_7  and  C_8 
REMARK    4  A    between atoms: C_11  and  C_12 
REMARK       I    between atoms: C_12  and  N_13 
REMARK    5  A    between atoms: N_13  and  C_14 
REMARK    6  A    between atoms: C_15  and  C_16 
REMARK       I    between atoms: C_16  and  N_17 
REMARK    7  A    between atoms: N_20  and  C_21 
ROOT
HETATM    1  C   UNL     1     -43.058  59.792 -52.579  1.00  0.00     0.256 C 
HETATM    2  N   UNL     1     -44.439  59.799 -52.798  1.00  0.00    -0.322 N 
HETATM    3  O   UNL     1     -42.376  60.807 -52.445  1.00  0.00    -0.267 OA
HETATM    4  H   UNL     1     -44.744  59.077 -53.437  1.00  0.00     0.169 HD
ENDROOT
BRANCH   2   5
HETATM    5  C   UNL     1     -45.092  61.052 -52.926  1.00  0.00     0.050 C 
HETATM    6  C   UNL     1     -45.213  61.768 -54.137  1.00  0.00     0.059 C 
HETATM    7  C   UNL     1     -46.205  62.760 -54.209  1.00  0.00     0.019 C 
HETATM    8  C   UNL     1     -46.910  63.168 -53.073  1.00  0.00     0.001 C 
HETATM    9  C   UNL     1     -46.651  62.571 -51.846  1.00  0.00     0.002 C 
HETATM   10  C   UNL     1     -45.755  61.508 -51.773  1.00  0.00     0.030 C 
BRANCH   6  11
HETATM   11  C   UNL     1     -44.304  61.519 -55.317  1.00  0.00     0.256 C 
HETATM   12  N   UNL     1     -44.484  60.395 -56.152  1.00  0.00    -0.345 N 
HETATM   13  C   UNL     1     -45.567  59.401 -56.069  1.00  0.00     0.146 C 
HETATM   14  C   UNL     1     -43.308  59.978 -56.937  1.00  0.00     0.146 C 
HETATM   15  C   UNL     1     -45.859  58.662 -57.392  1.00  0.00     0.143 C 
HETATM   16  N   UNL     1     -44.599  58.146 -57.960  1.00  0.00    -0.378 N 
HETATM   17  C   UNL     1     -43.645  59.233 -58.241  1.00  0.00     0.143 C 
HETATM   18  O   UNL     1     -43.415  62.325 -55.588  1.00  0.00    -0.267 OA
BRANCH  16  19
HETATM   19  C   UNL     1     -44.736  57.103 -58.877  1.00  0.00     0.030 A 
HETATM   20  C   UNL     1     -43.777  56.098 -59.062  1.00  0.00     0.029 A 
HETATM   21  C   UNL     1     -43.986  55.045 -59.961  1.00  0.00     0.002 A 
HETATM   22  C   UNL     1     -45.167  54.971 -60.693  1.00  0.00     0.000 A 
HETATM   23  C   UNL     1     -46.138  55.952 -60.526  1.00  0.00     0.002 A 
HETATM   24  C   UNL     1     -45.920  57.003 -59.630  1.00  0.00     0.029 A 
ENDBRANCH  16  19
ENDBRANCH   6  11
ENDBRANCH   2   5
BRANCH   1  25
HETATM   25  C   UNL     1     -42.361  58.472 -52.675  1.00  0.00     0.032 A 
HETATM   26  C   UNL     1     -42.612  57.398 -51.815  1.00  0.00     0.019 A 
HETATM   27  C   UNL     1     -42.003  56.152 -52.040  1.00  0.00     0.030 A 
HETATM   28  C   UNL     1     -41.122  55.971 -53.108  1.00  0.00     0.034 A 
HETATM   29  C   UNL     1     -40.822  57.064 -53.926  1.00  0.00     0.030 A 
HETATM   30  C   UNL     1     -41.439  58.299 -53.716  1.00  0.00     0.019 A 
BRANCH  28  31
HETATM   31  N   UNL     1     -40.521  54.742 -53.444  1.00  0.00    -0.327 N 
HETATM   32  C   UNL     1     -41.093  53.674 -54.117  1.00  0.00     0.226 C 
HETATM   33  O   UNL     1     -42.261  53.582 -54.482  1.00  0.00    -0.273 OA
HETATM   34  H   UNL     1     -39.546  54.645 -53.192  1.00  0.00     0.169 HD
BRANCH  32  35
HETATM   35  C   UNL     1     -40.088  52.570 -54.419  1.00  0.00     0.141 C 
BRANCH  35  36
HETATM   36  C   UNL     1     -39.920  51.602 -53.278  1.00  0.00    -0.050 A 
HETATM   37  C   UNL     1     -39.755  50.234 -53.537  1.00  0.00     0.007 A 
HETATM   38  C   UNL     1     -39.603  49.329 -52.487  1.00  0.00     0.001 A 
HETATM   39  C   UNL     1     -39.621  49.778 -51.169  1.00  0.00     0.000 A 
HETATM   40  C   UNL     1     -39.792  51.135 -50.899  1.00  0.00     0.001 A 
HETATM   41  C   UNL     1     -39.941  52.044 -51.948  1.00  0.00     0.007 A 
ENDBRANCH  35  36
ENDBRANCH  32  35
ENDBRANCH  28  31
ENDBRANCH   1  25
TORSDOF 7
ENDMDL
MODEL 5
REMARK VINA RESULT:      -9.1      3.870      8.846
REMARK  7 active torsions:
REMARK  status: ('A' for Active; 'I' for Inactive)
REMARK    1  A    between atoms: C_4  and  C_5 
REMARK    2  A    between atoms: C_5  and  C_6 
REMARK       I    between atoms: C_6  and  N_7 
REMARK    3  A    between atoms: N_7  and  C_8 
REMARK    4  A    between atoms: C_11  and  C_12 
REMARK       I    between atoms: C_12  and  N_13 
REMARK    5  A    between atoms: N_13  and  C_14 
REMARK    6  A    between atoms: C_15  and  C_16 
REMARK       I    between atoms: C_16  and  N_17 
REMARK    7  A    between atoms: N_20  and  C_21 
ROOT
HETATM    1  C   UNL     1     -44.022  59.906 -51.705  1.00  0.00     0.256 C 
HETATM    2  N   UNL     1     -45.255  59.755 -52.348  1.00  0.00    -0.322 N 
HETATM    3  O   UNL     1     -43.487  60.992 -51.485  1.00  0.00    -0.267 OA
HETATM    4  H   UNL     1     -45.288  58.951 -52.959  1.00  0.00     0.169 HD
ENDROOT
BRANCH   2   5
HETATM    5  C   UNL     1     -45.912  60.920 -52.821  1.00  0.00     0.050 C 
HETATM    6  C   UNL     1     -45.797  61.420 -54.137  1.00  0.00     0.059 C 
HETATM    7  C   UNL     1     -46.788  62.311 -54.581  1.00  0.00     0.019 C 
HETATM    8  C   UNL     1     -47.735  62.845 -53.702  1.00  0.00     0.001 C 
HETATM    9  C   UNL     1     -47.723  62.474 -52.364  1.00  0.00     0.002 C 
HETATM   10  C   UNL     1     -46.823  61.506 -51.925  1.00  0.00     0.030 C 
BRANCH   6  11
HETATM   11  C   UNL     1     -44.648  61.051 -55.044  1.00  0.00     0.256 C 
HETATM   12  N   UNL     1     -44.765  60.001 -55.980  1.00  0.00    -0.345 N 
HETATM   13  C   UNL     1     -45.973  59.209 -56.269  1.00  0.00     0.146 C 
HETATM   14  C   UNL     1     -43.500  59.409 -56.450  1.00  0.00     0.146 C 
HETATM   15  C   UNL     1     -45.999  58.573 -57.674  1.00  0.00     0.143 C 
HETATM   16  N   UNL     1     -44.730  57.861 -57.920  1.00  0.00    -0.378 N 
HETATM   17  C   UNL     1     -43.574  58.773 -57.849  1.00  0.00     0.143 C 
HETATM   18  O   UNL     1     -43.601  61.697 -55.003  1.00  0.00    -0.267 OA
BRANCH  16  19
HETATM   19  C   UNL     1     -44.771  56.886 -58.917  1.00  0.00     0.030 A 
HETATM   20  C   UNL     1     -43.783  55.907 -59.089  1.00  0.00     0.029 A 
HETATM   21  C   UNL     1     -43.897  54.920 -60.075  1.00  0.00     0.002 A 
HETATM   22  C   UNL     1     -45.010  54.887 -60.910  1.00  0.00     0.000 A 
HETATM   23  C   UNL     1     -46.007  55.843 -60.759  1.00  0.00     0.002 A 
HETATM   24  C   UNL     1     -45.884  56.829 -59.775  1.00  0.00     0.029 A 
ENDBRANCH  16  19
ENDBRANCH   6  11
ENDBRANCH   2   5
BRANCH   1  25
HETATM   25  C   UNL     1     -43.246  58.659 -51.421  1.00  0.00     0.032 A 
HETATM   26  C   UNL     1     -43.813  57.380 -51.404  1.00  0.00     0.019 A 
HETATM   27  C   UNL     1     -42.999  56.246 -51.244  1.00  0.00     0.030 A 
HETATM   28  C   UNL     1     -41.619  56.375 -51.077  1.00  0.00     0.034 A 
HETATM   29  C   UNL     1     -41.064  57.658 -51.028  1.00  0.00     0.030 A 
HETATM   30  C   UNL     1     -41.868  58.787 -51.204  1.00  0.00     0.019 A 
BRANCH  28  31
HETATM   31  N   UNL     1     -40.724  55.292 -50.977  1.00  0.00    -0.327 N 
HETATM   32  C   UNL     1     -41.026  53.940 -50.974  1.00  0.00     0.226 C 
HETATM   33  O   UNL     1     -42.148  53.442 -50.988  1.00  0.00    -0.273 OA
HETATM   34  H   UNL     1     -39.743  55.535 -50.936  1.00  0.00     0.169 HD
BRANCH  32  35
HETATM   35  C   UNL     1     -39.780  53.064 -50.990  1.00  0.00     0.141 C 
BRANCH  35  36
HETATM   36  C   UNL     1     -39.830  51.995 -52.050  1.00  0.00    -0.050 A 
HETATM   37  C   UNL     1     -40.138  52.335 -53.374  1.00  0.00     0.007 A 
HETATM   38  C   UNL     1     -40.190  51.353 -54.363  1.00  0.00     0.001 A 
HETATM   39  C   UNL     1     -39.944  50.021 -54.038  1.00  0.00     0.000 A 
HETATM   40  C   UNL     1     -39.644  49.670 -52.722  1.00  0.00     0.001 A 
HETATM   41  C   UNL     1     -39.587  50.651 -51.731  1.00  0.00     0.007 A 
ENDBRANCH  35  36
ENDBRANCH  32  35
ENDBRANCH  28  31
ENDBRANCH   1  25
TORSDOF 7
ENDMDL
MODEL 6
REMARK VINA RESULT:      -8.8      3.506      8.391
REMARK  7 active torsions:
REMARK  status: ('A' for Active; 'I' for Inactive)
REMARK    1  A    between atoms: C_4  and  C_5 
REMARK    2  A    between atoms: C_5  and  C_6 
REMARK       I    between atoms: C_6  and  N_7 
REMARK    3  A    between atoms: N_7  and  C_8 
REMARK    4  A    between atoms: C_11  and  C_12 
REMARK       I    between atoms: C_12  and  N_13 
REMARK    5  A    between atoms: N_13  and  C_14 
REMARK    6  A    between atoms: C_15  and  C_16 
REMARK       I    between atoms: C_16  and  N_17 
REMARK    7  A    between atoms: N_20  and  C_21 
ROOT
HETATM    1  C   UNL     1     -43.433  60.638 -51.243  1.00  0.00     0.256 C 
HETATM    2  N   UNL     1     -44.688  60.492 -51.842  1.00  0.00    -0.322 N 
HETATM    3  O   UNL     1     -42.942  61.720 -50.923  1.00  0.00    -0.267 OA
HETATM    4  H   UNL     1     -44.712  59.762 -52.540  1.00  0.00     0.169 HD
ENDROOT
BRANCH   2   5
HETATM    5  C   UNL     1     -45.426  61.664 -52.146  1.00  0.00     0.050 C 
HETATM    6  C   UNL     1     -45.291  62.403 -53.343  1.00  0.00     0.059 C 
HETATM    7  C   UNL     1     -46.336  63.274 -53.690  1.00  0.00     0.019 C 
HETATM    8  C   UNL     1     -47.374  63.559 -52.797  1.00  0.00     0.001 C 
HETATM    9  C   UNL     1     -47.397  62.954 -51.547  1.00  0.00     0.002 C 
HETATM   10  C   UNL     1     -46.434  62.000 -51.225  1.00  0.00     0.030 C 
BRANCH   6  11
HETATM   11  C   UNL     1     -44.066  62.301 -54.221  1.00  0.00     0.256 C 
HETATM   12  N   UNL     1     -43.902  61.228 -55.122  1.00  0.00    -0.345 N 
HETATM   13  C   UNL     1     -44.872  60.156 -55.402  1.00  0.00     0.146 C 
HETATM   14  C   UNL     1     -42.520  60.952 -55.554  1.00  0.00     0.146 C 
HETATM   15  C   UNL     1     -44.709  59.492 -56.785  1.00  0.00     0.143 C 
HETATM   16  N   UNL     1     -43.300  59.107 -56.988  1.00  0.00    -0.378 N 
HETATM   17  C   UNL     1     -42.405  60.277 -56.932  1.00  0.00     0.143 C 
HETATM   18  O   UNL     1     -43.211  63.186 -54.186  1.00  0.00    -0.267 OA
BRANCH  16  19
HETATM   19  C   UNL     1     -43.078  58.123 -57.953  1.00  0.00     0.030 A 
HETATM   20  C   UNL     1     -42.420  58.359 -59.167  1.00  0.00     0.029 A 
HETATM   21  C   UNL     1     -42.179  57.325 -60.080  1.00  0.00     0.002 A 
HETATM   22  C   UNL     1     -42.589  56.026 -59.794  1.00  0.00     0.000 A 
HETATM   23  C   UNL     1     -43.240  55.763 -58.594  1.00  0.00     0.002 A 
HETATM   24  C   UNL     1     -43.482  56.802 -57.690  1.00  0.00     0.029 A 
ENDBRANCH  16  19
ENDBRANCH   6  11
ENDBRANCH   2   5
BRANCH   1  25
HETATM   25  C   UNL     1     -42.581  59.412 -51.141  1.00  0.00     0.032 A 
HETATM   26  C   UNL     1     -41.394  59.351 -50.404  1.00  0.00     0.019 A 
HETATM   27  C   UNL     1     -40.710  58.133 -50.260  1.00  0.00     0.030 A 
HETATM   28  C   UNL     1     -41.188  56.970 -50.867  1.00  0.00     0.034 A 
HETATM   29  C   UNL     1     -42.339  57.047 -51.658  1.00  0.00     0.030 A 
HETATM   30  C   UNL     1     -43.031  58.253 -51.788  1.00  0.00     0.019 A 
BRANCH  28  31
HETATM   31  N   UNL     1     -40.603  55.696 -50.720  1.00  0.00    -0.327 N 
HETATM   32  C   UNL     1     -41.134  54.588 -50.080  1.00  0.00     0.226 C 
HETATM   33  O   UNL     1     -42.192  54.540 -49.460  1.00  0.00    -0.273 OA
HETATM   34  H   UNL     1     -39.703  55.572 -51.165  1.00  0.00     0.169 HD
BRANCH  32  35
HETATM   35  C   UNL     1     -40.267  53.347 -50.248  1.00  0.00     0.141 C 
BRANCH  35  36
HETATM   36  C   UNL     1     -40.298  52.796 -51.649  1.00  0.00    -0.050 A 
HETATM   37  C   UNL     1     -39.438  51.750 -52.010  1.00  0.00     0.007 A 
HETATM   38  C   UNL     1     -39.456  51.234 -53.306  1.00  0.00     0.001 A 
HETATM   39  C   UNL     1     -40.328  51.763 -54.256  1.00  0.00     0.000 A 
HETATM   40  C   UNL     1     -41.182  52.809 -53.910  1.00  0.00     0.001 A 
HETATM   41  C   UNL     1     -41.169  53.324 -52.612  1.00  0.00     0.007 A 
ENDBRANCH  35  36
ENDBRANCH  32  35
ENDBRANCH  28  31
ENDBRANCH   1  25
TORSDOF 7
ENDMDL
MODEL 7
REMARK VINA RESULT:      -8.6      2.763      9.021
REMARK  7 active torsions:
REMARK  status: ('A' for Active; 'I' for Inactive)
REMARK    1  A    between atoms: C_4  and  C_5 
REMARK    2  A    between atoms: C_5  and  C_6 
REMARK       I    between atoms: C_6  and  N_7 
REMARK    3  A    between atoms: N_7  and  C_8 
REMARK    4  A    between atoms: C_11  and  C_12 
REMARK       I    between atoms: C_12  and  N_13 
REMARK    5  A    between atoms: N_13  and  C_14 
REMARK    6  A    between atoms: C_15  and  C_16 
REMARK       I    between atoms: C_16  and  N_17 
REMARK    7  A    between atoms: N_20  and  C_21 
ROOT
HETATM    1  C   UNL     1     -45.537  61.479 -53.360  1.00  0.00     0.256 C 
HETATM    2  N   UNL     1     -44.415  61.680 -52.549  1.00  0.00    -0.322 N 
HETATM    3  O   UNL     1     -46.698  61.582 -52.969  1.00  0.00    -0.267 OA
HETATM    4  H   UNL     1     -43.658  61.043 -52.753  1.00  0.00     0.169 HD
ENDROOT
BRANCH   2   5
HETATM    5  C   UNL     1     -44.624  61.973 -51.177  1.00  0.00     0.050 C 
HETATM    6  C   UNL     1     -44.767  60.997 -50.166  1.00  0.00     0.059 C 
HETATM    7  C   UNL     1     -44.560  61.403 -48.838  1.00  0.00     0.019 C 
HETATM    8  C   UNL     1     -44.421  62.754 -48.502  1.00  0.00     0.001 C 
HETATM    9  C   UNL     1     -44.460  63.722 -49.497  1.00  0.00     0.002 C 
HETATM   10  C   UNL     1     -44.549  63.334 -50.832  1.00  0.00     0.030 C 
BRANCH   6  11
HETATM   11  C   UNL     1     -45.154  59.570 -50.471  1.00  0.00     0.256 C 
HETATM   12  N   UNL     1     -44.247  58.683 -51.088  1.00  0.00    -0.345 N 
HETATM   13  C   UNL     1     -42.840  58.958 -51.430  1.00  0.00     0.146 C 
HETATM   14  C   UNL     1     -44.841  57.519 -51.770  1.00  0.00     0.146 C 
HETATM   15  C   UNL     1     -41.951  57.702 -51.535  1.00  0.00     0.143 C 
HETATM   16  N   UNL     1     -42.605  56.702 -52.401  1.00  0.00    -0.378 N 
HETATM   17  C   UNL     1     -43.915  56.294 -51.864  1.00  0.00     0.143 C 
HETATM   18  O   UNL     1     -46.264  59.151 -50.141  1.00  0.00    -0.267 OA
BRANCH  16  19
HETATM   19  C   UNL     1     -41.759  55.736 -52.948  1.00  0.00     0.030 A 
HETATM   20  C   UNL     1     -41.430  54.535 -52.304  1.00  0.00     0.029 A 
HETATM   21  C   UNL     1     -40.616  53.576 -52.918  1.00  0.00     0.002 A 
HETATM   22  C   UNL     1     -40.116  53.796 -54.197  1.00  0.00     0.000 A 
HETATM   23  C   UNL     1     -40.430  54.976 -54.861  1.00  0.00     0.002 A 
HETATM   24  C   UNL     1     -41.239  55.932 -54.240  1.00  0.00     0.029 A 
ENDBRANCH  16  19
ENDBRANCH   6  11
ENDBRANCH   2   5
BRANCH   1  25
HETATM   25  C   UNL     1     -45.293  60.950 -54.738  1.00  0.00     0.032 A 
HETATM   26  C   UNL     1     -45.168  61.763 -55.870  1.00  0.00     0.019 A 
HETATM   27  C   UNL     1     -44.823  61.203 -57.111  1.00  0.00     0.030 A 
HETATM   28  C   UNL     1     -44.624  59.827 -57.242  1.00  0.00     0.034 A 
HETATM   29  C   UNL     1     -44.815  59.010 -56.124  1.00  0.00     0.030 A 
HETATM   30  C   UNL     1     -45.140  59.565 -54.885  1.00  0.00     0.019 A 
BRANCH  28  31
HETATM   31  N   UNL     1     -44.214  59.192 -58.431  1.00  0.00    -0.327 N 
HETATM   32  C   UNL     1     -42.919  58.933 -58.851  1.00  0.00     0.226 C 
HETATM   33  O   UNL     1     -41.886  59.277 -58.285  1.00  0.00    -0.273 OA
HETATM   34  H   UNL     1     -44.957  58.859 -59.031  1.00  0.00     0.169 HD
BRANCH  32  35
HETATM   35  C   UNL     1     -42.875  58.103 -60.128  1.00  0.00     0.141 C 
BRANCH  35  36
HETATM   36  C   UNL     1     -43.516  56.750 -59.969  1.00  0.00    -0.050 A 
HETATM   37  C   UNL     1     -43.069  55.876 -58.968  1.00  0.00     0.007 A 
HETATM   38  C   UNL     1     -43.653  54.619 -58.814  1.00  0.00     0.001 A 
HETATM   39  C   UNL     1     -44.683  54.219 -59.662  1.00  0.00     0.000 A 
HETATM   40  C   UNL     1     -45.130  55.077 -60.666  1.00  0.00     0.001 A 
HETATM   41  C   UNL     1     -44.551  56.337 -60.820  1.00  0.00     0.007 A 
ENDBRANCH  35  36
ENDBRANCH  32  35
ENDBRANCH  28  31
ENDBRANCH   1  25
TORSDOF 7
ENDMDL
MODEL 8
REMARK VINA RESULT:      -8.5      3.742      9.000
REMARK  7 active torsions:
REMARK  status: ('A' for Active; 'I' for Inactive)
REMARK    1  A    between atoms: C_4  and  C_5 
REMARK    2  A    between atoms: C_5  and  C_6 
REMARK       I    between atoms: C_6  and  N_7 
REMARK    3  A    between atoms: N_7  and  C_8 
REMARK    4  A    between atoms: C_11  and  C_12 
REMARK       I    between atoms: C_12  and  N_13 
REMARK    5  A    between atoms: N_13  and  C_14 
REMARK    6  A    between atoms: C_15  and  C_16 
REMARK       I    between atoms: C_16  and  N_17 
REMARK    7  A    between atoms: N_20  and  C_21 
ROOT
HETATM    1  C   UNL     1     -44.467  59.333 -53.689  1.00  0.00     0.256 C 
HETATM    2  N   UNL     1     -43.354  60.127 -53.395  1.00  0.00    -0.322 N 
HETATM    3  O   UNL     1     -44.779  58.322 -53.062  1.00  0.00    -0.267 OA
HETATM    4  H   UNL     1     -42.895  60.488 -54.220  1.00  0.00     0.169 HD
ENDROOT
BRANCH   2   5
HETATM    5  C   UNL     1     -42.500  59.720 -52.339  1.00  0.00     0.050 C 
HETATM    6  C   UNL     1     -41.430  58.809 -52.486  1.00  0.00     0.059 C 
HETATM    7  C   UNL     1     -40.439  58.807 -51.491  1.00  0.00     0.019 C 
HETATM    8  C   UNL     1     -40.598  59.524 -50.301  1.00  0.00     0.001 C 
HETATM    9  C   UNL     1     -41.745  60.279 -50.097  1.00  0.00     0.002 C 
HETATM   10  C   UNL     1     -42.689  60.388 -51.116  1.00  0.00     0.030 C 
BRANCH   6  11
HETATM   11  C   UNL     1     -41.345  57.843 -53.643  1.00  0.00     0.256 C 
HETATM   12  N   UNL     1     -41.056  56.478 -53.434  1.00  0.00    -0.345 N 
HETATM   13  C   UNL     1     -40.892  55.800 -52.137  1.00  0.00     0.146 C 
HETATM   14  C   UNL     1     -40.523  55.744 -54.596  1.00  0.00     0.146 C 
HETATM   15  C   UNL     1     -41.167  54.282 -52.170  1.00  0.00     0.143 C 
HETATM   16  N   UNL     1     -40.415  53.665 -53.279  1.00  0.00    -0.378 N 
HETATM   17  C   UNL     1     -40.808  54.232 -54.581  1.00  0.00     0.143 C 
HETATM   18  O   UNL     1     -41.570  58.235 -54.788  1.00  0.00    -0.267 OA
BRANCH  16  19
HETATM   19  C   UNL     1     -40.200  52.291 -53.168  1.00  0.00     0.030 A 
HETATM   20  C   UNL     1     -40.261  51.404 -54.252  1.00  0.00     0.029 A 
HETATM   21  C   UNL     1     -39.988  50.040 -54.096  1.00  0.00     0.002 A 
HETATM   22  C   UNL     1     -39.640  49.533 -52.848  1.00  0.00     0.000 A 
HETATM   23  C   UNL     1     -39.567  50.390 -51.756  1.00  0.00     0.002 A 
HETATM   24  C   UNL     1     -39.846  51.751 -51.919  1.00  0.00     0.029 A 
ENDBRANCH  16  19
ENDBRANCH   6  11
ENDBRANCH   2   5
BRANCH   1  25
HETATM   25  C   UNL     1     -45.219  59.654 -54.942  1.00  0.00     0.032 A 
HETATM   26  C   UNL     1     -45.653  60.941 -55.278  1.00  0.00     0.019 A 
HETATM   27  C   UNL     1     -46.251  61.185 -56.525  1.00  0.00     0.030 A 
HETATM   28  C   UNL     1     -46.444  60.147 -57.439  1.00  0.00     0.034 A 
HETATM   29  C   UNL     1     -46.070  58.850 -57.074  1.00  0.00     0.030 A 
HETATM   30  C   UNL     1     -45.459  58.607 -55.842  1.00  0.00     0.019 A 
BRANCH  28  31
HETATM   31  N   UNL     1     -46.973  60.314 -58.734  1.00  0.00    -0.327 N 
HETATM   32  C   UNL     1     -46.279  60.396 -59.930  1.00  0.00     0.226 C 
HETATM   33  O   UNL     1     -45.059  60.406 -60.067  1.00  0.00    -0.273 OA
HETATM   34  H   UNL     1     -47.983  60.346 -58.796  1.00  0.00     0.169 HD
BRANCH  32  35
HETATM   35  C   UNL     1     -47.204  60.437 -61.140  1.00  0.00     0.141 C 
BRANCH  35  36
HETATM   36  C   UNL     1     -47.740  59.080 -61.513  1.00  0.00    -0.050 A 
HETATM   37  C   UNL     1     -47.164  57.924 -60.966  1.00  0.00     0.007 A 
HETATM   38  C   UNL     1     -47.650  56.662 -61.307  1.00  0.00     0.001 A 
HETATM   39  C   UNL     1     -48.710  56.541 -62.203  1.00  0.00     0.000 A 
HETATM   40  C   UNL     1     -49.284  57.683 -62.760  1.00  0.00     0.001 A 
HETATM   41  C   UNL     1     -48.803  58.947 -62.417  1.00  0.00     0.007 A 
ENDBRANCH  35  36
ENDBRANCH  32  35
ENDBRANCH  28  31
ENDBRANCH   1  25
TORSDOF 7
ENDMDL
MODEL 9
REMARK VINA RESULT:      -8.3      4.309     11.018
REMARK  7 active torsions:
REMARK  status: ('A' for Active; 'I' for Inactive)
REMARK    1  A    between atoms: C_4  and  C_5 
REMARK    2  A    between atoms: C_5  and  C_6 
REMARK       I    between atoms: C_6  and  N_7 
REMARK    3  A    between atoms: N_7  and  C_8 
REMARK    4  A    between atoms: C_11  and  C_12 
REMARK       I    between atoms: C_12  and  N_13 
REMARK    5  A    between atoms: N_13  and  C_14 
REMARK    6  A    between atoms: C_15  and  C_16 
REMARK       I    between atoms: C_16  and  N_17 
REMARK    7  A    between atoms: N_20  and  C_21 
ROOT
HETATM    1  C   UNL     1     -42.497  55.910 -56.553  1.00  0.00     0.256 C 
HETATM    2  N   UNL     1     -42.683  54.713 -55.855  1.00  0.00    -0.322 N 
HETATM    3  O   UNL     1     -41.849  56.864 -56.126  1.00  0.00    -0.267 OA
HETATM    4  H   UNL     1     -43.607  54.321 -55.979  1.00  0.00     0.169 HD
ENDROOT
BRANCH   2   5
HETATM    5  C   UNL     1     -42.134  54.604 -54.552  1.00  0.00     0.050 C 
HETATM    6  C   UNL     1     -42.757  55.091 -53.381  1.00  0.00     0.059 C 
HETATM    7  C   UNL     1     -42.323  54.571 -52.151  1.00  0.00     0.019 C 
HETATM    8  C   UNL     1     -41.187  53.761 -52.062  1.00  0.00     0.001 C 
HETATM    9  C   UNL     1     -40.479  53.434 -53.211  1.00  0.00     0.002 C 
HETATM   10  C   UNL     1     -40.956  53.843 -54.454  1.00  0.00     0.030 C 
BRANCH   6  11
HETATM   11  C   UNL     1     -43.833  56.151 -53.420  1.00  0.00     0.256 C 
HETATM   12  N   UNL     1     -43.720  57.332 -52.657  1.00  0.00    -0.345 N 
HETATM   13  C   UNL     1     -42.573  57.739 -51.827  1.00  0.00     0.146 C 
HETATM   14  C   UNL     1     -44.980  58.045 -52.379  1.00  0.00     0.146 C 
HETATM   15  C   UNL     1     -42.459  59.261 -51.597  1.00  0.00     0.143 C 
HETATM   16  N   UNL     1     -43.759  59.793 -51.145  1.00  0.00    -0.378 N 
HETATM   17  C   UNL     1     -44.818  59.557 -52.142  1.00  0.00     0.143 C 
HETATM   18  O   UNL     1     -44.808  56.009 -54.158  1.00  0.00    -0.267 OA
BRANCH  16  19
HETATM   19  C   UNL     1     -43.707  61.019 -50.480  1.00  0.00     0.030 A 
HETATM   20  C   UNL     1     -42.904  62.092 -50.888  1.00  0.00     0.029 A 
HETATM   21  C   UNL     1     -42.927  63.319 -50.213  1.00  0.00     0.002 A 
HETATM   22  C   UNL     1     -43.762  63.501 -49.115  1.00  0.00     0.000 A 
HETATM   23  C   UNL     1     -44.573  62.454 -48.691  1.00  0.00     0.002 A 
HETATM   24  C   UNL     1     -44.541  61.230 -49.367  1.00  0.00     0.029 A 
ENDBRANCH  16  19
ENDBRANCH   6  11
ENDBRANCH   2   5
BRANCH   1  25
HETATM   25  C   UNL     1     -43.272  56.086 -57.821  1.00  0.00     0.032 A 
HETATM   26  C   UNL     1     -43.330  55.123 -58.834  1.00  0.00     0.019 A 
HETATM   27  C   UNL     1     -44.172  55.310 -59.942  1.00  0.00     0.030 A 
HETATM   28  C   UNL     1     -44.943  56.467 -60.066  1.00  0.00     0.034 A 
HETATM   29  C   UNL     1     -44.832  57.458 -59.085  1.00  0.00     0.030 A 
HETATM   30  C   UNL     1     -44.010  57.267 -57.973  1.00  0.00     0.019 A 
BRANCH  28  31
HETATM   31  N   UNL     1     -45.861  56.705 -61.108  1.00  0.00    -0.327 N 
HETATM   32  C   UNL     1     -47.231  56.500 -61.096  1.00  0.00     0.226 C 
HETATM   33  O   UNL     1     -47.886  56.002 -60.186  1.00  0.00    -0.273 OA
HETATM   34  H   UNL     1     -45.472  57.105 -61.953  1.00  0.00     0.169 HD
BRANCH  32  35
HETATM   35  C   UNL     1     -47.908  57.005 -62.364  1.00  0.00     0.141 C 
BRANCH  35  36
HETATM   36  C   UNL     1     -48.812  58.183 -62.114  1.00  0.00    -0.050 A 
HETATM   37  C   UNL     1     -50.125  58.176 -62.607  1.00  0.00     0.007 A 
HETATM   38  C   UNL     1     -50.970  59.263 -62.384  1.00  0.00     0.001 A 
HETATM   39  C   UNL     1     -50.511  60.370 -61.675  1.00  0.00     0.000 A 
HETATM   40  C   UNL     1     -49.205  60.392 -61.187  1.00  0.00     0.001 A 
HETATM   41  C   UNL     1     -48.358  59.304 -61.404  1.00  0.00     0.007 A 
ENDBRANCH  35  36
ENDBRANCH  32  35
ENDBRANCH  28  31
ENDBRANCH   1  25
TORSDOF 7
ENDMDL
MODEL 10
REMARK VINA RESULT:      -8.3      3.270     10.601
REMARK  7 active torsions:
REMARK  status: ('A' for Active; 'I' for Inactive)
REMARK    1  A    between atoms: C_4  and  C_5 
REMARK    2  A    between atoms: C_5  and  C_6 
REMARK       I    between atoms: C_6  and  N_7 
REMARK    3  A    between atoms: N_7  and  C_8 
REMARK    4  A    between atoms: C_11  and  C_12 
REMARK       I    between atoms: C_12  and  N_13 
REMARK    5  A    between atoms: N_13  and  C_14 
REMARK    6  A    between atoms: C_15  and  C_16 
REMARK       I    between atoms: C_16  and  N_17 
REMARK    7  A    between atoms: N_20  and  C_21 
ROOT
HETATM    1  C   UNL     1     -42.548  57.030 -54.918  1.00  0.00     0.256 C 
HETATM    2  N   UNL     1     -41.417  56.905 -54.106  1.00  0.00    -0.322 N 
HETATM    3  O   UNL     1     -43.576  56.371 -54.775  1.00  0.00    -0.267 OA
HETATM    4  H   UNL     1     -40.549  56.997 -54.616  1.00  0.00     0.169 HD
ENDROOT
BRANCH   2   5
HETATM    5  C   UNL     1     -41.431  55.924 -53.081  1.00  0.00     0.050 C 
HETATM    6  C   UNL     1     -41.780  56.181 -51.737  1.00  0.00     0.059 C 
HETATM    7  C   UNL     1     -42.143  55.084 -50.940  1.00  0.00     0.019 C 
HETATM    8  C   UNL     1     -41.974  53.770 -51.388  1.00  0.00     0.001 C 
HETATM    9  C   UNL     1     -41.460  53.532 -52.656  1.00  0.00     0.002 C 
HETATM   10  C   UNL     1     -41.201  54.604 -53.506  1.00  0.00     0.030 C 
BRANCH   6  11
HETATM   11  C   UNL     1     -41.744  57.570 -51.144  1.00  0.00     0.256 C 
HETATM   12  N   UNL     1     -42.855  58.435 -51.244  1.00  0.00    -0.345 N 
HETATM   13  C   UNL     1     -44.171  58.114 -51.822  1.00  0.00     0.146 C 
HETATM   14  C   UNL     1     -42.571  59.872 -51.088  1.00  0.00     0.146 C 
HETATM   15  C   UNL     1     -45.330  58.985 -51.291  1.00  0.00     0.143 C 
HETATM   16  N   UNL     1     -44.958  60.410 -51.373  1.00  0.00    -0.378 N 
HETATM   17  C   UNL     1     -43.758  60.704 -50.570  1.00  0.00     0.143 C 
HETATM   18  O   UNL     1     -40.749  57.947 -50.526  1.00  0.00    -0.267 OA
BRANCH  16  19
HETATM   19  C   UNL     1     -46.024  61.311 -51.364  1.00  0.00     0.030 A 
HETATM   20  C   UNL     1     -46.239  62.251 -50.347  1.00  0.00     0.029 A 
HETATM   21  C   UNL     1     -47.297  63.166 -50.411  1.00  0.00     0.002 A 
HETATM   22  C   UNL     1     -48.162  63.164 -51.501  1.00  0.00     0.000 A 
HETATM   23  C   UNL     1     -47.969  62.245 -52.525  1.00  0.00     0.002 A 
HETATM   24  C   UNL     1     -46.914  61.331 -52.453  1.00  0.00     0.029 A 
ENDBRANCH  16  19
ENDBRANCH   6  11
ENDBRANCH   2   5
BRANCH   1  25
HETATM   25  C   UNL     1     -42.425  57.905 -56.126  1.00  0.00     0.032 A 
HETATM   26  C   UNL     1     -42.169  59.278 -56.065  1.00  0.00     0.019 A 
HETATM   27  C   UNL     1     -41.950  60.012 -57.243  1.00  0.00     0.030 A 
HETATM   28  C   UNL     1     -42.009  59.390 -58.492  1.00  0.00     0.034 A 
HETATM   29  C   UNL     1     -42.331  58.031 -58.553  1.00  0.00     0.030 A 
HETATM   30  C   UNL     1     -42.531  57.295 -57.383  1.00  0.00     0.019 A 
BRANCH  28  31
HETATM   31  N   UNL     1     -41.739  60.034 -59.716  1.00  0.00    -0.327 N 
HETATM   32  C   UNL     1     -42.392  61.127 -60.262  1.00  0.00     0.226 C 
HETATM   33  O   UNL     1     -43.381  61.691 -59.802  1.00  0.00    -0.273 OA
HETATM   34  H   UNL     1     -40.952  59.673 -60.238  1.00  0.00     0.169 HD
BRANCH  32  35
HETATM   35  C   UNL     1     -41.726  61.628 -61.537  1.00  0.00     0.141 C 
BRANCH  35  36
HETATM   36  C   UNL     1     -40.533  62.506 -61.267  1.00  0.00    -0.050 A 
HETATM   37  C   UNL     1     -39.713  62.919 -62.327  1.00  0.00     0.007 A 
HETATM   38  C   UNL     1     -38.603  63.729 -62.088  1.00  0.00     0.001 A 
HETATM   39  C   UNL     1     -38.297  64.129 -60.790  1.00  0.00     0.000 A 
HETATM   40  C   UNL     1     -39.101  63.718 -59.727  1.00  0.00     0.001 A 
HETATM   41  C   UNL     1     -40.215  62.911 -59.963  1.00  0.00     0.007 A 
ENDBRANCH  35  36
ENDBRANCH  32  35
ENDBRANCH  28  31
ENDBRANCH   1  25
TORSDOF 7
ENDMDL
