MODEL 1
REMARK VINA RESULT:      -7.9      0.000      0.000
REMARK  7 active torsions:
REMARK  status: ('A' for Active; 'I' for Inactive)
REMARK    1  A    between atoms: C_2  and  C_3 
REMARK    2  A    between atoms: C_3  and  C_4 
REMARK    3  A    between atoms: C_8  and  C_9 
REMARK       I    between atoms: C_9  and  N_10 
REMARK    4  A    between atoms: N_10  and  C_11 
REMARK    5  A    between atoms: C_12  and  O_13 
REMARK    6  A    between atoms: O_13  and  C_14 
REMARK    7  A    between atoms: C_14  and  C_15 
ROOT
HETATM    1  C   UNL     1     -43.016  55.826 -53.353  1.00  0.00     0.113 C 
HETATM    2  C   UNL     1     -42.934  54.334 -52.935  1.00  0.00     0.144 C 
HETATM    3  C   UNL     1     -42.514  54.216 -51.465  1.00  0.00     0.034 C 
HETATM    4  C   UNL     1     -43.445  54.993 -50.541  1.00  0.00     0.003 C 
HETATM    5  C   UNL     1     -43.579  56.450 -50.966  1.00  0.00     0.002 C 
HETATM    6  C   UNL     1     -43.990  56.576 -52.430  1.00  0.00     0.028 C 
ENDROOT
BRANCH   1   7
HETATM    7  N   UNL     1     -43.399  55.935 -54.763  1.00  0.00    -0.349 N 
HETATM    8  C   UNL     1     -42.832  56.869 -55.599  1.00  0.00     0.270 C 
HETATM    9  O   UNL     1     -42.091  57.763 -55.201  1.00  0.00    -0.266 OA
HETATM   10  H   UNL     1     -43.702  55.071 -55.195  1.00  0.00     0.163 HD
BRANCH   8  11
HETATM   11  C   UNL     1     -43.147  56.715 -56.994  1.00  0.00     0.119 A 
HETATM   12  N   UNL     1     -42.487  55.802 -57.773  1.00  0.00    -0.273 N 
HETATM   13  N   UNL     1     -42.897  55.771 -59.051  1.00  0.00    -0.179 NA
HETATM   14  H   UNL     1     -41.748  55.172 -57.475  1.00  0.00     0.189 HD
HETATM   15  C   UNL     1     -43.852  56.705 -59.106  1.00  0.00     0.057 A 
HETATM   16  C   UNL     1     -44.040  57.330 -57.849  1.00  0.00     0.065 A 
BRANCH  15  17
HETATM   17  C   UNL     1     -44.563  56.982 -60.388  1.00  0.00     0.061 C 
BRANCH  17  18
HETATM   18  C   UNL     1     -45.719  56.018 -60.665  1.00  0.00     0.002 C 
HETATM   19  C   UNL     1     -47.020  56.434 -59.991  1.00  0.00     0.005 C 
ENDBRANCH  17  18
ENDBRANCH  15  17
ENDBRANCH   8  11
ENDBRANCH   1   7
BRANCH   2  20
HETATM   20  O   UNL     1     -41.994  53.689 -53.809  1.00  0.00    -0.379 OA
BRANCH  20  21
HETATM   21  C   UNL     1     -40.674  53.601 -53.269  1.00  0.00     0.206 C 
BRANCH  21  22
HETATM   22  C   UNL     1     -40.228  52.165 -53.122  1.00  0.00    -0.035 A 
HETATM   23  C   UNL     1     -39.822  51.627 -51.893  1.00  0.00     0.009 A 
HETATM   24  C   UNL     1     -39.459  50.281 -51.791  1.00  0.00     0.001 A 
HETATM   25  C   UNL     1     -39.506  49.457 -52.913  1.00  0.00     0.000 A 
HETATM   26  C   UNL     1     -39.916  49.975 -54.139  1.00  0.00     0.001 A 
HETATM   27  C   UNL     1     -40.276  51.320 -54.243  1.00  0.00     0.009 A 
ENDBRANCH  21  22
ENDBRANCH  20  21
ENDBRANCH   2  20
TORSDOF 7
ENDMDL
MODEL 2
REMARK VINA RESULT:      -7.5      3.021      5.738
REMARK  7 active torsions:
REMARK  status: ('A' for Active; 'I' for Inactive)
REMARK    1  A    between atoms: C_2  and  C_3 
REMARK    2  A    between atoms: C_3  and  C_4 
REMARK    3  A    between atoms: C_8  and  C_9 
REMARK       I    between atoms: C_9  and  N_10 
REMARK    4  A    between atoms: N_10  and  C_11 
REMARK    5  A    between atoms: C_12  and  O_13 
REMARK    6  A    between atoms: O_13  and  C_14 
REMARK    7  A    between atoms: C_14  and  C_15 
ROOT
HETATM    1  C   UNL     1     -41.374  53.322 -53.359  1.00  0.00     0.113 C 
HETATM    2  C   UNL     1     -40.696  53.433 -51.968  1.00  0.00     0.144 C 
HETATM    3  C   UNL     1     -40.166  52.064 -51.525  1.00  0.00     0.034 C 
HETATM    4  C   UNL     1     -39.213  51.462 -52.552  1.00  0.00     0.003 C 
HETATM    5  C   UNL     1     -39.843  51.392 -53.937  1.00  0.00     0.002 C 
HETATM    6  C   UNL     1     -40.381  52.749 -54.382  1.00  0.00     0.028 C 
ENDROOT
BRANCH   1   7
HETATM    7  N   UNL     1     -41.897  54.627 -53.771  1.00  0.00    -0.349 N 
HETATM    8  C   UNL     1     -43.009  54.743 -54.575  1.00  0.00     0.270 C 
HETATM    9  O   UNL     1     -43.544  53.783 -55.122  1.00  0.00    -0.266 OA
HETATM   10  H   UNL     1     -41.737  55.382 -53.116  1.00  0.00     0.163 HD
BRANCH   8  11
HETATM   11  C   UNL     1     -43.527  56.077 -54.717  1.00  0.00     0.119 A 
HETATM   12  N   UNL     1     -44.866  56.335 -54.582  1.00  0.00    -0.273 N 
HETATM   13  N   UNL     1     -45.194  57.628 -54.735  1.00  0.00    -0.179 NA
HETATM   14  H   UNL     1     -45.596  55.659 -54.382  1.00  0.00     0.189 HD
HETATM   15  C   UNL     1     -44.027  58.229 -54.988  1.00  0.00     0.057 A 
HETATM   16  C   UNL     1     -42.956  57.303 -54.996  1.00  0.00     0.065 A 
BRANCH  15  17
HETATM   17  C   UNL     1     -43.974  59.702 -55.228  1.00  0.00     0.061 C 
BRANCH  17  18
HETATM   18  C   UNL     1     -42.662  60.346 -54.773  1.00  0.00     0.002 C 
HETATM   19  C   UNL     1     -42.864  61.462 -53.757  1.00  0.00     0.005 C 
ENDBRANCH  17  18
ENDBRANCH  15  17
ENDBRANCH   8  11
ENDBRANCH   1   7
BRANCH   2  20
HETATM   20  O   UNL     1     -41.674  53.946 -51.048  1.00  0.00    -0.379 OA
BRANCH  20  21
HETATM   21  C   UNL     1     -41.295  55.180 -50.435  1.00  0.00     0.206 C 
BRANCH  21  22
HETATM   22  C   UNL     1     -42.233  56.300 -50.817  1.00  0.00    -0.035 A 
HETATM   23  C   UNL     1     -43.624  56.130 -50.871  1.00  0.00     0.009 A 
HETATM   24  C   UNL     1     -44.461  57.204 -51.185  1.00  0.00     0.001 A 
HETATM   25  C   UNL     1     -43.919  58.462 -51.441  1.00  0.00     0.000 A 
HETATM   26  C   UNL     1     -42.540  58.649 -51.381  1.00  0.00     0.001 A 
HETATM   27  C   UNL     1     -41.703  57.576 -51.070  1.00  0.00     0.009 A 
ENDBRANCH  21  22
ENDBRANCH  20  21
ENDBRANCH   2  20
TORSDOF 7
ENDMDL
MODEL 3
REMARK VINA RESULT:      -7.4      1.985      2.380
REMARK  7 active torsions:
REMARK  status: ('A' for Active; 'I' for Inactive)
REMARK    1  A    between atoms: C_2  and  C_3 
REMARK    2  A    between atoms: C_3  and  C_4 
REMARK    3  A    between atoms: C_8  and  C_9 
REMARK       I    between atoms: C_9  and  N_10 
REMARK    4  A    between atoms: N_10  and  C_11 
REMARK    5  A    between atoms: C_12  and  O_13 
REMARK    6  A    between atoms: O_13  and  C_14 
REMARK    7  A    between atoms: C_14  and  C_15 
ROOT
HETATM    1  C   UNL     1     -40.928  57.130 -53.133  1.00  0.00     0.113 C 
HETATM    2  C   UNL     1     -41.863  56.660 -51.988  1.00  0.00     0.144 C 
HETATM    3  C   UNL     1     -41.271  57.046 -50.627  1.00  0.00     0.034 C 
HETATM    4  C   UNL     1     -40.995  58.543 -50.528  1.00  0.00     0.003 C 
HETATM    5  C   UNL     1     -40.119  59.033 -51.675  1.00  0.00     0.002 C 
HETATM    6  C   UNL     1     -40.698  58.646 -53.033  1.00  0.00     0.028 C 
ENDROOT
BRANCH   1   7
HETATM    7  N   UNL     1     -41.486  56.742 -54.431  1.00  0.00    -0.349 N 
HETATM    8  C   UNL     1     -42.714  57.193 -54.858  1.00  0.00     0.270 C 
HETATM    9  O   UNL     1     -43.488  57.816 -54.135  1.00  0.00    -0.266 OA
HETATM   10  H   UNL     1     -40.804  56.551 -55.154  1.00  0.00     0.163 HD
BRANCH   8  11
HETATM   11  C   UNL     1     -43.031  56.906 -56.231  1.00  0.00     0.119 A 
HETATM   12  N   UNL     1     -43.788  57.768 -56.979  1.00  0.00    -0.273 N 
HETATM   13  N   UNL     1     -43.993  57.366 -58.243  1.00  0.00    -0.179 NA
HETATM   14  H   UNL     1     -44.188  58.649 -56.669  1.00  0.00     0.189 HD
HETATM   15  C   UNL     1     -43.352  56.194 -58.316  1.00  0.00     0.057 A 
HETATM   16  C   UNL     1     -42.742  55.858 -57.083  1.00  0.00     0.065 A 
BRANCH  15  17
HETATM   17  C   UNL     1     -43.351  55.413 -59.587  1.00  0.00     0.061 C 
BRANCH  17  18
HETATM   18  C   UNL     1     -44.682  54.711 -59.873  1.00  0.00     0.002 C 
HETATM   19  C   UNL     1     -45.448  55.333 -61.033  1.00  0.00     0.005 C 
ENDBRANCH  17  18
ENDBRANCH  15  17
ENDBRANCH   8  11
ENDBRANCH   1   7
BRANCH   2  20
HETATM   20  O   UNL     1     -42.022  55.237 -52.112  1.00  0.00    -0.379 OA
BRANCH  20  21
HETATM   21  C   UNL     1     -41.046  54.484 -51.390  1.00  0.00     0.206 C 
BRANCH  21  22
HETATM   22  C   UNL     1     -40.538  53.314 -52.198  1.00  0.00    -0.035 A 
HETATM   23  C   UNL     1     -39.878  52.225 -51.611  1.00  0.00     0.009 A 
HETATM   24  C   UNL     1     -39.463  51.141 -52.388  1.00  0.00     0.001 A 
HETATM   25  C   UNL     1     -39.710  51.127 -53.759  1.00  0.00     0.000 A 
HETATM   26  C   UNL     1     -40.374  52.197 -54.356  1.00  0.00     0.001 A 
HETATM   27  C   UNL     1     -40.786  53.282 -53.581  1.00  0.00     0.009 A 
ENDBRANCH  21  22
ENDBRANCH  20  21
ENDBRANCH   2  20
TORSDOF 7
ENDMDL
MODEL 4
REMARK VINA RESULT:      -7.3      2.210      5.254
REMARK  7 active torsions:
REMARK  status: ('A' for Active; 'I' for Inactive)
REMARK    1  A    between atoms: C_2  and  C_3 
REMARK    2  A    between atoms: C_3  and  C_4 
REMARK    3  A    between atoms: C_8  and  C_9 
REMARK       I    between atoms: C_9  and  N_10 
REMARK    4  A    between atoms: N_10  and  C_11 
REMARK    5  A    between atoms: C_12  and  O_13 
REMARK    6  A    between atoms: O_13  and  C_14 
REMARK    7  A    between atoms: C_14  and  C_15 
ROOT
HETATM    1  C   UNL     1     -41.188  53.466 -54.058  1.00  0.00     0.113 C 
HETATM    2  C   UNL     1     -40.828  54.281 -52.788  1.00  0.00     0.144 C 
HETATM    3  C   UNL     1     -40.663  53.344 -51.585  1.00  0.00     0.034 C 
HETATM    4  C   UNL     1     -39.630  52.254 -51.847  1.00  0.00     0.003 C 
HETATM    5  C   UNL     1     -39.937  51.476 -53.120  1.00  0.00     0.002 C 
HETATM    6  C   UNL     1     -40.110  52.402 -54.321  1.00  0.00     0.028 C 
ENDROOT
BRANCH   1   7
HETATM    7  N   UNL     1     -41.363  54.365 -55.201  1.00  0.00    -0.349 N 
HETATM    8  C   UNL     1     -42.587  54.542 -55.805  1.00  0.00     0.270 C 
HETATM    9  O   UNL     1     -43.572  53.859 -55.537  1.00  0.00    -0.266 OA
HETATM   10  H   UNL     1     -40.731  55.156 -55.229  1.00  0.00     0.163 HD
BRANCH   8  11
HETATM   11  C   UNL     1     -42.648  55.609 -56.768  1.00  0.00     0.119 A 
HETATM   12  N   UNL     1     -42.131  56.846 -56.487  1.00  0.00    -0.273 N 
HETATM   13  N   UNL     1     -42.257  57.734 -57.487  1.00  0.00    -0.179 NA
HETATM   14  H   UNL     1     -41.678  57.133 -55.625  1.00  0.00     0.189 HD
HETATM   15  C   UNL     1     -42.888  57.051 -58.447  1.00  0.00     0.057 A 
HETATM   16  C   UNL     1     -43.163  55.721 -58.044  1.00  0.00     0.065 A 
BRANCH  15  17
HETATM   17  C   UNL     1     -43.224  57.708 -59.745  1.00  0.00     0.061 C 
BRANCH  17  18
HETATM   18  C   UNL     1     -41.996  58.216 -60.506  1.00  0.00     0.002 C 
HETATM   19  C   UNL     1     -42.050  59.709 -60.798  1.00  0.00     0.005 C 
ENDBRANCH  17  18
ENDBRANCH  15  17
ENDBRANCH   8  11
ENDBRANCH   1   7
BRANCH   2  20
HETATM   20  O   UNL     1     -41.877  55.239 -52.574  1.00  0.00    -0.379 OA
BRANCH  20  21
HETATM   21  C   UNL     1     -42.008  55.655 -51.213  1.00  0.00     0.206 C 
BRANCH  21  22
HETATM   22  C   UNL     1     -41.944  57.158 -51.083  1.00  0.00    -0.035 A 
HETATM   23  C   UNL     1     -43.008  57.990 -51.460  1.00  0.00     0.009 A 
HETATM   24  C   UNL     1     -42.926  59.374 -51.282  1.00  0.00     0.001 A 
HETATM   25  C   UNL     1     -41.786  59.941 -50.718  1.00  0.00     0.000 A 
HETATM   26  C   UNL     1     -40.725  59.126 -50.330  1.00  0.00     0.001 A 
HETATM   27  C   UNL     1     -40.804  57.745 -50.509  1.00  0.00     0.009 A 
ENDBRANCH  21  22
ENDBRANCH  20  21
ENDBRANCH   2  20
TORSDOF 7
ENDMDL
MODEL 5
REMARK VINA RESULT:      -7.3      3.008      5.684
REMARK  7 active torsions:
REMARK  status: ('A' for Active; 'I' for Inactive)
REMARK    1  A    between atoms: C_2  and  C_3 
REMARK    2  A    between atoms: C_3  and  C_4 
REMARK    3  A    between atoms: C_8  and  C_9 
REMARK       I    between atoms: C_9  and  N_10 
REMARK    4  A    between atoms: N_10  and  C_11 
REMARK    5  A    between atoms: C_12  and  O_13 
REMARK    6  A    between atoms: O_13  and  C_14 
REMARK    7  A    between atoms: C_14  and  C_15 
ROOT
HETATM    1  C   UNL     1     -41.433  53.375 -53.359  1.00  0.00     0.113 C 
HETATM    2  C   UNL     1     -40.740  53.491 -51.976  1.00  0.00     0.144 C 
HETATM    3  C   UNL     1     -40.207  52.123 -51.533  1.00  0.00     0.034 C 
HETATM    4  C   UNL     1     -39.266  51.515 -52.567  1.00  0.00     0.003 C 
HETATM    5  C   UNL     1     -39.911  51.441 -53.945  1.00  0.00     0.002 C 
HETATM    6  C   UNL     1     -40.451  52.797 -54.390  1.00  0.00     0.028 C 
ENDROOT
BRANCH   1   7
HETATM    7  N   UNL     1     -41.959  54.679 -53.771  1.00  0.00    -0.349 N 
HETATM    8  C   UNL     1     -43.020  54.793 -54.640  1.00  0.00     0.270 C 
HETATM    9  O   UNL     1     -43.498  53.836 -55.243  1.00  0.00    -0.266 OA
HETATM   10  H   UNL     1     -41.857  55.420 -53.089  1.00  0.00     0.163 HD
BRANCH   8  11
HETATM   11  C   UNL     1     -43.558  56.119 -54.782  1.00  0.00     0.119 A 
HETATM   12  N   UNL     1     -44.892  56.366 -54.595  1.00  0.00    -0.273 N 
HETATM   13  N   UNL     1     -45.241  57.653 -54.755  1.00  0.00    -0.179 NA
HETATM   14  H   UNL     1     -45.607  55.686 -54.353  1.00  0.00     0.189 HD
HETATM   15  C   UNL     1     -44.093  58.261 -55.067  1.00  0.00     0.057 A 
HETATM   16  C   UNL     1     -43.013  57.346 -55.105  1.00  0.00     0.065 A 
BRANCH  15  17
HETATM   17  C   UNL     1     -44.065  59.730 -55.332  1.00  0.00     0.061 C 
BRANCH  17  18
HETATM   18  C   UNL     1     -44.452  60.577 -54.117  1.00  0.00     0.002 C 
HETATM   19  C   UNL     1     -43.447  61.679 -53.812  1.00  0.00     0.005 C 
ENDBRANCH  17  18
ENDBRANCH  15  17
ENDBRANCH   8  11
ENDBRANCH   1   7
BRANCH   2  20
HETATM   20  O   UNL     1     -41.707  54.009 -51.048  1.00  0.00    -0.379 OA
BRANCH  20  21
HETATM   21  C   UNL     1     -41.201  55.052 -50.212  1.00  0.00     0.206 C 
BRANCH  21  22
HETATM   22  C   UNL     1     -41.783  56.395 -50.586  1.00  0.00    -0.035 A 
HETATM   23  C   UNL     1     -41.014  57.567 -50.611  1.00  0.00     0.009 A 
HETATM   24  C   UNL     1     -41.579  58.782 -51.006  1.00  0.00     0.001 A 
HETATM   25  C   UNL     1     -42.918  58.839 -51.388  1.00  0.00     0.000 A 
HETATM   26  C   UNL     1     -43.693  57.681 -51.379  1.00  0.00     0.001 A 
HETATM   27  C   UNL     1     -43.129  56.468 -50.982  1.00  0.00     0.009 A 
ENDBRANCH  21  22
ENDBRANCH  20  21
ENDBRANCH   2  20
TORSDOF 7
ENDMDL
MODEL 6
REMARK VINA RESULT:      -7.2      1.917      2.038
REMARK  7 active torsions:
REMARK  status: ('A' for Active; 'I' for Inactive)
REMARK    1  A    between atoms: C_2  and  C_3 
REMARK    2  A    between atoms: C_3  and  C_4 
REMARK    3  A    between atoms: C_8  and  C_9 
REMARK       I    between atoms: C_9  and  N_10 
REMARK    4  A    between atoms: N_10  and  C_11 
REMARK    5  A    between atoms: C_12  and  O_13 
REMARK    6  A    between atoms: O_13  and  C_14 
REMARK    7  A    between atoms: C_14  and  C_15 
ROOT
HETATM    1  C   UNL     1     -42.594  55.996 -53.042  1.00  0.00     0.113 C 
HETATM    2  C   UNL     1     -42.911  54.477 -53.053  1.00  0.00     0.144 C 
HETATM    3  C   UNL     1     -42.827  53.907 -51.632  1.00  0.00     0.034 C 
HETATM    4  C   UNL     1     -43.741  54.649 -50.664  1.00  0.00     0.003 C 
HETATM    5  C   UNL     1     -43.480  56.150 -50.677  1.00  0.00     0.002 C 
HETATM    6  C   UNL     1     -43.554  56.725 -52.089  1.00  0.00     0.028 C 
ENDROOT
BRANCH   1   7
HETATM    7  N   UNL     1     -42.656  56.535 -54.403  1.00  0.00    -0.349 N 
HETATM    8  C   UNL     1     -43.852  56.849 -55.006  1.00  0.00     0.270 C 
HETATM    9  O   UNL     1     -44.943  56.564 -54.520  1.00  0.00    -0.266 OA
HETATM   10  H   UNL     1     -41.853  57.083 -54.686  1.00  0.00     0.163 HD
BRANCH   8  11
HETATM   11  C   UNL     1     -43.744  57.564 -56.249  1.00  0.00     0.119 A 
HETATM   12  N   UNL     1     -44.791  57.613 -57.131  1.00  0.00    -0.273 N 
HETATM   13  N   UNL     1     -44.540  58.323 -58.243  1.00  0.00    -0.179 NA
HETATM   14  H   UNL     1     -45.701  57.177 -57.017  1.00  0.00     0.189 HD
HETATM   15  C   UNL     1     -43.281  58.742 -58.081  1.00  0.00     0.057 A 
HETATM   16  C   UNL     1     -42.736  58.287 -56.855  1.00  0.00     0.065 A 
BRANCH  15  17
HETATM   17  C   UNL     1     -42.622  59.575 -59.129  1.00  0.00     0.061 C 
BRANCH  17  18
HETATM   18  C   UNL     1     -42.392  58.828 -60.446  1.00  0.00     0.002 C 
HETATM   19  C   UNL     1     -41.732  57.470 -60.256  1.00  0.00     0.005 C 
ENDBRANCH  17  18
ENDBRANCH  15  17
ENDBRANCH   8  11
ENDBRANCH   1   7
BRANCH   2  20
HETATM   20  O   UNL     1     -41.970  53.843 -53.935  1.00  0.00    -0.379 OA
BRANCH  20  21
HETATM   21  C   UNL     1     -40.653  53.738 -53.392  1.00  0.00     0.206 C 
BRANCH  21  22
HETATM   22  C   UNL     1     -40.238  52.297 -53.216  1.00  0.00    -0.035 A 
HETATM   23  C   UNL     1     -39.764  51.795 -51.996  1.00  0.00     0.009 A 
HETATM   24  C   UNL     1     -39.432  50.444 -51.863  1.00  0.00     0.001 A 
HETATM   25  C   UNL     1     -39.579  49.578 -52.943  1.00  0.00     0.000 A 
HETATM   26  C   UNL     1     -40.059  50.059 -54.159  1.00  0.00     0.001 A 
HETATM   27  C   UNL     1     -40.388  51.409 -54.294  1.00  0.00     0.009 A 
ENDBRANCH  21  22
ENDBRANCH  20  21
ENDBRANCH   2  20
TORSDOF 7
ENDMDL
MODEL 7
REMARK VINA RESULT:      -7.1     14.995     17.166
REMARK  7 active torsions:
REMARK  status: ('A' for Active; 'I' for Inactive)
REMARK    1  A    between atoms: C_2  and  C_3 
REMARK    2  A    between atoms: C_3  and  C_4 
REMARK    3  A    between atoms: C_8  and  C_9 
REMARK       I    between atoms: C_9  and  N_10 
REMARK    4  A    between atoms: N_10  and  C_11 
REMARK    5  A    between atoms: C_12  and  O_13 
REMARK    6  A    between atoms: O_13  and  C_14 
REMARK    7  A    between atoms: C_14  and  C_15 
ROOT
HETATM    1  C   UNL     1     -33.867  39.143 -53.184  1.00  0.00     0.113 C 
HETATM    2  C   UNL     1     -34.114  40.609 -52.739  1.00  0.00     0.144 C 
HETATM    3  C   UNL     1     -33.699  40.797 -51.275  1.00  0.00     0.034 C 
HETATM    4  C   UNL     1     -32.249  40.391 -51.037  1.00  0.00     0.003 C 
HETATM    5  C   UNL     1     -31.972  38.970 -51.515  1.00  0.00     0.002 C 
HETATM    6  C   UNL     1     -32.391  38.773 -52.969  1.00  0.00     0.028 C 
ENDROOT
BRANCH   1   7
HETATM    7  N   UNL     1     -34.283  38.961 -54.577  1.00  0.00    -0.349 N 
HETATM    8  C   UNL     1     -35.408  38.242 -54.911  1.00  0.00     0.270 C 
HETATM    9  O   UNL     1     -36.048  37.583 -54.097  1.00  0.00    -0.266 OA
HETATM   10  H   UNL     1     -34.030  39.714 -55.204  1.00  0.00     0.163 HD
BRANCH   8  11
HETATM   11  C   UNL     1     -35.806  38.331 -56.290  1.00  0.00     0.119 A 
HETATM   12  N   UNL     1     -37.117  38.183 -56.660  1.00  0.00    -0.273 N 
HETATM   13  N   UNL     1     -37.332  38.298 -57.980  1.00  0.00    -0.179 NA
HETATM   14  H   UNL     1     -37.904  38.004 -56.044  1.00  0.00     0.189 HD
HETATM   15  C   UNL     1     -36.115  38.520 -58.487  1.00  0.00     0.057 A 
HETATM   16  C   UNL     1     -35.126  38.541 -57.473  1.00  0.00     0.065 A 
BRANCH  15  17
HETATM   17  C   UNL     1     -35.931  38.700 -59.957  1.00  0.00     0.061 C 
BRANCH  17  18
HETATM   18  C   UNL     1     -36.955  39.648 -60.587  1.00  0.00     0.002 C 
HETATM   19  C   UNL     1     -37.622  39.068 -61.827  1.00  0.00     0.005 C 
ENDBRANCH  17  18
ENDBRANCH  15  17
ENDBRANCH   8  11
ENDBRANCH   1   7
BRANCH   2  20
HETATM   20  O   UNL     1     -35.509  40.892 -52.935  1.00  0.00    -0.379 OA
BRANCH  20  21
HETATM   21  C   UNL     1     -35.763  42.196 -53.462  1.00  0.00     0.206 C 
BRANCH  21  22
HETATM   22  C   UNL     1     -35.974  42.159 -54.958  1.00  0.00    -0.035 A 
HETATM   23  C   UNL     1     -34.923  42.330 -55.869  1.00  0.00     0.009 A 
HETATM   24  C   UNL     1     -35.152  42.244 -57.245  1.00  0.00     0.001 A 
HETATM   25  C   UNL     1     -36.432  41.977 -57.725  1.00  0.00     0.000 A 
HETATM   26  C   UNL     1     -37.485  41.794 -56.832  1.00  0.00     0.001 A 
HETATM   27  C   UNL     1     -37.258  41.882 -55.458  1.00  0.00     0.009 A 
ENDBRANCH  21  22
ENDBRANCH  20  21
ENDBRANCH   2  20
TORSDOF 7
ENDMDL
MODEL 8
REMARK VINA RESULT:      -7.0      2.217      5.106
REMARK  7 active torsions:
REMARK  status: ('A' for Active; 'I' for Inactive)
REMARK    1  A    between atoms: C_2  and  C_3 
REMARK    2  A    between atoms: C_3  and  C_4 
REMARK    3  A    between atoms: C_8  and  C_9 
REMARK       I    between atoms: C_9  and  N_10 
REMARK    4  A    between atoms: N_10  and  C_11 
REMARK    5  A    between atoms: C_12  and  O_13 
REMARK    6  A    between atoms: O_13  and  C_14 
REMARK    7  A    between atoms: C_14  and  C_15 
ROOT
HETATM    1  C   UNL     1     -41.207  53.559 -53.776  1.00  0.00     0.113 C 
HETATM    2  C   UNL     1     -40.730  54.034 -52.378  1.00  0.00     0.144 C 
HETATM    3  C   UNL     1     -40.444  52.827 -51.475  1.00  0.00     0.034 C 
HETATM    4  C   UNL     1     -39.435  51.872 -52.102  1.00  0.00     0.003 C 
HETATM    5  C   UNL     1     -39.861  51.434 -53.498  1.00  0.00     0.002 C 
HETATM    6  C   UNL     1     -40.155  52.629 -54.400  1.00  0.00     0.028 C 
ENDROOT
BRANCH   1   7
HETATM    7  N   UNL     1     -41.497  54.713 -54.629  1.00  0.00    -0.349 N 
HETATM    8  C   UNL     1     -42.642  54.784 -55.391  1.00  0.00     0.270 C 
HETATM    9  O   UNL     1     -43.414  53.840 -55.530  1.00  0.00    -0.266 OA
HETATM   10  H   UNL     1     -41.120  55.595 -54.305  1.00  0.00     0.163 HD
BRANCH   8  11
HETATM   11  C   UNL     1     -42.892  56.060 -56.005  1.00  0.00     0.119 A 
HETATM   12  N   UNL     1     -42.102  56.523 -57.024  1.00  0.00    -0.273 N 
HETATM   13  N   UNL     1     -42.465  57.726 -57.498  1.00  0.00    -0.179 NA
HETATM   14  H   UNL     1     -41.301  56.051 -57.433  1.00  0.00     0.189 HD
HETATM   15  C   UNL     1     -43.524  58.059 -56.754  1.00  0.00     0.057 A 
HETATM   16  C   UNL     1     -43.826  57.056 -55.801  1.00  0.00     0.065 A 
BRANCH  15  17
HETATM   17  C   UNL     1     -44.224  59.359 -56.977  1.00  0.00     0.061 C 
BRANCH  17  18
HETATM   18  C   UNL     1     -45.255  59.310 -58.107  1.00  0.00     0.002 C 
HETATM   19  C   UNL     1     -46.567  58.659 -57.692  1.00  0.00     0.005 C 
ENDBRANCH  17  18
ENDBRANCH  15  17
ENDBRANCH   8  11
ENDBRANCH   1   7
BRANCH   2  20
HETATM   20  O   UNL     1     -41.758  54.875 -51.830  1.00  0.00    -0.379 OA
BRANCH  20  21
HETATM   21  C   UNL     1     -41.261  56.062 -51.210  1.00  0.00     0.206 C 
BRANCH  21  22
HETATM   22  C   UNL     1     -41.621  57.296 -52.005  1.00  0.00    -0.035 A 
HETATM   23  C   UNL     1     -40.820  57.774 -53.052  1.00  0.00     0.009 A 
HETATM   24  C   UNL     1     -41.210  58.893 -53.792  1.00  0.00     0.001 A 
HETATM   25  C   UNL     1     -42.409  59.541 -53.501  1.00  0.00     0.000 A 
HETATM   26  C   UNL     1     -43.221  59.071 -52.471  1.00  0.00     0.001 A 
HETATM   27  C   UNL     1     -42.830  57.955 -51.729  1.00  0.00     0.009 A 
ENDBRANCH  21  22
ENDBRANCH  20  21
ENDBRANCH   2  20
TORSDOF 7
ENDMDL
MODEL 9
REMARK VINA RESULT:      -7.0      2.651      7.078
REMARK  7 active torsions:
REMARK  status: ('A' for Active; 'I' for Inactive)
REMARK    1  A    between atoms: C_2  and  C_3 
REMARK    2  A    between atoms: C_3  and  C_4 
REMARK    3  A    between atoms: C_8  and  C_9 
REMARK       I    between atoms: C_9  and  N_10 
REMARK    4  A    between atoms: N_10  and  C_11 
REMARK    5  A    between atoms: C_12  and  O_13 
REMARK    6  A    between atoms: O_13  and  C_14 
REMARK    7  A    between atoms: C_14  and  C_15 
ROOT
HETATM    1  C   UNL     1     -41.280  54.518 -52.692  1.00  0.00     0.113 C 
HETATM    2  C   UNL     1     -41.604  54.055 -54.137  1.00  0.00     0.144 C 
HETATM    3  C   UNL     1     -40.450  53.215 -54.697  1.00  0.00     0.034 C 
HETATM    4  C   UNL     1     -40.122  52.025 -53.802  1.00  0.00     0.003 C 
HETATM    5  C   UNL     1     -39.851  52.456 -52.365  1.00  0.00     0.002 C 
HETATM    6  C   UNL     1     -40.992  53.299 -51.802  1.00  0.00     0.028 C 
ENDROOT
BRANCH   1   7
HETATM    7  N   UNL     1     -42.375  55.336 -52.166  1.00  0.00    -0.349 N 
HETATM    8  C   UNL     1     -42.188  56.648 -51.794  1.00  0.00     0.270 C 
HETATM    9  O   UNL     1     -41.082  57.176 -51.730  1.00  0.00    -0.266 OA
HETATM   10  H   UNL     1     -43.297  55.095 -52.509  1.00  0.00     0.163 HD
BRANCH   8  11
HETATM   11  C   UNL     1     -43.391  57.381 -51.502  1.00  0.00     0.119 A 
HETATM   12  N   UNL     1     -44.514  56.744 -51.041  1.00  0.00    -0.273 N 
HETATM   13  N   UNL     1     -45.553  57.562 -50.809  1.00  0.00    -0.179 NA
HETATM   14  H   UNL     1     -44.618  55.749 -50.866  1.00  0.00     0.189 HD
HETATM   15  C   UNL     1     -45.091  58.772 -51.140  1.00  0.00     0.057 A 
HETATM   16  C   UNL     1     -43.749  58.712 -51.588  1.00  0.00     0.065 A 
BRANCH  15  17
HETATM   17  C   UNL     1     -45.970  59.973 -51.024  1.00  0.00     0.061 C 
BRANCH  17  18
HETATM   18  C   UNL     1     -45.276  61.176 -50.380  1.00  0.00     0.002 C 
HETATM   19  C   UNL     1     -45.109  61.034 -48.873  1.00  0.00     0.005 C 
ENDBRANCH  17  18
ENDBRANCH  15  17
ENDBRANCH   8  11
ENDBRANCH   1   7
BRANCH   2  20
HETATM   20  O   UNL     1     -41.837  55.231 -54.928  1.00  0.00    -0.379 OA
BRANCH  20  21
HETATM   21  C   UNL     1     -42.985  55.137 -55.774  1.00  0.00     0.206 C 
BRANCH  21  22
HETATM   22  C   UNL     1     -42.843  56.006 -57.002  1.00  0.00    -0.035 A 
HETATM   23  C   UNL     1     -42.360  57.320 -56.939  1.00  0.00     0.009 A 
HETATM   24  C   UNL     1     -42.202  58.076 -58.104  1.00  0.00     0.001 A 
HETATM   25  C   UNL     1     -42.516  57.525 -59.344  1.00  0.00     0.000 A 
HETATM   26  C   UNL     1     -42.988  56.216 -59.423  1.00  0.00     0.001 A 
HETATM   27  C   UNL     1     -43.149  55.462 -58.260  1.00  0.00     0.009 A 
ENDBRANCH  21  22
ENDBRANCH  20  21
ENDBRANCH   2  20
TORSDOF 7
ENDMDL
MODEL 10
REMARK VINA RESULT:      -7.0     14.539     16.346
REMARK  7 active torsions:
REMARK  status: ('A' for Active; 'I' for Inactive)
REMARK    1  A    between atoms: C_2  and  C_3 
REMARK    2  A    between atoms: C_3  and  C_4 
REMARK    3  A    between atoms: C_8  and  C_9 
REMARK       I    between atoms: C_9  and  N_10 
REMARK    4  A    between atoms: N_10  and  C_11 
REMARK    5  A    between atoms: C_12  and  O_13 
REMARK    6  A    between atoms: O_13  and  C_14 
REMARK    7  A    between atoms: C_14  and  C_15 
ROOT
HETATM    1  C   UNL     1     -35.820  40.374 -51.232  1.00  0.00     0.113 C 
HETATM    2  C   UNL     1     -34.681  39.326 -51.130  1.00  0.00     0.144 C 
HETATM    3  C   UNL     1     -34.394  38.995 -49.660  1.00  0.00     0.034 C 
HETATM    4  C   UNL     1     -35.644  38.517 -48.929  1.00  0.00     0.003 C 
HETATM    5  C   UNL     1     -36.792  39.511 -49.061  1.00  0.00     0.002 C 
HETATM    6  C   UNL     1     -37.078  39.852 -50.521  1.00  0.00     0.028 C 
ENDROOT
BRANCH   1   7
HETATM    7  N   UNL     1     -36.079  40.704 -52.636  1.00  0.00    -0.349 N 
HETATM    8  C   UNL     1     -35.767  41.936 -53.162  1.00  0.00     0.270 C 
HETATM    9  O   UNL     1     -35.398  42.885 -52.475  1.00  0.00    -0.266 OA
HETATM   10  H   UNL     1     -36.042  39.921 -53.277  1.00  0.00     0.163 HD
BRANCH   8  11
HETATM   11  C   UNL     1     -35.878  42.039 -54.593  1.00  0.00     0.119 A 
HETATM   12  N   UNL     1     -34.853  42.546 -55.348  1.00  0.00    -0.273 N 
HETATM   13  N   UNL     1     -35.103  42.572 -56.667  1.00  0.00    -0.179 NA
HETATM   14  H   UNL     1     -33.959  42.887 -55.007  1.00  0.00     0.189 HD
HETATM   15  C   UNL     1     -36.339  42.072 -56.770  1.00  0.00     0.057 A 
HETATM   16  C   UNL     1     -36.870  41.732 -55.502  1.00  0.00     0.065 A 
BRANCH  15  17
HETATM   17  C   UNL     1     -36.990  41.940 -58.107  1.00  0.00     0.061 C 
BRANCH  17  18
HETATM   18  C   UNL     1     -36.962  40.513 -58.660  1.00  0.00     0.002 C 
HETATM   19  C   UNL     1     -38.351  39.928 -58.876  1.00  0.00     0.005 C 
ENDBRANCH  17  18
ENDBRANCH  15  17
ENDBRANCH   8  11
ENDBRANCH   1   7
BRANCH   2  20
HETATM   20  O   UNL     1     -33.526  39.875 -51.785  1.00  0.00    -0.379 OA
BRANCH  20  21
HETATM   21  C   UNL     1     -32.817  38.930 -52.589  1.00  0.00     0.206 C 
BRANCH  21  22
HETATM   22  C   UNL     1     -32.997  39.208 -54.062  1.00  0.00    -0.035 A 
HETATM   23  C   UNL     1     -32.073  39.958 -54.803  1.00  0.00     0.009 A 
HETATM   24  C   UNL     1     -32.253  40.155 -56.175  1.00  0.00     0.001 A 
HETATM   25  C   UNL     1     -33.353  39.599 -56.823  1.00  0.00     0.000 A 
HETATM   26  C   UNL     1     -34.274  38.842 -56.103  1.00  0.00     0.001 A 
HETATM   27  C   UNL     1     -34.097  38.647 -54.732  1.00  0.00     0.009 A 
ENDBRANCH  21  22
ENDBRANCH  20  21
ENDBRANCH   2  20
TORSDOF 7
ENDMDL
