MODEL 1
REMARK VINA RESULT:      -7.7      0.000      0.000
REMARK  6 active torsions:
REMARK  status: ('A' for Active; 'I' for Inactive)
REMARK    1  A    between atoms: C_5  and  N_6 
REMARK    2  A    between atoms: N_6  and  C_7 
REMARK    3  A    between atoms: C_7  and  C_8 
REMARK    4  A    between atoms: N_10  and  C_12 
REMARK    5  A    between atoms: C_12  and  C_13 
REMARK    6  A    between atoms: C_14  and  O_15 
ROOT
HETATM    1  C   UNL     1     -44.152  56.623 -54.311  1.00  0.00     0.031 C 
HETATM    2  C   UNL     1     -43.558  55.223 -54.164  1.00  0.00     0.241 C 
HETATM    3  N   UNL     1     -42.567  55.322 -53.030  1.00  0.00    -0.067 N 
HETATM    4  H   UNL     1     -42.771  54.533 -52.386  1.00  0.00     0.280 HD
HETATM    5  C   UNL     1     -42.807  56.612 -52.295  1.00  0.00     0.235 C 
HETATM    6  C   UNL     1     -44.116  57.135 -52.871  1.00  0.00     0.035 C 
ENDROOT
BRANCH   1   7
HETATM    7  C   UNL     1     -43.371  57.523 -55.287  1.00  0.00     0.127 C 
BRANCH   7   8
HETATM    8  N   UNL     1     -42.637  56.713 -56.251  1.00  0.00    -0.376 N 
HETATM    9  H   UNL     1     -41.619  56.799 -56.151  1.00  0.00     0.161 HD
BRANCH   8  10
HETATM   10  C   UNL     1     -42.952  56.551 -57.597  1.00  0.00     0.101 A 
HETATM   11  N   UNL     1     -43.640  55.501 -58.075  1.00  0.00    -0.347 N 
HETATM   12  C   UNL     1     -43.940  55.337 -59.381  1.00  0.00     0.007 A 
HETATM   13  H   UNL     1     -43.979  54.804 -57.425  1.00  0.00     0.167 HD
HETATM   14  C   UNL     1     -44.757  54.154 -59.796  1.00  0.00     0.068 C 
HETATM   15  C   UNL     1     -43.499  56.278 -60.308  1.00  0.00     0.025 A 
HETATM   16  C   UNL     1     -42.760  57.368 -59.871  1.00  0.00     0.006 A 
HETATM   17  C   UNL     1     -42.486  57.504 -58.516  1.00  0.00     0.048 A 
ENDBRANCH   8  10
ENDBRANCH   7   8
ENDBRANCH   1   7
BRANCH   3  18
HETATM   18  C   UNL     1     -41.122  55.075 -53.389  1.00  0.00     0.276 C 
BRANCH  18  19
HETATM   19  C   UNL     1     -40.594  53.766 -52.870  1.00  0.00     0.002 A 
HETATM   20  C   UNL     1     -40.304  53.592 -51.511  1.00  0.00     0.073 A 
HETATM   21  C   UNL     1     -39.818  52.381 -51.023  1.00  0.00     0.038 A 
HETATM   22  C   UNL     1     -39.621  51.315 -51.902  1.00  0.00     0.022 A 
HETATM   23  C   UNL     1     -39.903  51.474 -53.257  1.00  0.00     0.011 A 
HETATM   24 BR   UNL     1     -39.663  50.026 -54.447  1.00  0.00    -0.051 Br
HETATM   25  C   UNL     1     -40.376  52.692 -53.747  1.00  0.00     0.030 A 
BRANCH  20  26
HETATM   26  O   UNL     1     -40.542  54.638 -50.662  1.00  0.00    -0.360 OA
HETATM   27  H   UNL     1     -41.481  54.587 -50.380  1.00  0.00     0.217 HD
ENDBRANCH  20  26
ENDBRANCH  18  19
ENDBRANCH   3  18
TORSDOF 6
ENDMDL
MODEL 2
REMARK VINA RESULT:      -7.4      1.623      2.002
REMARK  6 active torsions:
REMARK  status: ('A' for Active; 'I' for Inactive)
REMARK    1  A    between atoms: C_5  and  N_6 
REMARK    2  A    between atoms: N_6  and  C_7 
REMARK    3  A    between atoms: C_7  and  C_8 
REMARK    4  A    between atoms: N_10  and  C_12 
REMARK    5  A    between atoms: C_12  and  C_13 
REMARK    6  A    between atoms: C_14  and  O_15 
ROOT
HETATM    1  C   UNL     1     -44.650  57.387 -54.335  1.00  0.00     0.031 C 
HETATM    2  C   UNL     1     -43.891  56.126 -53.923  1.00  0.00     0.241 C 
HETATM    3  N   UNL     1     -42.927  56.570 -52.849  1.00  0.00    -0.067 N 
HETATM    4  H   UNL     1     -43.037  55.906 -52.058  1.00  0.00     0.280 HD
HETATM    5  C   UNL     1     -43.328  57.941 -52.382  1.00  0.00     0.235 C 
HETATM    6  C   UNL     1     -44.687  58.177 -53.027  1.00  0.00     0.035 C 
ENDROOT
BRANCH   1   7
HETATM    7  C   UNL     1     -43.978  58.161 -55.484  1.00  0.00     0.127 C 
BRANCH   7   8
HETATM    8  N   UNL     1     -43.023  57.310 -56.183  1.00  0.00    -0.376 N 
HETATM    9  H   UNL     1     -42.050  57.504 -55.921  1.00  0.00     0.161 HD
BRANCH   8  10
HETATM   10  C   UNL     1     -43.070  56.951 -57.527  1.00  0.00     0.101 A 
HETATM   11  N   UNL     1     -43.726  55.871 -57.983  1.00  0.00    -0.347 N 
HETATM   12  C   UNL     1     -43.767  55.516 -59.285  1.00  0.00     0.007 A 
HETATM   13  H   UNL     1     -44.241  55.301 -57.324  1.00  0.00     0.167 HD
HETATM   14  C   UNL     1     -44.571  54.320 -59.687  1.00  0.00     0.068 C 
HETATM   15  C   UNL     1     -43.077  56.280 -60.224  1.00  0.00     0.025 A 
HETATM   16  C   UNL     1     -42.362  57.391 -59.803  1.00  0.00     0.006 A 
HETATM   17  C   UNL     1     -42.358  57.726 -58.455  1.00  0.00     0.048 A 
ENDBRANCH   8  10
ENDBRANCH   7   8
ENDBRANCH   1   7
BRANCH   3  18
HETATM   18  C   UNL     1     -41.459  56.432 -53.177  1.00  0.00     0.276 C 
BRANCH  18  19
HETATM   19  C   UNL     1     -41.000  55.004 -53.267  1.00  0.00     0.002 A 
HETATM   20  C   UNL     1     -40.691  54.421 -54.503  1.00  0.00     0.073 A 
HETATM   21  C   UNL     1     -40.262  53.099 -54.593  1.00  0.00     0.038 A 
HETATM   22  C   UNL     1     -40.129  52.338 -53.431  1.00  0.00     0.022 A 
HETATM   23  C   UNL     1     -40.435  52.903 -52.194  1.00  0.00     0.011 A 
HETATM   24 BR   UNL     1     -40.232  51.886 -50.616  1.00  0.00    -0.051 Br
HETATM   25  C   UNL     1     -40.879  54.224 -52.107  1.00  0.00     0.030 A 
BRANCH  20  26
HETATM   26  O   UNL     1     -40.790  55.198 -55.624  1.00  0.00    -0.360 OA
HETATM   27  H   UNL     1     -40.107  54.894 -56.260  1.00  0.00     0.217 HD
ENDBRANCH  20  26
ENDBRANCH  18  19
ENDBRANCH   3  18
TORSDOF 6
ENDMDL
MODEL 3
REMARK VINA RESULT:      -7.3      3.427      7.742
REMARK  6 active torsions:
REMARK  status: ('A' for Active; 'I' for Inactive)
REMARK    1  A    between atoms: C_5  and  N_6 
REMARK    2  A    between atoms: N_6  and  C_7 
REMARK    3  A    between atoms: C_7  and  C_8 
REMARK    4  A    between atoms: N_10  and  C_12 
REMARK    5  A    between atoms: C_12  and  C_13 
REMARK    6  A    between atoms: C_14  and  O_15 
ROOT
HETATM    1  C   UNL     1     -41.970  56.006 -54.033  1.00  0.00     0.031 C 
HETATM    2  C   UNL     1     -42.404  56.577 -55.382  1.00  0.00     0.241 C 
HETATM    3  N   UNL     1     -43.332  55.546 -55.977  1.00  0.00    -0.067 N 
HETATM    4  H   UNL     1     -44.183  56.054 -56.288  1.00  0.00     0.280 HD
HETATM    5  C   UNL     1     -43.723  54.574 -54.899  1.00  0.00     0.235 C 
HETATM    6  C   UNL     1     -43.206  55.208 -53.615  1.00  0.00     0.035 C 
ENDROOT
BRANCH   1   7
HETATM    7  C   UNL     1     -40.697  55.143 -54.112  1.00  0.00     0.127 C 
BRANCH   7   8
HETATM    8  N   UNL     1     -40.656  54.192 -53.008  1.00  0.00    -0.376 N 
HETATM    9  H   UNL     1     -40.213  54.578 -52.166  1.00  0.00     0.161 HD
BRANCH   8  10
HETATM   10  C   UNL     1     -40.355  52.836 -53.101  1.00  0.00     0.101 A 
HETATM   11  N   UNL     1     -40.008  52.080 -52.047  1.00  0.00    -0.347 N 
HETATM   12  C   UNL     1     -39.709  50.767 -52.135  1.00  0.00     0.007 A 
HETATM   13  H   UNL     1     -39.994  52.504 -51.128  1.00  0.00     0.167 HD
HETATM   14  C   UNL     1     -39.385  50.010 -50.886  1.00  0.00     0.068 C 
HETATM   15  C   UNL     1     -39.726  50.144 -53.382  1.00  0.00     0.025 A 
HETATM   16  C   UNL     1     -40.051  50.885 -54.507  1.00  0.00     0.006 A 
HETATM   17  C   UNL     1     -40.365  52.232 -54.367  1.00  0.00     0.048 A 
ENDBRANCH   8  10
ENDBRANCH   7   8
ENDBRANCH   1   7
BRANCH   3  18
HETATM   18  C   UNL     1     -42.865  54.895 -57.257  1.00  0.00     0.276 C 
BRANCH  18  19
HETATM   19  C   UNL     1     -43.569  55.413 -58.480  1.00  0.00     0.002 A 
HETATM   20  C   UNL     1     -44.388  54.578 -59.251  1.00  0.00     0.073 A 
HETATM   21  C   UNL     1     -45.046  55.052 -60.384  1.00  0.00     0.038 A 
HETATM   22  C   UNL     1     -44.893  56.388 -60.758  1.00  0.00     0.022 A 
HETATM   23  C   UNL     1     -44.080  57.230 -60.003  1.00  0.00     0.011 A 
HETATM   24 BR   UNL     1     -43.892  59.046 -60.491  1.00  0.00    -0.051 Br
HETATM   25  C   UNL     1     -43.411  56.750 -58.876  1.00  0.00     0.030 A 
BRANCH  20  26
HETATM   26  O   UNL     1     -44.554  53.282 -58.842  1.00  0.00    -0.360 OA
HETATM   27  H   UNL     1     -45.185  53.285 -58.090  1.00  0.00     0.217 HD
ENDBRANCH  20  26
ENDBRANCH  18  19
ENDBRANCH   3  18
TORSDOF 6
ENDMDL
MODEL 4
REMARK VINA RESULT:      -7.1      2.733      4.498
REMARK  6 active torsions:
REMARK  status: ('A' for Active; 'I' for Inactive)
REMARK    1  A    between atoms: C_5  and  N_6 
REMARK    2  A    between atoms: N_6  and  C_7 
REMARK    3  A    between atoms: C_7  and  C_8 
REMARK    4  A    between atoms: N_10  and  C_12 
REMARK    5  A    between atoms: C_12  and  C_13 
REMARK    6  A    between atoms: C_14  and  O_15 
ROOT
HETATM    1  C   UNL     1     -41.038  54.035 -54.925  1.00  0.00     0.031 C 
HETATM    2  C   UNL     1     -40.673  55.035 -53.828  1.00  0.00     0.241 C 
HETATM    3  N   UNL     1     -40.584  54.224 -52.557  1.00  0.00    -0.067 N 
HETATM    4  H   UNL     1     -39.684  54.479 -52.105  1.00  0.00     0.280 HD
HETATM    5  C   UNL     1     -40.541  52.766 -52.921  1.00  0.00     0.235 C 
HETATM    6  C   UNL     1     -40.353  52.760 -54.432  1.00  0.00     0.035 C 
ENDROOT
BRANCH   1   7
HETATM    7  C   UNL     1     -42.556  53.864 -55.120  1.00  0.00     0.127 C 
BRANCH   7   8
HETATM    8  N   UNL     1     -43.177  55.143 -55.440  1.00  0.00    -0.376 N 
HETATM    9  H   UNL     1     -44.120  55.238 -55.046  1.00  0.00     0.161 HD
BRANCH   8  10
HETATM   10  C   UNL     1     -43.126  55.797 -56.667  1.00  0.00     0.101 A 
HETATM   11  N   UNL     1     -43.620  55.279 -57.804  1.00  0.00    -0.347 N 
HETATM   12  C   UNL     1     -43.566  55.908 -58.997  1.00  0.00     0.007 A 
HETATM   13  H   UNL     1     -44.084  54.381 -57.768  1.00  0.00     0.167 HD
HETATM   14  C   UNL     1     -44.194  55.259 -60.190  1.00  0.00     0.068 C 
HETATM   15  C   UNL     1     -42.944  57.152 -59.087  1.00  0.00     0.025 A 
HETATM   16  C   UNL     1     -42.393  57.720 -57.949  1.00  0.00     0.006 A 
HETATM   17  C   UNL     1     -42.484  57.043 -56.738  1.00  0.00     0.048 A 
ENDBRANCH   8  10
ENDBRANCH   7   8
ENDBRANCH   1   7
BRANCH   3  18
HETATM   18  C   UNL     1     -41.588  54.565 -51.483  1.00  0.00     0.276 C 
BRANCH  18  19
HETATM   19  C   UNL     1     -41.998  56.011 -51.487  1.00  0.00     0.002 A 
HETATM   20  C   UNL     1     -43.241  56.408 -51.995  1.00  0.00     0.073 A 
HETATM   21  C   UNL     1     -43.629  57.746 -51.999  1.00  0.00     0.038 A 
HETATM   22  C   UNL     1     -42.767  58.713 -51.480  1.00  0.00     0.022 A 
HETATM   23  C   UNL     1     -41.526  58.334 -50.972  1.00  0.00     0.011 A 
HETATM   24 BR   UNL     1     -40.366  59.635 -50.244  1.00  0.00    -0.051 Br
HETATM   25  C   UNL     1     -41.133  56.994 -50.982  1.00  0.00     0.030 A 
BRANCH  20  26
HETATM   26  O   UNL     1     -44.086  55.438 -52.462  1.00  0.00    -0.360 OA
HETATM   27  H   UNL     1     -43.639  54.572 -52.349  1.00  0.00     0.217 HD
ENDBRANCH  20  26
ENDBRANCH  18  19
ENDBRANCH   3  18
TORSDOF 6
ENDMDL
MODEL 5
REMARK VINA RESULT:      -6.9     14.603     15.845
REMARK  6 active torsions:
REMARK  status: ('A' for Active; 'I' for Inactive)
REMARK    1  A    between atoms: C_5  and  N_6 
REMARK    2  A    between atoms: N_6  and  C_7 
REMARK    3  A    between atoms: C_7  and  C_8 
REMARK    4  A    between atoms: N_10  and  C_12 
REMARK    5  A    between atoms: C_12  and  C_13 
REMARK    6  A    between atoms: C_14  and  O_15 
ROOT
HETATM    1  C   UNL     1     -35.411  41.876 -57.243  1.00  0.00     0.031 C 
HETATM    2  C   UNL     1     -35.136  42.586 -55.917  1.00  0.00     0.241 C 
HETATM    3  N   UNL     1     -35.409  41.558 -54.845  1.00  0.00    -0.067 N 
HETATM    4  H   UNL     1     -34.589  41.568 -54.208  1.00  0.00     0.280 HD
HETATM    5  C   UNL     1     -35.494  40.203 -55.492  1.00  0.00     0.235 C 
HETATM    6  C   UNL     1     -35.016  40.435 -56.919  1.00  0.00     0.035 C 
ENDROOT
BRANCH   1   7
HETATM    7  C   UNL     1     -36.871  42.006 -57.717  1.00  0.00     0.127 C 
BRANCH   7   8
HETATM    8  N   UNL     1     -36.968  41.740 -59.147  1.00  0.00    -0.376 N 
HETATM    9  H   UNL     1     -37.265  42.562 -59.686  1.00  0.00     0.161 HD
BRANCH   8  10
HETATM   10  C   UNL     1     -37.492  40.594 -59.737  1.00  0.00     0.101 A 
HETATM   11  N   UNL     1     -37.243  40.234 -61.007  1.00  0.00    -0.347 N 
HETATM   12  C   UNL     1     -37.755  39.127 -61.584  1.00  0.00     0.007 A 
HETATM   13  H   UNL     1     -36.616  40.805 -61.560  1.00  0.00     0.167 HD
HETATM   14  C   UNL     1     -37.369  38.796 -62.991  1.00  0.00     0.068 C 
HETATM   15  C   UNL     1     -38.616  38.310 -60.853  1.00  0.00     0.025 A 
HETATM   16  C   UNL     1     -38.928  38.650 -59.546  1.00  0.00     0.006 A 
HETATM   17  C   UNL     1     -38.366  39.793 -58.988  1.00  0.00     0.048 A 
ENDBRANCH   8  10
ENDBRANCH   7   8
ENDBRANCH   1   7
BRANCH   3  18
HETATM   18  C   UNL     1     -36.549  41.867 -53.905  1.00  0.00     0.276 C 
BRANCH  18  19
HETATM   19  C   UNL     1     -36.437  41.164 -52.581  1.00  0.00     0.002 A 
HETATM   20  C   UNL     1     -35.380  41.439 -51.705  1.00  0.00     0.073 A 
HETATM   21  C   UNL     1     -35.272  40.793 -50.474  1.00  0.00     0.038 A 
HETATM   22  C   UNL     1     -36.238  39.858 -50.102  1.00  0.00     0.022 A 
HETATM   23  C   UNL     1     -37.294  39.572 -50.964  1.00  0.00     0.011 A 
HETATM   24 BR   UNL     1     -38.619  38.326 -50.453  1.00  0.00    -0.051 Br
HETATM   25  C   UNL     1     -37.393  40.209 -52.202  1.00  0.00     0.030 A 
BRANCH  20  26
HETATM   26  O   UNL     1     -34.466  42.389 -52.074  1.00  0.00    -0.360 OA
HETATM   27  H   UNL     1     -34.315  42.298 -53.039  1.00  0.00     0.217 HD
ENDBRANCH  20  26
ENDBRANCH  18  19
ENDBRANCH   3  18
TORSDOF 6
ENDMDL
MODEL 6
REMARK VINA RESULT:      -6.8     14.823     16.384
REMARK  6 active torsions:
REMARK  status: ('A' for Active; 'I' for Inactive)
REMARK    1  A    between atoms: C_5  and  N_6 
REMARK    2  A    between atoms: N_6  and  C_7 
REMARK    3  A    between atoms: C_7  and  C_8 
REMARK    4  A    between atoms: N_10  and  C_12 
REMARK    5  A    between atoms: C_12  and  C_13 
REMARK    6  A    between atoms: C_14  and  O_15 
ROOT
HETATM    1  C   UNL     1     -37.220  40.558 -53.711  1.00  0.00     0.031 C 
HETATM    2  C   UNL     1     -35.862  39.918 -53.997  1.00  0.00     0.241 C 
HETATM    3  N   UNL     1     -34.879  41.063 -54.046  1.00  0.00    -0.067 N 
HETATM    4  H   UNL     1     -34.082  40.796 -53.437  1.00  0.00     0.280 HD
HETATM    5  C   UNL     1     -35.537  42.284 -53.467  1.00  0.00     0.235 C 
HETATM    6  C   UNL     1     -36.828  41.761 -52.852  1.00  0.00     0.035 C 
ENDROOT
BRANCH   1   7
HETATM    7  C   UNL     1     -37.993  40.955 -54.982  1.00  0.00     0.127 C 
BRANCH   7   8
HETATM    8  N   UNL     1     -37.561  40.147 -56.116  1.00  0.00    -0.376 N 
HETATM    9  H   UNL     1     -36.737  39.572 -55.904  1.00  0.00     0.161 HD
BRANCH   8  10
HETATM   10  C   UNL     1     -37.501  40.559 -57.444  1.00  0.00     0.101 A 
HETATM   11  N   UNL     1     -37.705  39.734 -58.484  1.00  0.00    -0.347 N 
HETATM   12  C   UNL     1     -37.641  40.129 -59.774  1.00  0.00     0.007 A 
HETATM   13  H   UNL     1     -37.948  38.769 -58.300  1.00  0.00     0.167 HD
HETATM   14  C   UNL     1     -37.937  39.136 -60.853  1.00  0.00     0.068 C 
HETATM   15  C   UNL     1     -37.319  41.452 -60.069  1.00  0.00     0.025 A 
HETATM   16  C   UNL     1     -37.072  42.339 -59.032  1.00  0.00     0.006 A 
HETATM   17  C   UNL     1     -37.163  41.892 -57.719  1.00  0.00     0.048 A 
ENDBRANCH   8  10
ENDBRANCH   7   8
ENDBRANCH   1   7
BRANCH   3  18
HETATM   18  C   UNL     1     -34.200  41.297 -55.375  1.00  0.00     0.276 C 
BRANCH  18  19
HETATM   19  C   UNL     1     -33.156  40.267 -55.700  1.00  0.00     0.002 A 
HETATM   20  C   UNL     1     -32.050  40.069 -54.864  1.00  0.00     0.073 A 
HETATM   21  C   UNL     1     -31.080  39.114 -55.158  1.00  0.00     0.038 A 
HETATM   22  C   UNL     1     -31.212  38.331 -56.306  1.00  0.00     0.022 A 
HETATM   23  C   UNL     1     -32.305  38.517 -57.149  1.00  0.00     0.011 A 
HETATM   24 BR   UNL     1     -32.503  37.441 -58.690  1.00  0.00    -0.051 Br
HETATM   25  C   UNL     1     -33.269  39.485 -56.860  1.00  0.00     0.030 A 
BRANCH  20  26
HETATM   26  O   UNL     1     -31.962  40.821 -53.724  1.00  0.00    -0.360 OA
HETATM   27  H   UNL     1     -32.423  40.333 -53.008  1.00  0.00     0.217 HD
ENDBRANCH  20  26
ENDBRANCH  18  19
ENDBRANCH   3  18
TORSDOF 6
ENDMDL
MODEL 7
REMARK VINA RESULT:      -6.8     14.773     16.383
REMARK  6 active torsions:
REMARK  status: ('A' for Active; 'I' for Inactive)
REMARK    1  A    between atoms: C_5  and  N_6 
REMARK    2  A    between atoms: N_6  and  C_7 
REMARK    3  A    between atoms: C_7  and  C_8 
REMARK    4  A    between atoms: N_10  and  C_12 
REMARK    5  A    between atoms: C_12  and  C_13 
REMARK    6  A    between atoms: C_14  and  O_15 
ROOT
HETATM    1  C   UNL     1     -36.310  42.292 -55.268  1.00  0.00     0.031 C 
HETATM    2  C   UNL     1     -35.573  42.031 -53.955  1.00  0.00     0.241 C 
HETATM    3  N   UNL     1     -34.370  41.197 -54.326  1.00  0.00    -0.067 N 
HETATM    4  H   UNL     1     -33.548  41.645 -53.877  1.00  0.00     0.280 HD
HETATM    5  C   UNL     1     -34.190  41.253 -55.817  1.00  0.00     0.235 C 
HETATM    6  C   UNL     1     -35.158  42.337 -56.273  1.00  0.00     0.035 C 
ENDROOT
BRANCH   1   7
HETATM    7  C   UNL     1     -37.361  41.219 -55.607  1.00  0.00     0.127 C 
BRANCH   7   8
HETATM    8  N   UNL     1     -37.975  41.496 -56.899  1.00  0.00    -0.376 N 
HETATM    9  H   UNL     1     -38.911  41.909 -56.816  1.00  0.00     0.161 HD
BRANCH   8  10
HETATM   10  C   UNL     1     -37.937  40.674 -58.021  1.00  0.00     0.101 A 
HETATM   11  N   UNL     1     -38.378  39.405 -58.024  1.00  0.00    -0.347 N 
HETATM   12  C   UNL     1     -38.335  38.602 -59.109  1.00  0.00     0.007 A 
HETATM   13  H   UNL     1     -38.790  39.031 -57.179  1.00  0.00     0.167 HD
HETATM   14  C   UNL     1     -38.902  37.220 -59.012  1.00  0.00     0.068 C 
HETATM   15  C   UNL     1     -37.783  39.082 -60.294  1.00  0.00     0.025 A 
HETATM   16  C   UNL     1     -37.289  40.377 -60.338  1.00  0.00     0.006 A 
HETATM   17  C   UNL     1     -37.365  41.172 -59.201  1.00  0.00     0.048 A 
ENDBRANCH   8  10
ENDBRANCH   7   8
ENDBRANCH   1   7
BRANCH   3  18
HETATM   18  C   UNL     1     -34.328  39.802 -53.750  1.00  0.00     0.276 C 
BRANCH  18  19
HETATM   19  C   UNL     1     -33.657  39.732 -52.407  1.00  0.00     0.002 A 
HETATM   20  C   UNL     1     -32.390  40.294 -52.202  1.00  0.00     0.073 A 
HETATM   21  C   UNL     1     -31.764  40.235 -50.958  1.00  0.00     0.038 A 
HETATM   22  C   UNL     1     -32.411  39.610 -49.891  1.00  0.00     0.022 A 
HETATM   23  C   UNL     1     -33.670  39.044 -50.080  1.00  0.00     0.011 A 
HETATM   24 BR   UNL     1     -34.562  38.221 -48.633  1.00  0.00    -0.051 Br
HETATM   25  C   UNL     1     -34.290  39.092 -51.330  1.00  0.00     0.030 A 
BRANCH  20  26
HETATM   26  O   UNL     1     -31.793  40.935 -53.252  1.00  0.00    -0.360 OA
HETATM   27  H   UNL     1     -31.451  40.250 -53.866  1.00  0.00     0.217 HD
ENDBRANCH  20  26
ENDBRANCH  18  19
ENDBRANCH   3  18
TORSDOF 6
ENDMDL
MODEL 8
REMARK VINA RESULT:      -6.8      1.702      2.031
REMARK  6 active torsions:
REMARK  status: ('A' for Active; 'I' for Inactive)
REMARK    1  A    between atoms: C_5  and  N_6 
REMARK    2  A    between atoms: N_6  and  C_7 
REMARK    3  A    between atoms: C_7  and  C_8 
REMARK    4  A    between atoms: N_10  and  C_12 
REMARK    5  A    between atoms: C_12  and  C_13 
REMARK    6  A    between atoms: C_14  and  O_15 
ROOT
HETATM    1  C   UNL     1     -42.685  58.958 -54.782  1.00  0.00     0.031 C 
HETATM    2  C   UNL     1     -43.537  58.036 -53.912  1.00  0.00     0.241 C 
HETATM    3  N   UNL     1     -42.574  57.036 -53.319  1.00  0.00    -0.067 N 
HETATM    4  H   UNL     1     -42.765  57.007 -52.299  1.00  0.00     0.280 HD
HETATM    5  C   UNL     1     -41.173  57.539 -53.529  1.00  0.00     0.235 C 
HETATM    6  C   UNL     1     -41.355  58.966 -54.028  1.00  0.00     0.035 C 
ENDROOT
BRANCH   1   7
HETATM    7  C   UNL     1     -42.546  58.473 -56.238  1.00  0.00     0.127 C 
BRANCH   7   8
HETATM    8  N   UNL     1     -43.808  57.922 -56.714  1.00  0.00    -0.376 N 
HETATM    9  H   UNL     1     -44.363  57.491 -55.966  1.00  0.00     0.161 HD
BRANCH   8  10
HETATM   10  C   UNL     1     -44.000  57.208 -57.894  1.00  0.00     0.101 A 
HETATM   11  N   UNL     1     -45.196  57.070 -58.489  1.00  0.00    -0.347 N 
HETATM   12  C   UNL     1     -45.387  56.372 -59.629  1.00  0.00     0.007 A 
HETATM   13  H   UNL     1     -45.999  57.533 -58.082  1.00  0.00     0.167 HD
HETATM   14  C   UNL     1     -46.755  56.327 -60.233  1.00  0.00     0.068 C 
HETATM   15  C   UNL     1     -44.306  55.727 -60.225  1.00  0.00     0.025 A 
HETATM   16  C   UNL     1     -43.053  55.815 -59.637  1.00  0.00     0.006 A 
HETATM   17  C   UNL     1     -42.901  56.555 -58.471  1.00  0.00     0.048 A 
ENDBRANCH   8  10
ENDBRANCH   7   8
ENDBRANCH   1   7
BRANCH   3  18
HETATM   18  C   UNL     1     -42.781  55.596 -53.724  1.00  0.00     0.276 C 
BRANCH  18  19
HETATM   19  C   UNL     1     -41.986  54.624 -52.898  1.00  0.00     0.002 A 
HETATM   20  C   UNL     1     -41.999  54.685 -51.499  1.00  0.00     0.073 A 
HETATM   21  C   UNL     1     -41.267  53.785 -50.727  1.00  0.00     0.038 A 
HETATM   22  C   UNL     1     -40.508  52.798 -51.357  1.00  0.00     0.022 A 
HETATM   23  C   UNL     1     -40.482  52.727 -52.749  1.00  0.00     0.011 A 
HETATM   24 BR   UNL     1     -39.477  51.376 -53.606  1.00  0.00    -0.051 Br
HETATM   25  C   UNL     1     -41.205  53.637 -53.520  1.00  0.00     0.030 A 
BRANCH  20  26
HETATM   26  O   UNL     1     -42.782  55.636 -50.903  1.00  0.00    -0.360 OA
HETATM   27  H   UNL     1     -42.417  56.515 -51.139  1.00  0.00     0.217 HD
ENDBRANCH  20  26
ENDBRANCH  18  19
ENDBRANCH   3  18
TORSDOF 6
ENDMDL
MODEL 9
REMARK VINA RESULT:      -6.7      2.999      7.076
REMARK  6 active torsions:
REMARK  status: ('A' for Active; 'I' for Inactive)
REMARK    1  A    between atoms: C_5  and  N_6 
REMARK    2  A    between atoms: N_6  and  C_7 
REMARK    3  A    between atoms: C_7  and  C_8 
REMARK    4  A    between atoms: N_10  and  C_12 
REMARK    5  A    between atoms: C_12  and  C_13 
REMARK    6  A    between atoms: C_14  and  O_15 
ROOT
HETATM    1  C   UNL     1     -42.274  56.659 -53.590  1.00  0.00     0.031 C 
HETATM    2  C   UNL     1     -41.882  57.148 -54.983  1.00  0.00     0.241 C 
HETATM    3  N   UNL     1     -42.496  58.520 -55.117  1.00  0.00    -0.067 N 
HETATM    4  H   UNL     1     -41.745  59.151 -55.459  1.00  0.00     0.280 HD
HETATM    5  C   UNL     1     -42.929  58.986 -53.755  1.00  0.00     0.235 C 
HETATM    6  C   UNL     1     -42.326  57.967 -52.798  1.00  0.00     0.035 C 
ENDROOT
BRANCH   1   7
HETATM    7  C   UNL     1     -43.607  55.888 -53.561  1.00  0.00     0.127 C 
BRANCH   7   8
HETATM    8  N   UNL     1     -43.507  54.729 -52.683  1.00  0.00    -0.376 N 
HETATM    9  H   UNL     1     -44.084  54.818 -51.838  1.00  0.00     0.161 HD
BRANCH   8  10
HETATM   10  C   UNL     1     -42.344  54.032 -52.370  1.00  0.00     0.101 A 
HETATM   11  N   UNL     1     -41.656  53.301 -53.262  1.00  0.00    -0.347 N 
HETATM   12  C   UNL     1     -40.532  52.618 -52.959  1.00  0.00     0.007 A 
HETATM   13  H   UNL     1     -41.975  53.278 -54.222  1.00  0.00     0.167 HD
HETATM   14  C   UNL     1     -39.816  51.878 -54.045  1.00  0.00     0.068 C 
HETATM   15  C   UNL     1     -40.054  52.631 -51.650  1.00  0.00     0.025 A 
HETATM   16  C   UNL     1     -40.743  53.348 -50.683  1.00  0.00     0.006 A 
HETATM   17  C   UNL     1     -41.888  54.048 -51.043  1.00  0.00     0.048 A 
ENDBRANCH   8  10
ENDBRANCH   7   8
ENDBRANCH   1   7
BRANCH   3  18
HETATM   18  C   UNL     1     -43.551  58.673 -56.187  1.00  0.00     0.276 C 
BRANCH  18  19
HETATM   19  C   UNL     1     -43.157  58.062 -57.503  1.00  0.00     0.002 A 
HETATM   20  C   UNL     1     -42.100  58.586 -58.256  1.00  0.00     0.073 A 
HETATM   21  C   UNL     1     -41.728  58.022 -59.475  1.00  0.00     0.038 A 
HETATM   22  C   UNL     1     -42.417  56.908 -59.955  1.00  0.00     0.022 A 
HETATM   23  C   UNL     1     -43.473  56.376 -59.218  1.00  0.00     0.011 A 
HETATM   24 BR   UNL     1     -44.392  54.851 -59.851  1.00  0.00    -0.051 Br
HETATM   25  C   UNL     1     -43.853  56.950 -58.004  1.00  0.00     0.030 A 
BRANCH  20  26
HETATM   26  O   UNL     1     -41.414  59.655 -57.746  1.00  0.00    -0.360 OA
HETATM   27  H   UNL     1     -41.029  59.380 -56.887  1.00  0.00     0.217 HD
ENDBRANCH  20  26
ENDBRANCH  18  19
ENDBRANCH   3  18
TORSDOF 6
ENDMDL
MODEL 10
REMARK VINA RESULT:      -6.7      3.193      4.768
REMARK  6 active torsions:
REMARK  status: ('A' for Active; 'I' for Inactive)
REMARK    1  A    between atoms: C_5  and  N_6 
REMARK    2  A    between atoms: N_6  and  C_7 
REMARK    3  A    between atoms: C_7  and  C_8 
REMARK    4  A    between atoms: N_10  and  C_12 
REMARK    5  A    between atoms: C_12  and  C_13 
REMARK    6  A    between atoms: C_14  and  O_15 
ROOT
HETATM    1  C   UNL     1     -41.184  54.653 -55.238  1.00  0.00     0.031 C 
HETATM    2  C   UNL     1     -40.908  55.703 -54.163  1.00  0.00     0.241 C 
HETATM    3  N   UNL     1     -41.559  55.175 -52.907  1.00  0.00    -0.067 N 
HETATM    4  H   UNL     1     -40.848  55.243 -52.153  1.00  0.00     0.280 HD
HETATM    5  C   UNL     1     -41.897  53.725 -53.116  1.00  0.00     0.235 C 
HETATM    6  C   UNL     1     -41.203  53.360 -54.421  1.00  0.00     0.035 C 
ENDROOT
BRANCH   1   7
HETATM    7  C   UNL     1     -42.495  54.893 -56.010  1.00  0.00     0.127 C 
BRANCH   7   8
HETATM    8  N   UNL     1     -42.305  55.912 -57.034  1.00  0.00    -0.376 N 
HETATM    9  H   UNL     1     -41.872  56.768 -56.669  1.00  0.00     0.161 HD
BRANCH   8  10
HETATM   10  C   UNL     1     -43.210  56.251 -58.036  1.00  0.00     0.101 A 
HETATM   11  N   UNL     1     -44.383  56.862 -57.799  1.00  0.00    -0.347 N 
HETATM   12  C   UNL     1     -45.266  57.184 -58.768  1.00  0.00     0.007 A 
HETATM   13  H   UNL     1     -44.612  57.123 -56.849  1.00  0.00     0.167 HD
HETATM   14  C   UNL     1     -46.520  57.911 -58.395  1.00  0.00     0.068 C 
HETATM   15  C   UNL     1     -44.983  56.850 -60.090  1.00  0.00     0.025 A 
HETATM   16  C   UNL     1     -43.798  56.194 -60.387  1.00  0.00     0.006 A 
HETATM   17  C   UNL     1     -42.912  55.894 -59.359  1.00  0.00     0.048 A 
ENDBRANCH   8  10
ENDBRANCH   7   8
ENDBRANCH   1   7
BRANCH   3  18
HETATM   18  C   UNL     1     -42.694  56.001 -52.351  1.00  0.00     0.276 C 
BRANCH  18  19
HETATM   19  C   UNL     1     -42.255  57.340 -51.828  1.00  0.00     0.002 A 
HETATM   20  C   UNL     1     -41.305  57.440 -50.805  1.00  0.00     0.073 A 
HETATM   21  C   UNL     1     -40.892  58.679 -50.317  1.00  0.00     0.038 A 
HETATM   22  C   UNL     1     -41.429  59.846 -50.862  1.00  0.00     0.022 A 
HETATM   23  C   UNL     1     -42.378  59.762 -51.879  1.00  0.00     0.011 A 
HETATM   24 BR   UNL     1     -43.088  61.340 -52.638  1.00  0.00    -0.051 Br
HETATM   25  C   UNL     1     -42.801  58.521 -52.357  1.00  0.00     0.030 A 
BRANCH  20  26
HETATM   26  O   UNL     1     -40.763  56.284 -50.313  1.00  0.00    -0.360 OA
HETATM   27  H   UNL     1     -41.165  55.534 -50.802  1.00  0.00     0.217 HD
ENDBRANCH  20  26
ENDBRANCH  18  19
ENDBRANCH   3  18
TORSDOF 6
ENDMDL
