MODEL 1
REMARK VINA RESULT:      -7.8      0.000      0.000
REMARK  10 active torsions:
REMARK  status: ('A' for Active; 'I' for Inactive)
REMARK    1  A    between atoms: C_2  and  O_3 
REMARK    2  A    between atoms: O_3  and  C_4 
REMARK    3  A    between atoms: C_9  and  C_10 
REMARK    4  A    between atoms: C_10  and  O_11 
REMARK    5  A    between atoms: O_11  and  C_12 
REMARK    6  A    between atoms: C_12  and  C_13 
REMARK       I    between atoms: C_13  and  N_14 
REMARK    7  A    between atoms: N_14  and  C_15 
REMARK    8  A    between atoms: C_16  and  C_17 
REMARK       I    between atoms: C_17  and  N_18 
REMARK    9  A    between atoms: N_18  and  C_19 
REMARK   10  A    between atoms: C_19  and  C_20 
ROOT
HETATM    1  C   UNL     1     -42.524  57.184 -56.718  1.00  0.00     0.050 A 
HETATM    2  C   UNL     1     -42.730  58.555 -56.441  1.00  0.00     0.058 A 
HETATM    3  C   UNL     1     -43.144  59.431 -57.461  1.00  0.00     0.019 A 
HETATM    4  C   UNL     1     -43.326  58.971 -58.762  1.00  0.00     0.001 A 
HETATM    5  C   UNL     1     -43.097  57.631 -59.049  1.00  0.00     0.002 A 
HETATM    6  C   UNL     1     -42.702  56.749 -58.039  1.00  0.00     0.030 A 
ENDROOT
BRANCH   1   7
HETATM    7  N   UNL     1     -42.181  56.287 -55.672  1.00  0.00    -0.324 N 
HETATM    8  C   UNL     1     -43.016  55.759 -54.701  1.00  0.00     0.246 C 
HETATM    9  O   UNL     1     -44.218  55.980 -54.573  1.00  0.00    -0.271 OA
HETATM   10  H   UNL     1     -41.188  56.047 -55.595  1.00  0.00     0.169 HD
BRANCH   8  11
HETATM   11  C   UNL     1     -42.313  54.777 -53.760  1.00  0.00     0.282 C 
BRANCH  11  12
HETATM   12  O   UNL     1     -41.932  53.558 -54.392  1.00  0.00    -0.308 OA
BRANCH  12  13
HETATM   13  C   UNL     1     -40.593  53.367 -54.505  1.00  0.00     0.298 C 
HETATM   14  O   UNL     1     -39.835  54.103 -55.113  1.00  0.00    -0.259 OA
BRANCH  13  15
HETATM   15  C   UNL     1     -40.229  52.125 -53.789  1.00  0.00     0.092 A 
HETATM   16  C   UNL     1     -39.860  52.142 -52.449  1.00  0.00     0.180 A 
HETATM   17  N   UNL     1     -39.507  51.022 -51.766  1.00  0.00    -0.236 NA
HETATM   18  C   UNL     1     -39.519  49.851 -52.438  1.00  0.00     0.119 A 
HETATM   19  C   UNL     1     -39.871  49.735 -53.770  1.00  0.00     0.020 A 
HETATM   20  C   UNL     1     -40.230  50.891 -54.456  1.00  0.00     0.023 A 
BRANCH  16  21
HETATM   21  O   UNL     1     -39.899  53.340 -51.767  1.00  0.00    -0.334 OA
BRANCH  21  22
HETATM   22  C   UNL     1     -40.482  53.245 -50.466  1.00  0.00     0.173 C 
HETATM   23  C   UNL     1     -39.707  54.160 -49.536  1.00  0.00     0.034 C 
ENDBRANCH  21  22
ENDBRANCH  16  21
ENDBRANCH  13  15
ENDBRANCH  12  13
ENDBRANCH  11  12
ENDBRANCH   8  11
ENDBRANCH   1   7
BRANCH   2  24
HETATM   24  C   UNL     1     -42.478  59.188 -55.114  1.00  0.00     0.254 C 
HETATM   25  N   UNL     1     -43.565  59.264 -54.269  1.00  0.00    -0.349 N 
HETATM   26  H   UNL     1     -44.355  58.670 -54.492  1.00  0.00     0.163 HD
HETATM   27  O   UNL     1     -41.345  59.533 -54.800  1.00  0.00    -0.268 OA
BRANCH  25  28
HETATM   28  C   UNL     1     -43.431  59.660 -52.872  1.00  0.00     0.114 C 
HETATM   29  C   UNL     1     -44.601  60.518 -52.381  1.00  0.00     0.037 C 
BRANCH  28  30
HETATM   30  C   UNL     1     -43.253  58.407 -52.028  1.00  0.00    -0.036 A 
HETATM   31  C   UNL     1     -44.348  57.603 -51.668  1.00  0.00     0.009 A 
HETATM   32  C   UNL     1     -44.164  56.439 -50.921  1.00  0.00     0.001 A 
HETATM   33  C   UNL     1     -42.883  56.058 -50.529  1.00  0.00     0.000 A 
HETATM   34  C   UNL     1     -41.785  56.838 -50.885  1.00  0.00     0.001 A 
HETATM   35  C   UNL     1     -41.968  58.004 -51.634  1.00  0.00     0.009 A 
ENDBRANCH  28  30
ENDBRANCH  25  28
ENDBRANCH   2  24
TORSDOF 10
ENDMDL
MODEL 2
REMARK VINA RESULT:      -7.8      2.459      7.155
REMARK  10 active torsions:
REMARK  status: ('A' for Active; 'I' for Inactive)
REMARK    1  A    between atoms: C_2  and  O_3 
REMARK    2  A    between atoms: O_3  and  C_4 
REMARK    3  A    between atoms: C_9  and  C_10 
REMARK    4  A    between atoms: C_10  and  O_11 
REMARK    5  A    between atoms: O_11  and  C_12 
REMARK    6  A    between atoms: C_12  and  C_13 
REMARK       I    between atoms: C_13  and  N_14 
REMARK    7  A    between atoms: N_14  and  C_15 
REMARK    8  A    between atoms: C_16  and  C_17 
REMARK       I    between atoms: C_17  and  N_18 
REMARK    9  A    between atoms: N_18  and  C_19 
REMARK   10  A    between atoms: C_19  and  C_20 
ROOT
HETATM    1  C   UNL     1     -41.186  52.875 -53.823  1.00  0.00     0.050 A 
HETATM    2  C   UNL     1     -40.999  53.258 -52.475  1.00  0.00     0.058 A 
HETATM    3  C   UNL     1     -40.054  52.593 -51.672  1.00  0.00     0.019 A 
HETATM    4  C   UNL     1     -39.313  51.530 -52.180  1.00  0.00     0.001 A 
HETATM    5  C   UNL     1     -39.512  51.127 -53.495  1.00  0.00     0.002 A 
HETATM    6  C   UNL     1     -40.437  51.793 -54.306  1.00  0.00     0.030 A 
ENDROOT
BRANCH   1   7
HETATM    7  N   UNL     1     -42.084  53.596 -54.653  1.00  0.00    -0.324 N 
HETATM    8  C   UNL     1     -41.894  54.843 -55.225  1.00  0.00     0.246 C 
HETATM    9  O   UNL     1     -40.898  55.553 -55.111  1.00  0.00    -0.271 OA
HETATM   10  H   UNL     1     -43.003  53.166 -54.800  1.00  0.00     0.169 HD
BRANCH   8  11
HETATM   11  C   UNL     1     -43.059  55.293 -56.111  1.00  0.00     0.282 C 
BRANCH  11  12
HETATM   12  O   UNL     1     -42.739  55.323 -57.499  1.00  0.00    -0.308 OA
BRANCH  12  13
HETATM   13  C   UNL     1     -42.982  56.508 -58.115  1.00  0.00     0.298 C 
HETATM   14  O   UNL     1     -42.361  57.537 -57.913  1.00  0.00    -0.259 OA
BRANCH  13  15
HETATM   15  C   UNL     1     -44.122  56.334 -59.041  1.00  0.00     0.092 A 
HETATM   16  C   UNL     1     -45.326  57.000 -58.842  1.00  0.00     0.180 A 
HETATM   17  N   UNL     1     -46.397  56.853 -59.664  1.00  0.00    -0.236 NA
HETATM   18  C   UNL     1     -46.267  56.014 -60.715  1.00  0.00     0.119 A 
HETATM   19  C   UNL     1     -45.110  55.309 -60.994  1.00  0.00     0.020 A 
HETATM   20  C   UNL     1     -44.022  55.471 -60.142  1.00  0.00     0.023 A 
BRANCH  16  21
HETATM   21  O   UNL     1     -45.426  57.888 -57.791  1.00  0.00    -0.334 OA
BRANCH  21  22
HETATM   22  C   UNL     1     -45.930  59.172 -58.165  1.00  0.00     0.173 C 
HETATM   23  C   UNL     1     -44.749  60.051 -58.532  1.00  0.00     0.034 C 
ENDBRANCH  21  22
ENDBRANCH  16  21
ENDBRANCH  13  15
ENDBRANCH  12  13
ENDBRANCH  11  12
ENDBRANCH   8  11
ENDBRANCH   1   7
BRANCH   2  24
HETATM   24  C   UNL     1     -41.796  54.315 -51.787  1.00  0.00     0.254 C 
HETATM   25  N   UNL     1     -41.237  55.576 -51.776  1.00  0.00    -0.349 N 
HETATM   26  H   UNL     1     -40.489  55.746 -52.438  1.00  0.00     0.163 HD
HETATM   27  O   UNL     1     -42.909  54.059 -51.343  1.00  0.00    -0.268 OA
BRANCH  25  28
HETATM   28  C   UNL     1     -41.983  56.747 -51.332  1.00  0.00     0.114 C 
HETATM   29  C   UNL     1     -41.116  57.748 -50.561  1.00  0.00     0.037 C 
BRANCH  28  30
HETATM   30  C   UNL     1     -42.647  57.387 -52.543  1.00  0.00    -0.036 A 
HETATM   31  C   UNL     1     -44.002  57.166 -52.838  1.00  0.00     0.009 A 
HETATM   32  C   UNL     1     -44.604  57.787 -53.934  1.00  0.00     0.001 A 
HETATM   33  C   UNL     1     -43.862  58.642 -54.745  1.00  0.00     0.000 A 
HETATM   34  C   UNL     1     -42.519  58.879 -54.460  1.00  0.00     0.001 A 
HETATM   35  C   UNL     1     -41.915  58.259 -53.364  1.00  0.00     0.009 A 
ENDBRANCH  28  30
ENDBRANCH  25  28
ENDBRANCH   2  24
TORSDOF 10
ENDMDL
MODEL 3
REMARK VINA RESULT:      -7.7      2.445      7.436
REMARK  10 active torsions:
REMARK  status: ('A' for Active; 'I' for Inactive)
REMARK    1  A    between atoms: C_2  and  O_3 
REMARK    2  A    between atoms: O_3  and  C_4 
REMARK    3  A    between atoms: C_9  and  C_10 
REMARK    4  A    between atoms: C_10  and  O_11 
REMARK    5  A    between atoms: O_11  and  C_12 
REMARK    6  A    between atoms: C_12  and  C_13 
REMARK       I    between atoms: C_13  and  N_14 
REMARK    7  A    between atoms: N_14  and  C_15 
REMARK    8  A    between atoms: C_16  and  C_17 
REMARK       I    between atoms: C_17  and  N_18 
REMARK    9  A    between atoms: N_18  and  C_19 
REMARK   10  A    between atoms: C_19  and  C_20 
ROOT
HETATM    1  C   UNL     1     -41.179  52.809 -53.822  1.00  0.00     0.050 A 
HETATM    2  C   UNL     1     -41.071  53.297 -52.499  1.00  0.00     0.058 A 
HETATM    3  C   UNL     1     -40.153  52.721 -51.602  1.00  0.00     0.019 A 
HETATM    4  C   UNL     1     -39.361  51.644 -51.991  1.00  0.00     0.001 A 
HETATM    5  C   UNL     1     -39.481  51.139 -53.280  1.00  0.00     0.002 A 
HETATM    6  C   UNL     1     -40.379  51.716 -54.184  1.00  0.00     0.030 A 
ENDROOT
BRANCH   1   7
HETATM    7  N   UNL     1     -42.050  53.440 -54.748  1.00  0.00    -0.324 N 
HETATM    8  C   UNL     1     -41.873  54.659 -55.382  1.00  0.00     0.246 C 
HETATM    9  O   UNL     1     -40.916  55.418 -55.251  1.00  0.00    -0.271 OA
HETATM   10  H   UNL     1     -42.939  52.963 -54.925  1.00  0.00     0.169 HD
BRANCH   8  11
HETATM   11  C   UNL     1     -42.997  55.005 -56.364  1.00  0.00     0.282 C 
BRANCH  11  12
HETATM   12  O   UNL     1     -42.596  55.909 -57.391  1.00  0.00    -0.308 OA
BRANCH  12  13
HETATM   13  C   UNL     1     -43.312  55.820 -58.540  1.00  0.00     0.298 C 
HETATM   14  O   UNL     1     -43.887  54.816 -58.925  1.00  0.00    -0.259 OA
BRANCH  13  15
HETATM   15  C   UNL     1     -43.256  57.124 -59.235  1.00  0.00     0.092 A 
HETATM   16  C   UNL     1     -44.340  57.995 -59.231  1.00  0.00     0.180 A 
HETATM   17  N   UNL     1     -44.327  59.194 -59.870  1.00  0.00    -0.236 NA
HETATM   18  C   UNL     1     -43.202  59.534 -60.536  1.00  0.00     0.119 A 
HETATM   19  C   UNL     1     -42.075  58.734 -60.597  1.00  0.00     0.020 A 
HETATM   20  C   UNL     1     -42.104  57.509 -59.937  1.00  0.00     0.023 A 
BRANCH  16  21
HETATM   21  O   UNL     1     -45.462  57.652 -58.508  1.00  0.00    -0.334 OA
BRANCH  21  22
HETATM   22  C   UNL     1     -46.683  57.778 -59.240  1.00  0.00     0.173 C 
HETATM   23  C   UNL     1     -46.891  56.499 -60.029  1.00  0.00     0.034 C 
ENDBRANCH  21  22
ENDBRANCH  16  21
ENDBRANCH  13  15
ENDBRANCH  12  13
ENDBRANCH  11  12
ENDBRANCH   8  11
ENDBRANCH   1   7
BRANCH   2  24
HETATM   24  C   UNL     1     -41.928  54.379 -51.934  1.00  0.00     0.254 C 
HETATM   25  N   UNL     1     -41.392  55.649 -51.969  1.00  0.00    -0.349 N 
HETATM   26  H   UNL     1     -40.605  55.792 -52.591  1.00  0.00     0.163 HD
HETATM   27  O   UNL     1     -43.063  54.128 -51.547  1.00  0.00    -0.268 OA
BRANCH  25  28
HETATM   28  C   UNL     1     -42.184  56.830 -51.651  1.00  0.00     0.114 C 
HETATM   29  C   UNL     1     -41.388  57.894 -50.888  1.00  0.00     0.037 C 
BRANCH  28  30
HETATM   30  C   UNL     1     -42.774  57.381 -52.941  1.00  0.00    -0.036 A 
HETATM   31  C   UNL     1     -44.106  57.122 -53.308  1.00  0.00     0.009 A 
HETATM   32  C   UNL     1     -44.641  57.662 -54.479  1.00  0.00     0.001 A 
HETATM   33  C   UNL     1     -43.856  58.473 -55.294  1.00  0.00     0.000 A 
HETATM   34  C   UNL     1     -42.537  58.747 -54.940  1.00  0.00     0.001 A 
HETATM   35  C   UNL     1     -42.000  58.208 -53.768  1.00  0.00     0.009 A 
ENDBRANCH  28  30
ENDBRANCH  25  28
ENDBRANCH   2  24
TORSDOF 10
ENDMDL
MODEL 4
REMARK VINA RESULT:      -7.7      2.576      7.295
REMARK  10 active torsions:
REMARK  status: ('A' for Active; 'I' for Inactive)
REMARK    1  A    between atoms: C_2  and  O_3 
REMARK    2  A    between atoms: O_3  and  C_4 
REMARK    3  A    between atoms: C_9  and  C_10 
REMARK    4  A    between atoms: C_10  and  O_11 
REMARK    5  A    between atoms: O_11  and  C_12 
REMARK    6  A    between atoms: C_12  and  C_13 
REMARK       I    between atoms: C_13  and  N_14 
REMARK    7  A    between atoms: N_14  and  C_15 
REMARK    8  A    between atoms: C_16  and  C_17 
REMARK       I    between atoms: C_17  and  N_18 
REMARK    9  A    between atoms: N_18  and  C_19 
REMARK   10  A    between atoms: C_19  and  C_20 
ROOT
HETATM    1  C   UNL     1     -41.317  53.055 -53.849  1.00  0.00     0.050 A 
HETATM    2  C   UNL     1     -41.049  53.426 -52.512  1.00  0.00     0.058 A 
HETATM    3  C   UNL     1     -40.101  52.717 -51.753  1.00  0.00     0.019 A 
HETATM    4  C   UNL     1     -39.435  51.620 -52.295  1.00  0.00     0.001 A 
HETATM    5  C   UNL     1     -39.713  51.230 -53.599  1.00  0.00     0.002 A 
HETATM    6  C   UNL     1     -40.642  51.940 -54.367  1.00  0.00     0.030 A 
ENDROOT
BRANCH   1   7
HETATM    7  N   UNL     1     -42.218  53.818 -54.637  1.00  0.00    -0.324 N 
HETATM    8  C   UNL     1     -42.004  55.066 -55.200  1.00  0.00     0.246 C 
HETATM    9  O   UNL     1     -40.980  55.739 -55.113  1.00  0.00    -0.271 OA
HETATM   10  H   UNL     1     -43.156  53.423 -54.756  1.00  0.00     0.169 HD
BRANCH   8  11
HETATM   11  C   UNL     1     -43.183  55.568 -56.037  1.00  0.00     0.282 C 
BRANCH  11  12
HETATM   12  O   UNL     1     -42.853  55.799 -57.404  1.00  0.00    -0.308 OA
BRANCH  12  13
HETATM   13  C   UNL     1     -42.960  57.091 -57.807  1.00  0.00     0.298 C 
HETATM   14  O   UNL     1     -42.036  57.884 -57.853  1.00  0.00    -0.259 OA
BRANCH  13  15
HETATM   15  C   UNL     1     -44.372  57.361 -58.157  1.00  0.00     0.092 A 
HETATM   16  C   UNL     1     -44.913  56.938 -59.365  1.00  0.00     0.180 A 
HETATM   17  N   UNL     1     -46.200  57.182 -59.724  1.00  0.00    -0.236 NA
HETATM   18  C   UNL     1     -46.971  57.871 -58.855  1.00  0.00     0.119 A 
HETATM   19  C   UNL     1     -46.520  58.334 -57.631  1.00  0.00     0.020 A 
HETATM   20  C   UNL     1     -45.199  58.075 -57.279  1.00  0.00     0.023 A 
BRANCH  16  21
HETATM   21  O   UNL     1     -44.126  56.194 -60.219  1.00  0.00    -0.334 OA
BRANCH  21  22
HETATM   22  C   UNL     1     -44.777  55.036 -60.746  1.00  0.00     0.173 C 
HETATM   23  C   UNL     1     -44.708  53.941 -59.697  1.00  0.00     0.034 C 
ENDBRANCH  21  22
ENDBRANCH  16  21
ENDBRANCH  13  15
ENDBRANCH  12  13
ENDBRANCH  11  12
ENDBRANCH   8  11
ENDBRANCH   1   7
BRANCH   2  24
HETATM   24  C   UNL     1     -41.763  54.518 -51.788  1.00  0.00     0.254 C 
HETATM   25  N   UNL     1     -41.111  55.732 -51.740  1.00  0.00    -0.349 N 
HETATM   26  H   UNL     1     -40.353  55.866 -52.398  1.00  0.00     0.163 HD
HETATM   27  O   UNL     1     -42.892  54.332 -51.348  1.00  0.00    -0.268 OA
BRANCH  25  28
HETATM   28  C   UNL     1     -41.766  56.941 -51.256  1.00  0.00     0.114 C 
HETATM   29  C   UNL     1     -40.905  57.729 -50.263  1.00  0.00     0.037 C 
BRANCH  28  30
HETATM   30  C   UNL     1     -42.167  57.788 -52.455  1.00  0.00    -0.036 A 
HETATM   31  C   UNL     1     -41.220  58.538 -53.173  1.00  0.00     0.009 A 
HETATM   32  C   UNL     1     -41.599  59.284 -54.291  1.00  0.00     0.001 A 
HETATM   33  C   UNL     1     -42.927  59.285 -54.710  1.00  0.00     0.000 A 
HETATM   34  C   UNL     1     -43.876  58.539 -54.015  1.00  0.00     0.001 A 
HETATM   35  C   UNL     1     -43.499  57.792 -52.897  1.00  0.00     0.009 A 
ENDBRANCH  28  30
ENDBRANCH  25  28
ENDBRANCH   2  24
TORSDOF 10
ENDMDL
MODEL 5
REMARK VINA RESULT:      -7.6      1.739      7.243
REMARK  10 active torsions:
REMARK  status: ('A' for Active; 'I' for Inactive)
REMARK    1  A    between atoms: C_2  and  O_3 
REMARK    2  A    between atoms: O_3  and  C_4 
REMARK    3  A    between atoms: C_9  and  C_10 
REMARK    4  A    between atoms: C_10  and  O_11 
REMARK    5  A    between atoms: O_11  and  C_12 
REMARK    6  A    between atoms: C_12  and  C_13 
REMARK       I    between atoms: C_13  and  N_14 
REMARK    7  A    between atoms: N_14  and  C_15 
REMARK    8  A    between atoms: C_16  and  C_17 
REMARK       I    between atoms: C_17  and  N_18 
REMARK    9  A    between atoms: N_18  and  C_19 
REMARK   10  A    between atoms: C_19  and  C_20 
ROOT
HETATM    1  C   UNL     1     -40.004  52.057 -53.372  1.00  0.00     0.050 A 
HETATM    2  C   UNL     1     -39.950  52.012 -51.960  1.00  0.00     0.058 A 
HETATM    3  C   UNL     1     -39.725  50.793 -51.296  1.00  0.00     0.019 A 
HETATM    4  C   UNL     1     -39.584  49.609 -52.014  1.00  0.00     0.001 A 
HETATM    5  C   UNL     1     -39.665  49.638 -53.400  1.00  0.00     0.002 A 
HETATM    6  C   UNL     1     -39.872  50.848 -54.071  1.00  0.00     0.030 A 
ENDROOT
BRANCH   1   7
HETATM    7  N   UNL     1     -40.156  53.299 -54.044  1.00  0.00    -0.324 N 
HETATM    8  C   UNL     1     -41.309  54.054 -54.178  1.00  0.00     0.246 C 
HETATM    9  O   UNL     1     -42.419  53.776 -53.733  1.00  0.00    -0.271 OA
HETATM   10  H   UNL     1     -39.325  53.648 -54.532  1.00  0.00     0.169 HD
BRANCH   8  11
HETATM   11  C   UNL     1     -41.091  55.373 -54.925  1.00  0.00     0.282 C 
BRANCH  11  12
HETATM   12  O   UNL     1     -41.852  56.457 -54.398  1.00  0.00    -0.308 OA
BRANCH  12  13
HETATM   13  C   UNL     1     -42.961  56.775 -55.113  1.00  0.00     0.298 C 
HETATM   14  O   UNL     1     -44.065  56.290 -54.937  1.00  0.00    -0.259 OA
BRANCH  13  15
HETATM   15  C   UNL     1     -42.594  57.781 -56.133  1.00  0.00     0.092 A 
HETATM   16  C   UNL     1     -42.511  57.450 -57.481  1.00  0.00     0.180 A 
HETATM   17  N   UNL     1     -42.163  58.345 -58.442  1.00  0.00    -0.236 NA
HETATM   18  C   UNL     1     -41.885  59.607 -58.048  1.00  0.00     0.119 A 
HETATM   19  C   UNL     1     -41.939  60.029 -56.732  1.00  0.00     0.020 A 
HETATM   20  C   UNL     1     -42.298  59.100 -55.760  1.00  0.00     0.023 A 
BRANCH  16  21
HETATM   21  O   UNL     1     -42.844  56.170 -57.870  1.00  0.00    -0.334 OA
BRANCH  21  22
HETATM   22  C   UNL     1     -42.808  55.968 -59.284  1.00  0.00     0.173 C 
HETATM   23  C   UNL     1     -44.144  55.388 -59.710  1.00  0.00     0.034 C 
ENDBRANCH  21  22
ENDBRANCH  16  21
ENDBRANCH  13  15
ENDBRANCH  12  13
ENDBRANCH  11  12
ENDBRANCH   8  11
ENDBRANCH   1   7
BRANCH   2  24
HETATM   24  C   UNL     1     -40.181  53.193 -51.077  1.00  0.00     0.254 C 
HETATM   25  N   UNL     1     -41.491  53.425 -50.715  1.00  0.00    -0.349 N 
HETATM   26  H   UNL     1     -42.140  52.658 -50.848  1.00  0.00     0.163 HD
HETATM   27  O   UNL     1     -39.231  53.842 -50.655  1.00  0.00    -0.268 OA
BRANCH  25  28
HETATM   28  C   UNL     1     -41.849  54.404 -49.697  1.00  0.00     0.114 C 
HETATM   29  C   UNL     1     -40.771  54.564 -48.619  1.00  0.00     0.037 C 
BRANCH  28  30
HETATM   30  C   UNL     1     -42.165  55.725 -50.383  1.00  0.00    -0.036 A 
HETATM   31  C   UNL     1     -43.444  55.997 -50.898  1.00  0.00     0.009 A 
HETATM   32  C   UNL     1     -43.726  57.226 -51.495  1.00  0.00     0.001 A 
HETATM   33  C   UNL     1     -42.736  58.203 -51.580  1.00  0.00     0.000 A 
HETATM   34  C   UNL     1     -41.465  57.953 -51.066  1.00  0.00     0.001 A 
HETATM   35  C   UNL     1     -41.182  56.723 -50.468  1.00  0.00     0.009 A 
ENDBRANCH  28  30
ENDBRANCH  25  28
ENDBRANCH   2  24
TORSDOF 10
ENDMDL
MODEL 6
REMARK VINA RESULT:      -7.6      2.437      7.050
REMARK  10 active torsions:
REMARK  status: ('A' for Active; 'I' for Inactive)
REMARK    1  A    between atoms: C_2  and  O_3 
REMARK    2  A    between atoms: O_3  and  C_4 
REMARK    3  A    between atoms: C_9  and  C_10 
REMARK    4  A    between atoms: C_10  and  O_11 
REMARK    5  A    between atoms: O_11  and  C_12 
REMARK    6  A    between atoms: C_12  and  C_13 
REMARK       I    between atoms: C_13  and  N_14 
REMARK    7  A    between atoms: N_14  and  C_15 
REMARK    8  A    between atoms: C_16  and  C_17 
REMARK       I    between atoms: C_17  and  N_18 
REMARK    9  A    between atoms: N_18  and  C_19 
REMARK   10  A    between atoms: C_19  and  C_20 
ROOT
HETATM    1  C   UNL     1     -42.491  54.955 -53.373  1.00  0.00     0.050 A 
HETATM    2  C   UNL     1     -42.234  55.183 -54.744  1.00  0.00     0.058 A 
HETATM    3  C   UNL     1     -41.310  54.381 -55.438  1.00  0.00     0.019 A 
HETATM    4  C   UNL     1     -40.612  53.372 -54.780  1.00  0.00     0.001 A 
HETATM    5  C   UNL     1     -40.837  53.159 -53.426  1.00  0.00     0.002 A 
HETATM    6  C   UNL     1     -41.766  53.940 -52.732  1.00  0.00     0.030 A 
ENDROOT
BRANCH   1   7
HETATM    7  N   UNL     1     -43.479  55.715 -52.694  1.00  0.00    -0.324 N 
HETATM    8  C   UNL     1     -43.420  56.223 -51.407  1.00  0.00     0.246 C 
HETATM    9  O   UNL     1     -42.486  56.102 -50.617  1.00  0.00    -0.271 OA
HETATM   10  H   UNL     1     -44.360  55.856 -53.196  1.00  0.00     0.169 HD
BRANCH   8  11
HETATM   11  C   UNL     1     -44.651  57.046 -51.018  1.00  0.00     0.282 C 
BRANCH  11  12
HETATM   12  O   UNL     1     -44.870  58.175 -51.859  1.00  0.00    -0.308 OA
BRANCH  12  13
HETATM   13  C   UNL     1     -44.002  59.202 -51.673  1.00  0.00     0.298 C 
HETATM   14  O   UNL     1     -43.802  59.758 -50.607  1.00  0.00    -0.259 OA
BRANCH  13  15
HETATM   15  C   UNL     1     -43.372  59.530 -52.970  1.00  0.00     0.092 A 
HETATM   16  C   UNL     1     -42.050  59.194 -53.239  1.00  0.00     0.180 A 
HETATM   17  N   UNL     1     -41.436  59.493 -54.414  1.00  0.00    -0.236 NA
HETATM   18  C   UNL     1     -42.159  60.149 -55.347  1.00  0.00     0.119 A 
HETATM   19  C   UNL     1     -43.479  60.524 -55.170  1.00  0.00     0.020 A 
HETATM   20  C   UNL     1     -44.093  60.211 -53.962  1.00  0.00     0.023 A 
BRANCH  16  21
HETATM   21  O   UNL     1     -41.342  58.484 -52.293  1.00  0.00    -0.334 OA
BRANCH  21  22
HETATM   22  C   UNL     1     -40.141  59.130 -51.865  1.00  0.00     0.173 C 
HETATM   23  C   UNL     1     -40.296  59.485 -50.397  1.00  0.00     0.034 C 
ENDBRANCH  21  22
ENDBRANCH  16  21
ENDBRANCH  13  15
ENDBRANCH  12  13
ENDBRANCH  11  12
ENDBRANCH   8  11
ENDBRANCH   1   7
BRANCH   2  24
HETATM   24  C   UNL     1     -42.844  56.291 -55.536  1.00  0.00     0.254 C 
HETATM   25  N   UNL     1     -42.248  56.560 -56.750  1.00  0.00    -0.349 N 
HETATM   26  H   UNL     1     -41.636  55.844 -57.123  1.00  0.00     0.163 HD
HETATM   27  O   UNL     1     -43.858  56.850 -55.136  1.00  0.00    -0.268 OA
BRANCH  25  28
HETATM   28  C   UNL     1     -42.850  57.462 -57.723  1.00  0.00     0.114 C 
HETATM   29  C   UNL     1     -41.811  58.210 -58.565  1.00  0.00     0.037 C 
BRANCH  28  30
HETATM   30  C   UNL     1     -43.816  56.667 -58.590  1.00  0.00    -0.036 A 
HETATM   31  C   UNL     1     -45.048  57.205 -58.998  1.00  0.00     0.009 A 
HETATM   32  C   UNL     1     -45.908  56.474 -59.820  1.00  0.00     0.001 A 
HETATM   33  C   UNL     1     -45.545  55.200 -60.251  1.00  0.00     0.000 A 
HETATM   34  C   UNL     1     -44.322  54.656 -59.862  1.00  0.00     0.001 A 
HETATM   35  C   UNL     1     -43.461  55.386 -59.040  1.00  0.00     0.009 A 
ENDBRANCH  28  30
ENDBRANCH  25  28
ENDBRANCH   2  24
TORSDOF 10
ENDMDL
MODEL 7
REMARK VINA RESULT:      -7.5      1.523      7.151
REMARK  10 active torsions:
REMARK  status: ('A' for Active; 'I' for Inactive)
REMARK    1  A    between atoms: C_2  and  O_3 
REMARK    2  A    between atoms: O_3  and  C_4 
REMARK    3  A    between atoms: C_9  and  C_10 
REMARK    4  A    between atoms: C_10  and  O_11 
REMARK    5  A    between atoms: O_11  and  C_12 
REMARK    6  A    between atoms: C_12  and  C_13 
REMARK       I    between atoms: C_13  and  N_14 
REMARK    7  A    between atoms: N_14  and  C_15 
REMARK    8  A    between atoms: C_16  and  C_17 
REMARK       I    between atoms: C_17  and  N_18 
REMARK    9  A    between atoms: N_18  and  C_19 
REMARK   10  A    between atoms: C_19  and  C_20 
ROOT
HETATM    1  C   UNL     1     -40.066  52.200 -53.521  1.00  0.00     0.050 A 
HETATM    2  C   UNL     1     -39.953  52.046 -52.120  1.00  0.00     0.058 A 
HETATM    3  C   UNL     1     -39.706  50.779 -51.561  1.00  0.00     0.019 A 
HETATM    4  C   UNL     1     -39.602  49.653 -52.374  1.00  0.00     0.001 A 
HETATM    5  C   UNL     1     -39.741  49.790 -53.749  1.00  0.00     0.002 A 
HETATM    6  C   UNL     1     -39.969  51.048 -54.315  1.00  0.00     0.030 A 
ENDROOT
BRANCH   1   7
HETATM    7  N   UNL     1     -40.238  53.490 -54.088  1.00  0.00    -0.324 N 
HETATM    8  C   UNL     1     -41.399  54.243 -54.142  1.00  0.00     0.246 C 
HETATM    9  O   UNL     1     -42.500  53.920 -53.701  1.00  0.00    -0.271 OA
HETATM   10  H   UNL     1     -39.420  53.885 -54.562  1.00  0.00     0.169 HD
BRANCH   8  11
HETATM   11  C   UNL     1     -41.205  55.620 -54.783  1.00  0.00     0.282 C 
BRANCH  11  12
HETATM   12  O   UNL     1     -42.071  55.859 -55.890  1.00  0.00    -0.308 OA
BRANCH  12  13
HETATM   13  C   UNL     1     -42.928  56.899 -55.730  1.00  0.00     0.298 C 
HETATM   14  O   UNL     1     -43.902  56.890 -54.998  1.00  0.00    -0.259 OA
BRANCH  13  15
HETATM   15  C   UNL     1     -42.487  58.013 -56.597  1.00  0.00     0.092 A 
HETATM   16  C   UNL     1     -42.030  59.211 -56.061  1.00  0.00     0.180 A 
HETATM   17  N   UNL     1     -41.631  60.259 -56.828  1.00  0.00    -0.236 NA
HETATM   18  C   UNL     1     -41.692  60.110 -58.169  1.00  0.00     0.119 A 
HETATM   19  C   UNL     1     -42.133  58.957 -58.793  1.00  0.00     0.020 A 
HETATM   20  C   UNL     1     -42.538  57.893 -57.993  1.00  0.00     0.023 A 
BRANCH  16  21
HETATM   21  O   UNL     1     -41.929  59.329 -54.691  1.00  0.00    -0.334 OA
BRANCH  21  22
HETATM   22  C   UNL     1     -42.478  60.542 -54.173  1.00  0.00     0.173 C 
HETATM   23  C   UNL     1     -43.981  60.366 -54.056  1.00  0.00     0.034 C 
ENDBRANCH  21  22
ENDBRANCH  16  21
ENDBRANCH  13  15
ENDBRANCH  12  13
ENDBRANCH  11  12
ENDBRANCH   8  11
ENDBRANCH   1   7
BRANCH   2  24
HETATM   24  C   UNL     1     -40.140  53.155 -51.140  1.00  0.00     0.254 C 
HETATM   25  N   UNL     1     -41.442  53.411 -50.764  1.00  0.00    -0.349 N 
HETATM   26  H   UNL     1     -42.122  52.686 -50.964  1.00  0.00     0.163 HD
HETATM   27  O   UNL     1     -39.168  53.726 -50.660  1.00  0.00    -0.268 OA
BRANCH  25  28
HETATM   28  C   UNL     1     -41.766  54.313 -49.667  1.00  0.00     0.114 C 
HETATM   29  C   UNL     1     -40.690  54.336 -48.576  1.00  0.00     0.037 C 
BRANCH  28  30
HETATM   30  C   UNL     1     -42.023  55.699 -50.238  1.00  0.00    -0.036 A 
HETATM   31  C   UNL     1     -41.040  56.702 -50.202  1.00  0.00     0.009 A 
HETATM   32  C   UNL     1     -41.281  57.959 -50.761  1.00  0.00     0.001 A 
HETATM   33  C   UNL     1     -42.504  58.228 -51.369  1.00  0.00     0.000 A 
HETATM   34  C   UNL     1     -43.487  57.241 -51.423  1.00  0.00     0.001 A 
HETATM   35  C   UNL     1     -43.247  55.983 -50.864  1.00  0.00     0.009 A 
ENDBRANCH  28  30
ENDBRANCH  25  28
ENDBRANCH   2  24
TORSDOF 10
ENDMDL
MODEL 8
REMARK VINA RESULT:      -7.5      2.040      6.239
REMARK  10 active torsions:
REMARK  status: ('A' for Active; 'I' for Inactive)
REMARK    1  A    between atoms: C_2  and  O_3 
REMARK    2  A    between atoms: O_3  and  C_4 
REMARK    3  A    between atoms: C_9  and  C_10 
REMARK    4  A    between atoms: C_10  and  O_11 
REMARK    5  A    between atoms: O_11  and  C_12 
REMARK    6  A    between atoms: C_12  and  C_13 
REMARK       I    between atoms: C_13  and  N_14 
REMARK    7  A    between atoms: N_14  and  C_15 
REMARK    8  A    between atoms: C_16  and  C_17 
REMARK       I    between atoms: C_17  and  N_18 
REMARK    9  A    between atoms: N_18  and  C_19 
REMARK   10  A    between atoms: C_19  and  C_20 
ROOT
HETATM    1  C   UNL     1     -43.132  57.659 -56.214  1.00  0.00     0.050 A 
HETATM    2  C   UNL     1     -42.688  56.395 -55.766  1.00  0.00     0.058 A 
HETATM    3  C   UNL     1     -42.724  55.282 -56.626  1.00  0.00     0.019 A 
HETATM    4  C   UNL     1     -43.228  55.401 -57.919  1.00  0.00     0.001 A 
HETATM    5  C   UNL     1     -43.694  56.633 -58.359  1.00  0.00     0.002 A 
HETATM    6  C   UNL     1     -43.646  57.749 -57.516  1.00  0.00     0.030 A 
ENDROOT
BRANCH   1   7
HETATM    7  N   UNL     1     -43.024  58.797 -55.371  1.00  0.00    -0.324 N 
HETATM    8  C   UNL     1     -42.268  59.938 -55.582  1.00  0.00     0.246 C 
HETATM    9  O   UNL     1     -41.549  60.169 -56.551  1.00  0.00    -0.271 OA
HETATM   10  H   UNL     1     -43.520  58.740 -54.476  1.00  0.00     0.169 HD
BRANCH   8  11
HETATM   11  C   UNL     1     -42.434  60.991 -54.482  1.00  0.00     0.282 C 
BRANCH  11  12
HETATM   12  O   UNL     1     -43.748  61.038 -53.933  1.00  0.00    -0.308 OA
BRANCH  12  13
HETATM   13  C   UNL     1     -43.799  61.123 -52.580  1.00  0.00     0.298 C 
HETATM   14  O   UNL     1     -43.790  62.164 -51.947  1.00  0.00    -0.259 OA
BRANCH  13  15
HETATM   15  C   UNL     1     -43.846  59.753 -52.022  1.00  0.00     0.092 A 
HETATM   16  C   UNL     1     -42.732  59.174 -51.426  1.00  0.00     0.180 A 
HETATM   17  N   UNL     1     -42.737  57.915 -50.917  1.00  0.00    -0.236 NA
HETATM   18  C   UNL     1     -43.886  57.210 -51.007  1.00  0.00     0.119 A 
HETATM   19  C   UNL     1     -45.044  57.701 -51.582  1.00  0.00     0.020 A 
HETATM   20  C   UNL     1     -45.022  58.993 -52.099  1.00  0.00     0.023 A 
BRANCH  16  21
HETATM   21  O   UNL     1     -41.582  59.925 -51.301  1.00  0.00    -0.334 OA
BRANCH  21  22
HETATM   22  C   UNL     1     -40.758  59.541 -50.199  1.00  0.00     0.173 C 
HETATM   23  C   UNL     1     -39.327  59.444 -50.693  1.00  0.00     0.034 C 
ENDBRANCH  21  22
ENDBRANCH  16  21
ENDBRANCH  13  15
ENDBRANCH  12  13
ENDBRANCH  11  12
ENDBRANCH   8  11
ENDBRANCH   1   7
BRANCH   2  24
HETATM   24  C   UNL     1     -42.218  56.118 -54.377  1.00  0.00     0.254 C 
HETATM   25  N   UNL     1     -42.638  54.925 -53.828  1.00  0.00    -0.349 N 
HETATM   26  H   UNL     1     -42.997  54.230 -54.473  1.00  0.00     0.163 HD
HETATM   27  O   UNL     1     -41.442  56.887 -53.823  1.00  0.00    -0.268 OA
BRANCH  25  28
HETATM   28  C   UNL     1     -42.097  54.419 -52.573  1.00  0.00     0.114 C 
HETATM   29  C   UNL     1     -43.187  54.001 -51.580  1.00  0.00     0.037 C 
BRANCH  28  30
HETATM   30  C   UNL     1     -41.143  53.275 -52.882  1.00  0.00    -0.036 A 
HETATM   31  C   UNL     1     -40.269  52.764 -51.908  1.00  0.00     0.009 A 
HETATM   32  C   UNL     1     -39.423  51.693 -52.198  1.00  0.00     0.001 A 
HETATM   33  C   UNL     1     -39.444  51.113 -53.464  1.00  0.00     0.000 A 
HETATM   34  C   UNL     1     -40.311  51.601 -54.440  1.00  0.00     0.001 A 
HETATM   35  C   UNL     1     -41.158  52.673 -54.150  1.00  0.00     0.009 A 
ENDBRANCH  28  30
ENDBRANCH  25  28
ENDBRANCH   2  24
TORSDOF 10
ENDMDL
MODEL 9
REMARK VINA RESULT:      -7.4      1.753      4.915
REMARK  10 active torsions:
REMARK  status: ('A' for Active; 'I' for Inactive)
REMARK    1  A    between atoms: C_2  and  O_3 
REMARK    2  A    between atoms: O_3  and  C_4 
REMARK    3  A    between atoms: C_9  and  C_10 
REMARK    4  A    between atoms: C_10  and  O_11 
REMARK    5  A    between atoms: O_11  and  C_12 
REMARK    6  A    between atoms: C_12  and  C_13 
REMARK       I    between atoms: C_13  and  N_14 
REMARK    7  A    between atoms: N_14  and  C_15 
REMARK    8  A    between atoms: C_16  and  C_17 
REMARK       I    between atoms: C_17  and  N_18 
REMARK    9  A    between atoms: N_18  and  C_19 
REMARK   10  A    between atoms: C_19  and  C_20 
ROOT
HETATM    1  C   UNL     1     -44.506  57.367 -53.446  1.00  0.00     0.050 A 
HETATM    2  C   UNL     1     -44.563  58.021 -54.698  1.00  0.00     0.058 A 
HETATM    3  C   UNL     1     -44.980  59.362 -54.780  1.00  0.00     0.019 A 
HETATM    4  C   UNL     1     -45.371  60.055 -53.638  1.00  0.00     0.001 A 
HETATM    5  C   UNL     1     -45.346  59.411 -52.408  1.00  0.00     0.002 A 
HETATM    6  C   UNL     1     -44.917  58.083 -52.313  1.00  0.00     0.030 A 
ENDROOT
BRANCH   1   7
HETATM    7  N   UNL     1     -44.013  56.038 -53.355  1.00  0.00    -0.324 N 
HETATM    8  C   UNL     1     -42.780  55.622 -52.879  1.00  0.00     0.246 C 
HETATM    9  O   UNL     1     -41.885  56.343 -52.446  1.00  0.00    -0.271 OA
HETATM   10  H   UNL     1     -44.620  55.307 -53.739  1.00  0.00     0.169 HD
BRANCH   8  11
HETATM   11  C   UNL     1     -42.608  54.101 -52.878  1.00  0.00     0.282 C 
BRANCH  11  12
HETATM   12  O   UNL     1     -42.090  53.587 -54.103  1.00  0.00    -0.308 OA
BRANCH  12  13
HETATM   13  C   UNL     1     -40.737  53.502 -54.159  1.00  0.00     0.298 C 
HETATM   14  O   UNL     1     -40.003  54.373 -54.593  1.00  0.00    -0.259 OA
BRANCH  13  15
HETATM   15  C   UNL     1     -40.322  52.185 -53.628  1.00  0.00     0.092 A 
HETATM   16  C   UNL     1     -39.824  52.048 -52.338  1.00  0.00     0.180 A 
HETATM   17  N   UNL     1     -39.422  50.857 -51.823  1.00  0.00    -0.236 NA
HETATM   18  C   UNL     1     -39.515  49.770 -52.620  1.00  0.00     0.119 A 
HETATM   19  C   UNL     1     -39.997  49.808 -53.916  1.00  0.00     0.020 A 
HETATM   20  C   UNL     1     -40.405  51.036 -54.428  1.00  0.00     0.023 A 
BRANCH  16  21
HETATM   21  O   UNL     1     -39.780  53.160 -51.523  1.00  0.00    -0.334 OA
BRANCH  21  22
HETATM   22  C   UNL     1     -40.256  52.924 -50.196  1.00  0.00     0.173 C 
HETATM   23  C   UNL     1     -39.959  54.158 -49.365  1.00  0.00     0.034 C 
ENDBRANCH  21  22
ENDBRANCH  16  21
ENDBRANCH  13  15
ENDBRANCH  12  13
ENDBRANCH  11  12
ENDBRANCH   8  11
ENDBRANCH   1   7
BRANCH   2  24
HETATM   24  C   UNL     1     -44.263  57.361 -56.001  1.00  0.00     0.254 C 
HETATM   25  N   UNL     1     -45.073  57.721 -57.058  1.00  0.00    -0.349 N 
HETATM   26  H   UNL     1     -45.616  58.569 -56.944  1.00  0.00     0.163 HD
HETATM   27  O   UNL     1     -43.298  56.612 -56.106  1.00  0.00    -0.268 OA
BRANCH  25  28
HETATM   28  C   UNL     1     -44.775  57.326 -58.429  1.00  0.00     0.114 C 
HETATM   29  C   UNL     1     -46.035  57.102 -59.271  1.00  0.00     0.037 C 
BRANCH  28  30
HETATM   30  C   UNL     1     -43.859  58.372 -59.047  1.00  0.00    -0.036 A 
HETATM   31  C   UNL     1     -42.831  58.015 -59.935  1.00  0.00     0.009 A 
HETATM   32  C   UNL     1     -42.020  58.990 -60.518  1.00  0.00     0.001 A 
HETATM   33  C   UNL     1     -42.231  60.336 -60.228  1.00  0.00     0.000 A 
HETATM   34  C   UNL     1     -43.252  60.708 -59.357  1.00  0.00     0.001 A 
HETATM   35  C   UNL     1     -44.065  59.734 -58.773  1.00  0.00     0.009 A 
ENDBRANCH  28  30
ENDBRANCH  25  28
ENDBRANCH   2  24
TORSDOF 10
ENDMDL
MODEL 10
REMARK VINA RESULT:      -7.4      2.241      7.643
REMARK  10 active torsions:
REMARK  status: ('A' for Active; 'I' for Inactive)
REMARK    1  A    between atoms: C_2  and  O_3 
REMARK    2  A    between atoms: O_3  and  C_4 
REMARK    3  A    between atoms: C_9  and  C_10 
REMARK    4  A    between atoms: C_10  and  O_11 
REMARK    5  A    between atoms: O_11  and  C_12 
REMARK    6  A    between atoms: C_12  and  C_13 
REMARK       I    between atoms: C_13  and  N_14 
REMARK    7  A    between atoms: N_14  and  C_15 
REMARK    8  A    between atoms: C_16  and  C_17 
REMARK       I    between atoms: C_17  and  N_18 
REMARK    9  A    between atoms: N_18  and  C_19 
REMARK   10  A    between atoms: C_19  and  C_20 
ROOT
HETATM    1  C   UNL     1     -42.679  58.702 -52.472  1.00  0.00     0.050 A 
HETATM    2  C   UNL     1     -42.021  57.477 -52.221  1.00  0.00     0.058 A 
HETATM    3  C   UNL     1     -41.095  57.371 -51.167  1.00  0.00     0.019 A 
HETATM    4  C   UNL     1     -40.788  58.476 -50.378  1.00  0.00     0.001 A 
HETATM    5  C   UNL     1     -41.408  59.691 -50.636  1.00  0.00     0.002 A 
HETATM    6  C   UNL     1     -42.343  59.803 -51.671  1.00  0.00     0.030 A 
ENDROOT
BRANCH   1   7
HETATM    7  N   UNL     1     -43.669  58.788 -53.486  1.00  0.00    -0.324 N 
HETATM    8  C   UNL     1     -43.491  59.124 -54.818  1.00  0.00     0.246 C 
HETATM    9  O   UNL     1     -42.427  59.410 -55.362  1.00  0.00    -0.271 OA
HETATM   10  H   UNL     1     -44.636  58.637 -53.183  1.00  0.00     0.169 HD
BRANCH   8  11
HETATM   11  C   UNL     1     -44.780  59.063 -55.641  1.00  0.00     0.282 C 
BRANCH  11  12
HETATM   12  O   UNL     1     -44.822  57.968 -56.553  1.00  0.00    -0.308 OA
BRANCH  12  13
HETATM   13  C   UNL     1     -45.233  58.284 -57.807  1.00  0.00     0.298 C 
HETATM   14  O   UNL     1     -46.364  58.630 -58.101  1.00  0.00    -0.259 OA
BRANCH  13  15
HETATM   15  C   UNL     1     -44.093  58.120 -58.734  1.00  0.00     0.092 A 
HETATM   16  C   UNL     1     -43.907  56.946 -59.454  1.00  0.00     0.180 A 
HETATM   17  N   UNL     1     -42.863  56.757 -60.303  1.00  0.00    -0.236 NA
HETATM   18  C   UNL     1     -41.976  57.767 -60.436  1.00  0.00     0.119 A 
HETATM   19  C   UNL     1     -42.077  58.970 -59.761  1.00  0.00     0.020 A 
HETATM   20  C   UNL     1     -43.152  59.148 -58.896  1.00  0.00     0.023 A 
BRANCH  16  21
HETATM   21  O   UNL     1     -44.848  55.944 -59.342  1.00  0.00    -0.334 OA
BRANCH  21  22
HETATM   22  C   UNL     1     -45.483  55.606 -60.577  1.00  0.00     0.173 C 
HETATM   23  C   UNL     1     -46.890  56.173 -60.552  1.00  0.00     0.034 C 
ENDBRANCH  21  22
ENDBRANCH  16  21
ENDBRANCH  13  15
ENDBRANCH  12  13
ENDBRANCH  11  12
ENDBRANCH   8  11
ENDBRANCH   1   7
BRANCH   2  24
HETATM   24  C   UNL     1     -42.191  56.250 -53.053  1.00  0.00     0.254 C 
HETATM   25  N   UNL     1     -41.045  55.518 -53.283  1.00  0.00    -0.349 N 
HETATM   26  H   UNL     1     -40.256  55.708 -52.676  1.00  0.00     0.163 HD
HETATM   27  O   UNL     1     -43.307  55.904 -53.422  1.00  0.00    -0.268 OA
BRANCH  25  28
HETATM   28  C   UNL     1     -41.084  54.196 -53.894  1.00  0.00     0.114 C 
HETATM   29  C   UNL     1     -40.291  54.121 -55.204  1.00  0.00     0.037 C 
BRANCH  28  30
HETATM   30  C   UNL     1     -40.594  53.176 -52.876  1.00  0.00    -0.036 A 
HETATM   31  C   UNL     1     -40.787  53.365 -51.498  1.00  0.00     0.009 A 
HETATM   32  C   UNL     1     -40.360  52.404 -50.579  1.00  0.00     0.001 A 
HETATM   33  C   UNL     1     -39.742  51.239 -51.026  1.00  0.00     0.000 A 
HETATM   34  C   UNL     1     -39.552  51.032 -52.391  1.00  0.00     0.001 A 
HETATM   35  C   UNL     1     -39.979  51.992 -53.311  1.00  0.00     0.009 A 
ENDBRANCH  28  30
ENDBRANCH  25  28
ENDBRANCH   2  24
TORSDOF 10
ENDMDL
