MODEL 1
REMARK VINA RESULT:      -8.6      0.000      0.000
REMARK  7 active torsions:
REMARK  status: ('A' for Active; 'I' for Inactive)
REMARK    1  A    between atoms: O_2  and  C_3 
REMARK    2  A    between atoms: C_5  and  N_6 
REMARK    3  A    between atoms: C_7  and  O_8 
REMARK    4  A    between atoms: C_7  and  C_9 
REMARK       I    between atoms: C_9  and  N_10 
REMARK    5  A    between atoms: N_10  and  C_11 
REMARK    6  A    between atoms: C_11  and  C_12 
REMARK    7  A    between atoms: C_12  and  C_13 
ROOT
HETATM    1  N   UNL     1     -42.942  58.237 -53.095  1.00  0.00    -0.254 N 
HETATM    2  C   UNL     1     -43.386  56.880 -52.742  1.00  0.00     0.256 C 
HETATM    3  C   UNL     1     -42.651  56.307 -51.545  1.00  0.00     0.034 A 
HETATM    4  C   UNL     1     -41.378  56.787 -51.263  1.00  0.00     0.048 A 
HETATM    5  N   UNL     1     -40.885  57.839 -52.022  1.00  0.00    -0.308 N 
HETATM    6  C   UNL     1     -41.623  58.610 -52.874  1.00  0.00     0.330 C 
HETATM    7  O   UNL     1     -41.059  59.582 -53.377  1.00  0.00    -0.246 OA
HETATM    8  C   UNL     1     -43.153  55.243 -50.776  1.00  0.00     0.015 A 
HETATM    9  C   UNL     1     -42.386  54.689 -49.749  1.00  0.00     0.001 A 
HETATM   10  C   UNL     1     -41.108  55.179 -49.491  1.00  0.00     0.002 A 
HETATM   11  C   UNL     1     -40.597  56.229 -50.252  1.00  0.00     0.030 A 
HETATM   12  H   UNL     1     -39.961  58.207 -51.831  1.00  0.00     0.170 HD
ENDROOT
BRANCH   2  13
HETATM   13  O   UNL     1     -44.762  56.935 -52.351  1.00  0.00    -0.359 OA
HETATM   14  H   UNL     1     -45.242  56.414 -53.021  1.00  0.00     0.213 HD
ENDBRANCH   2  13
BRANCH   2  15
HETATM   15  C   UNL     1     -43.197  55.894 -53.968  1.00  0.00     0.279 C 
HETATM   16  N   UNL     1     -41.917  55.442 -54.230  1.00  0.00    -0.356 N 
HETATM   17  H   UNL     1     -41.216  55.558 -53.504  1.00  0.00     0.162 HD
HETATM   18  O   UNL     1     -44.168  55.545 -54.650  1.00  0.00    -0.268 OA
BRANCH  16  19
HETATM   19  C   UNL     1     -41.692  54.425 -55.239  1.00  0.00     0.127 C 
BRANCH  19  20
HETATM   20  C   UNL     1     -40.283  53.828 -55.185  1.00  0.00     0.058 C 
BRANCH  20  21
HETATM   21  C   UNL     1     -40.086  52.831 -54.064  1.00  0.00    -0.057 A 
HETATM   22  C   UNL     1     -40.145  53.237 -52.722  1.00  0.00     0.009 A 
HETATM   23  C   UNL     1     -39.974  52.310 -51.692  1.00  0.00     0.024 A 
HETATM   24  C   UNL     1     -39.753  50.970 -51.995  1.00  0.00     0.034 A 
HETATM   25 CL   UNL     1     -39.547  49.827 -50.726  1.00  0.00    -0.084 Cl
HETATM   26  C   UNL     1     -39.705  50.548 -53.321  1.00  0.00     0.024 A 
HETATM   27  C   UNL     1     -39.872  51.475 -54.354  1.00  0.00     0.009 A 
ENDBRANCH  20  21
ENDBRANCH  19  20
ENDBRANCH  16  19
ENDBRANCH   2  15
BRANCH   1  28
HETATM   28  C   UNL     1     -43.814  59.137 -53.806  1.00  0.00     0.045 A 
HETATM   29  C   UNL     1     -44.029  59.052 -55.192  1.00  0.00     0.066 A 
HETATM   30  C   UNL     1     -44.905  59.928 -55.845  1.00  0.00     0.070 A 
HETATM   31  C   UNL     1     -45.607  60.879 -55.105  1.00  0.00     0.037 A 
HETATM   32  C   UNL     1     -45.407  60.984 -53.733  1.00  0.00     0.005 A 
HETATM   33  C   UNL     1     -44.510  60.127 -53.093  1.00  0.00     0.030 A 
BRANCH  30  34
HETATM   34  O   UNL     1     -45.165  59.945 -57.190  1.00  0.00    -0.356 OA
HETATM   35  C   UNL     1     -45.030  58.710 -57.883  1.00  0.00     0.210 C 
ENDBRANCH  30  34
ENDBRANCH   1  28
TORSDOF 7
ENDMDL
MODEL 2
REMARK VINA RESULT:      -8.6      2.111      3.715
REMARK  7 active torsions:
REMARK  status: ('A' for Active; 'I' for Inactive)
REMARK    1  A    between atoms: O_2  and  C_3 
REMARK    2  A    between atoms: C_5  and  N_6 
REMARK    3  A    between atoms: C_7  and  O_8 
REMARK    4  A    between atoms: C_7  and  C_9 
REMARK       I    between atoms: C_9  and  N_10 
REMARK    5  A    between atoms: N_10  and  C_11 
REMARK    6  A    between atoms: C_11  and  C_12 
REMARK    7  A    between atoms: C_12  and  C_13 
ROOT
HETATM    1  N   UNL     1     -42.823  58.275 -53.452  1.00  0.00    -0.254 N 
HETATM    2  C   UNL     1     -43.643  57.905 -52.288  1.00  0.00     0.256 C 
HETATM    3  C   UNL     1     -44.033  59.096 -51.433  1.00  0.00     0.034 A 
HETATM    4  C   UNL     1     -43.218  60.220 -51.460  1.00  0.00     0.048 A 
HETATM    5  N   UNL     1     -42.149  60.241 -52.346  1.00  0.00    -0.308 N 
HETATM    6  C   UNL     1     -41.955  59.356 -53.367  1.00  0.00     0.330 C 
HETATM    7  O   UNL     1     -41.023  59.588 -54.137  1.00  0.00    -0.246 OA
HETATM    8  C   UNL     1     -45.116  59.074 -50.538  1.00  0.00     0.015 A 
HETATM    9  C   UNL     1     -45.365  60.164 -49.701  1.00  0.00     0.001 A 
HETATM   10  C   UNL     1     -44.528  61.277 -49.738  1.00  0.00     0.002 A 
HETATM   11  C   UNL     1     -43.447  61.306 -50.617  1.00  0.00     0.030 A 
HETATM   12  H   UNL     1     -41.545  61.053 -52.386  1.00  0.00     0.170 HD
ENDROOT
BRANCH   2  13
HETATM   13  O   UNL     1     -44.879  57.354 -52.755  1.00  0.00    -0.359 OA
HETATM   14  H   UNL     1     -44.973  57.671 -53.673  1.00  0.00     0.213 HD
ENDBRANCH   2  13
BRANCH   2  15
HETATM   15  C   UNL     1     -42.879  56.859 -51.376  1.00  0.00     0.279 C 
HETATM   16  N   UNL     1     -43.252  55.532 -51.480  1.00  0.00    -0.356 N 
HETATM   17  H   UNL     1     -43.806  55.258 -52.285  1.00  0.00     0.162 HD
HETATM   18  O   UNL     1     -41.980  57.229 -50.612  1.00  0.00    -0.268 OA
BRANCH  16  19
HETATM   19  C   UNL     1     -42.499  54.504 -50.788  1.00  0.00     0.127 C 
BRANCH  19  20
HETATM   20  C   UNL     1     -41.020  54.474 -51.185  1.00  0.00     0.058 C 
BRANCH  20  21
HETATM   21  C   UNL     1     -40.641  53.285 -52.039  1.00  0.00    -0.057 A 
HETATM   22  C   UNL     1     -41.081  53.184 -53.368  1.00  0.00     0.009 A 
HETATM   23  C   UNL     1     -40.719  52.089 -54.156  1.00  0.00     0.024 A 
HETATM   24  C   UNL     1     -39.906  51.093 -53.624  1.00  0.00     0.034 A 
HETATM   25 CL   UNL     1     -39.456  49.747 -54.595  1.00  0.00    -0.084 Cl
HETATM   26  C   UNL     1     -39.450  51.183 -52.312  1.00  0.00     0.024 A 
HETATM   27  C   UNL     1     -39.815  52.276 -51.521  1.00  0.00     0.009 A 
ENDBRANCH  20  21
ENDBRANCH  19  20
ENDBRANCH  16  19
ENDBRANCH   2  15
BRANCH   1  28
HETATM   28  C   UNL     1     -42.794  57.444 -54.628  1.00  0.00     0.045 A 
HETATM   29  C   UNL     1     -43.560  57.719 -55.774  1.00  0.00     0.066 A 
HETATM   30  C   UNL     1     -43.485  56.903 -56.909  1.00  0.00     0.070 A 
HETATM   31  C   UNL     1     -42.608  55.819 -56.922  1.00  0.00     0.037 A 
HETATM   32  C   UNL     1     -41.843  55.526 -55.798  1.00  0.00     0.005 A 
HETATM   33  C   UNL     1     -41.945  56.326 -54.659  1.00  0.00     0.030 A 
BRANCH  30  34
HETATM   34  O   UNL     1     -44.205  57.069 -58.062  1.00  0.00    -0.356 OA
HETATM   35  C   UNL     1     -44.051  56.067 -59.062  1.00  0.00     0.210 C 
ENDBRANCH  30  34
ENDBRANCH   1  28
TORSDOF 7
ENDMDL
MODEL 3
REMARK VINA RESULT:      -8.6      0.926      1.657
REMARK  7 active torsions:
REMARK  status: ('A' for Active; 'I' for Inactive)
REMARK    1  A    between atoms: O_2  and  C_3 
REMARK    2  A    between atoms: C_5  and  N_6 
REMARK    3  A    between atoms: C_7  and  O_8 
REMARK    4  A    between atoms: C_7  and  C_9 
REMARK       I    between atoms: C_9  and  N_10 
REMARK    5  A    between atoms: N_10  and  C_11 
REMARK    6  A    between atoms: C_11  and  C_12 
REMARK    7  A    between atoms: C_12  and  C_13 
ROOT
HETATM    1  N   UNL     1     -42.932  58.253 -53.028  1.00  0.00    -0.254 N 
HETATM    2  C   UNL     1     -43.367  56.883 -52.715  1.00  0.00     0.256 C 
HETATM    3  C   UNL     1     -42.634  56.282 -51.531  1.00  0.00     0.034 A 
HETATM    4  C   UNL     1     -41.365  56.762 -51.230  1.00  0.00     0.048 A 
HETATM    5  N   UNL     1     -40.876  57.839 -51.958  1.00  0.00    -0.308 N 
HETATM    6  C   UNL     1     -41.616  58.629 -52.790  1.00  0.00     0.330 C 
HETATM    7  O   UNL     1     -41.057  59.618 -53.264  1.00  0.00    -0.246 OA
HETATM    8  C   UNL     1     -43.131  55.194 -50.794  1.00  0.00     0.015 A 
HETATM    9  C   UNL     1     -42.365  54.616 -49.781  1.00  0.00     0.001 A 
HETATM   10  C   UNL     1     -41.091  55.107 -49.503  1.00  0.00     0.002 A 
HETATM   11  C   UNL     1     -40.585  56.182 -50.232  1.00  0.00     0.030 A 
HETATM   12  H   UNL     1     -39.955  58.208 -51.752  1.00  0.00     0.170 HD
ENDROOT
BRANCH   2  13
HETATM   13  O   UNL     1     -44.745  56.918 -52.329  1.00  0.00    -0.359 OA
HETATM   14  H   UNL     1     -45.168  57.553 -52.936  1.00  0.00     0.213 HD
ENDBRANCH   2  13
BRANCH   2  15
HETATM   15  C   UNL     1     -43.166  55.933 -53.968  1.00  0.00     0.279 C 
HETATM   16  N   UNL     1     -41.898  55.429 -54.187  1.00  0.00    -0.356 N 
HETATM   17  H   UNL     1     -41.228  55.485 -53.426  1.00  0.00     0.162 HD
HETATM   18  O   UNL     1     -44.118  55.657 -54.706  1.00  0.00    -0.268 OA
BRANCH  16  19
HETATM   19  C   UNL     1     -41.673  54.440 -55.223  1.00  0.00     0.127 C 
BRANCH  19  20
HETATM   20  C   UNL     1     -40.268  53.832 -55.176  1.00  0.00     0.058 C 
BRANCH  20  21
HETATM   21  C   UNL     1     -40.075  52.828 -54.061  1.00  0.00    -0.057 A 
HETATM   22  C   UNL     1     -40.121  53.228 -52.717  1.00  0.00     0.009 A 
HETATM   23  C   UNL     1     -39.952  52.295 -51.691  1.00  0.00     0.024 A 
HETATM   24  C   UNL     1     -39.748  50.954 -52.002  1.00  0.00     0.034 A 
HETATM   25 CL   UNL     1     -39.547  49.803 -50.740  1.00  0.00    -0.084 Cl
HETATM   26  C   UNL     1     -39.714  50.537 -53.331  1.00  0.00     0.024 A 
HETATM   27  C   UNL     1     -39.877  51.471 -54.358  1.00  0.00     0.009 A 
ENDBRANCH  20  21
ENDBRANCH  19  20
ENDBRANCH  16  19
ENDBRANCH   2  15
BRANCH   1  28
HETATM   28  C   UNL     1     -43.807  59.167 -53.717  1.00  0.00     0.045 A 
HETATM   29  C   UNL     1     -44.573  60.137 -53.048  1.00  0.00     0.066 A 
HETATM   30  C   UNL     1     -45.393  61.025 -53.754  1.00  0.00     0.070 A 
HETATM   31  C   UNL     1     -45.424  60.976 -55.147  1.00  0.00     0.037 A 
HETATM   32  C   UNL     1     -44.676  60.023 -55.830  1.00  0.00     0.005 A 
HETATM   33  C   UNL     1     -43.884  59.120 -55.118  1.00  0.00     0.030 A 
BRANCH  30  34
HETATM   34  O   UNL     1     -46.196  61.986 -53.199  1.00  0.00    -0.356 OA
HETATM   35  C   UNL     1     -47.262  61.531 -52.374  1.00  0.00     0.210 C 
ENDBRANCH  30  34
ENDBRANCH   1  28
TORSDOF 7
ENDMDL
MODEL 4
REMARK VINA RESULT:      -8.4      3.523      7.385
REMARK  7 active torsions:
REMARK  status: ('A' for Active; 'I' for Inactive)
REMARK    1  A    between atoms: O_2  and  C_3 
REMARK    2  A    between atoms: C_5  and  N_6 
REMARK    3  A    between atoms: C_7  and  O_8 
REMARK    4  A    between atoms: C_7  and  C_9 
REMARK       I    between atoms: C_9  and  N_10 
REMARK    5  A    between atoms: N_10  and  C_11 
REMARK    6  A    between atoms: C_11  and  C_12 
REMARK    7  A    between atoms: C_12  and  C_13 
ROOT
HETATM    1  N   UNL     1     -42.502  55.224 -52.205  1.00  0.00    -0.254 N 
HETATM    2  C   UNL     1     -42.386  56.377 -53.110  1.00  0.00     0.256 C 
HETATM    3  C   UNL     1     -42.993  57.644 -52.539  1.00  0.00     0.034 A 
HETATM    4  C   UNL     1     -44.002  57.522 -51.592  1.00  0.00     0.048 A 
HETATM    5  N   UNL     1     -44.330  56.252 -51.136  1.00  0.00    -0.308 N 
HETATM    6  C   UNL     1     -43.596  55.122 -51.355  1.00  0.00     0.330 C 
HETATM    7  O   UNL     1     -43.961  54.098 -50.777  1.00  0.00    -0.246 OA
HETATM    8  C   UNL     1     -42.658  58.929 -53.000  1.00  0.00     0.015 A 
HETATM    9  C   UNL     1     -43.324  60.053 -52.509  1.00  0.00     0.001 A 
HETATM   10  C   UNL     1     -44.340  59.906 -51.566  1.00  0.00     0.002 A 
HETATM   11  C   UNL     1     -44.685  58.636 -51.108  1.00  0.00     0.030 A 
HETATM   12  H   UNL     1     -45.059  56.140 -50.442  1.00  0.00     0.170 HD
ENDROOT
BRANCH   2  13
HETATM   13  O   UNL     1     -40.999  56.673 -53.299  1.00  0.00    -0.359 OA
HETATM   14  H   UNL     1     -40.950  57.644 -53.381  1.00  0.00     0.213 HD
ENDBRANCH   2  13
BRANCH   2  15
HETATM   15  C   UNL     1     -43.081  56.068 -54.501  1.00  0.00     0.279 C 
HETATM   16  N   UNL     1     -42.261  55.927 -55.605  1.00  0.00    -0.356 N 
HETATM   17  H   UNL     1     -41.269  55.785 -55.442  1.00  0.00     0.162 HD
HETATM   18  O   UNL     1     -44.310  55.953 -54.577  1.00  0.00    -0.268 OA
BRANCH  16  19
HETATM   19  C   UNL     1     -42.812  55.499 -56.876  1.00  0.00     0.127 C 
BRANCH  19  20
HETATM   20  C   UNL     1     -42.840  56.615 -57.924  1.00  0.00     0.058 C 
BRANCH  20  21
HETATM   21  C   UNL     1     -44.036  56.554 -58.848  1.00  0.00    -0.057 A 
HETATM   22  C   UNL     1     -44.116  55.583 -59.858  1.00  0.00     0.009 A 
HETATM   23  C   UNL     1     -45.228  55.524 -60.701  1.00  0.00     0.024 A 
HETATM   24  C   UNL     1     -46.272  56.428 -60.534  1.00  0.00     0.034 A 
HETATM   25 CL   UNL     1     -47.644  56.353 -61.568  1.00  0.00    -0.084 Cl
HETATM   26  C   UNL     1     -46.215  57.390 -59.528  1.00  0.00     0.024 A 
HETATM   27  C   UNL     1     -45.101  57.453 -58.687  1.00  0.00     0.009 A 
ENDBRANCH  20  21
ENDBRANCH  19  20
ENDBRANCH  16  19
ENDBRANCH   2  15
BRANCH   1  28
HETATM   28  C   UNL     1     -41.579  54.121 -52.292  1.00  0.00     0.045 A 
HETATM   29  C   UNL     1     -41.516  53.267 -53.406  1.00  0.00     0.066 A 
HETATM   30  C   UNL     1     -40.587  52.221 -53.467  1.00  0.00     0.070 A 
HETATM   31  C   UNL     1     -39.680  52.044 -52.422  1.00  0.00     0.037 A 
HETATM   32  C   UNL     1     -39.726  52.875 -51.308  1.00  0.00     0.005 A 
HETATM   33  C   UNL     1     -40.675  53.896 -51.241  1.00  0.00     0.030 A 
BRANCH  30  34
HETATM   34  O   UNL     1     -40.461  51.321 -54.491  1.00  0.00    -0.356 OA
HETATM   35  C   UNL     1     -39.879  50.063 -54.169  1.00  0.00     0.210 C 
ENDBRANCH  30  34
ENDBRANCH   1  28
TORSDOF 7
ENDMDL
MODEL 5
REMARK VINA RESULT:      -8.4      2.305      3.766
REMARK  7 active torsions:
REMARK  status: ('A' for Active; 'I' for Inactive)
REMARK    1  A    between atoms: O_2  and  C_3 
REMARK    2  A    between atoms: C_5  and  N_6 
REMARK    3  A    between atoms: C_7  and  O_8 
REMARK    4  A    between atoms: C_7  and  C_9 
REMARK       I    between atoms: C_9  and  N_10 
REMARK    5  A    between atoms: N_10  and  C_11 
REMARK    6  A    between atoms: C_11  and  C_12 
REMARK    7  A    between atoms: C_12  and  C_13 
ROOT
HETATM    1  N   UNL     1     -43.431  57.818 -56.098  1.00  0.00    -0.254 N 
HETATM    2  C   UNL     1     -43.777  57.243 -54.789  1.00  0.00     0.256 C 
HETATM    3  C   UNL     1     -43.809  58.274 -53.677  1.00  0.00     0.034 A 
HETATM    4  C   UNL     1     -43.041  59.423 -53.822  1.00  0.00     0.048 A 
HETATM    5  N   UNL     1     -42.369  59.622 -55.020  1.00  0.00    -0.308 N 
HETATM    6  C   UNL     1     -42.575  58.909 -56.167  1.00  0.00     0.330 C 
HETATM    7  O   UNL     1     -41.984  59.293 -57.176  1.00  0.00    -0.246 OA
HETATM    8  C   UNL     1     -44.492  58.072 -52.465  1.00  0.00     0.015 A 
HETATM    9  C   UNL     1     -44.401  59.011 -51.436  1.00  0.00     0.001 A 
HETATM   10  C   UNL     1     -43.617  60.151 -51.600  1.00  0.00     0.002 A 
HETATM   11  C   UNL     1     -42.929  60.358 -52.795  1.00  0.00     0.030 A 
HETATM   12  H   UNL     1     -41.807  60.455 -55.150  1.00  0.00     0.170 HD
ENDROOT
BRANCH   2  13
HETATM   13  O   UNL     1     -45.107  56.717 -54.857  1.00  0.00    -0.359 OA
HETATM   14  H   UNL     1     -45.374  56.810 -55.790  1.00  0.00     0.213 HD
ENDBRANCH   2  13
BRANCH   2  15
HETATM   15  C   UNL     1     -42.750  56.104 -54.391  1.00  0.00     0.279 C 
HETATM   16  N   UNL     1     -41.468  56.196 -54.899  1.00  0.00    -0.356 N 
HETATM   17  H   UNL     1     -41.177  57.088 -55.290  1.00  0.00     0.162 HD
HETATM   18  O   UNL     1     -43.095  55.179 -53.647  1.00  0.00    -0.268 OA
BRANCH  16  19
HETATM   19  C   UNL     1     -40.438  55.275 -54.460  1.00  0.00     0.127 C 
BRANCH  19  20
HETATM   20  C   UNL     1     -40.668  53.842 -54.948  1.00  0.00     0.058 C 
BRANCH  20  21
HETATM   21  C   UNL     1     -40.328  52.786 -53.919  1.00  0.00    -0.057 A 
HETATM   22  C   UNL     1     -40.027  51.472 -54.309  1.00  0.00     0.009 A 
HETATM   23  C   UNL     1     -39.703  50.504 -53.356  1.00  0.00     0.024 A 
HETATM   24  C   UNL     1     -39.666  50.845 -52.007  1.00  0.00     0.034 A 
HETATM   25 CL   UNL     1     -39.262  49.655 -50.833  1.00  0.00    -0.084 Cl
HETATM   26  C   UNL     1     -39.948  52.148 -51.604  1.00  0.00     0.024 A 
HETATM   27  C   UNL     1     -40.277  53.116 -52.556  1.00  0.00     0.009 A 
ENDBRANCH  20  21
ENDBRANCH  19  20
ENDBRANCH  16  19
ENDBRANCH   2  15
BRANCH   1  28
HETATM   28  C   UNL     1     -43.846  57.176 -57.319  1.00  0.00     0.045 A 
HETATM   29  C   UNL     1     -44.925  57.637 -58.093  1.00  0.00     0.066 A 
HETATM   30  C   UNL     1     -45.283  57.003 -59.289  1.00  0.00     0.070 A 
HETATM   31  C   UNL     1     -44.534  55.918 -59.744  1.00  0.00     0.037 A 
HETATM   32  C   UNL     1     -43.464  55.443 -58.994  1.00  0.00     0.005 A 
HETATM   33  C   UNL     1     -43.132  56.061 -57.787  1.00  0.00     0.030 A 
BRANCH  30  34
HETATM   34  O   UNL     1     -46.329  57.355 -60.100  1.00  0.00    -0.356 OA
HETATM   35  C   UNL     1     -46.956  56.305 -60.827  1.00  0.00     0.210 C 
ENDBRANCH  30  34
ENDBRANCH   1  28
TORSDOF 7
ENDMDL
MODEL 6
REMARK VINA RESULT:      -8.4      2.385      3.764
REMARK  7 active torsions:
REMARK  status: ('A' for Active; 'I' for Inactive)
REMARK    1  A    between atoms: O_2  and  C_3 
REMARK    2  A    between atoms: C_5  and  N_6 
REMARK    3  A    between atoms: C_7  and  O_8 
REMARK    4  A    between atoms: C_7  and  C_9 
REMARK       I    between atoms: C_9  and  N_10 
REMARK    5  A    between atoms: N_10  and  C_11 
REMARK    6  A    between atoms: C_11  and  C_12 
REMARK    7  A    between atoms: C_12  and  C_13 
ROOT
HETATM    1  N   UNL     1     -43.531  58.824 -51.250  1.00  0.00    -0.254 N 
HETATM    2  C   UNL     1     -43.964  57.538 -51.814  1.00  0.00     0.256 C 
HETATM    3  C   UNL     1     -43.083  56.377 -51.394  1.00  0.00     0.034 A 
HETATM    4  C   UNL     1     -41.767  56.645 -51.039  1.00  0.00     0.048 A 
HETATM    5  N   UNL     1     -41.354  57.969 -50.984  1.00  0.00    -0.308 N 
HETATM    6  C   UNL     1     -42.181  59.055 -51.016  1.00  0.00     0.330 C 
HETATM    7  O   UNL     1     -41.664  60.157 -50.832  1.00  0.00    -0.246 OA
HETATM    8  C   UNL     1     -43.503  55.037 -51.449  1.00  0.00     0.015 A 
HETATM    9  C   UNL     1     -42.614  54.003 -51.148  1.00  0.00     0.001 A 
HETATM   10  C   UNL     1     -41.295  54.295 -50.805  1.00  0.00     0.002 A 
HETATM   11  C   UNL     1     -40.866  55.620 -50.754  1.00  0.00     0.030 A 
HETATM   12  H   UNL     1     -40.399  58.188 -50.723  1.00  0.00     0.170 HD
ENDROOT
BRANCH   2  13
HETATM   13  O   UNL     1     -45.266  57.228 -51.304  1.00  0.00    -0.359 OA
HETATM   14  H   UNL     1     -45.150  57.135 -50.340  1.00  0.00     0.213 HD
ENDBRANCH   2  13
BRANCH   2  15
HETATM   15  C   UNL     1     -43.991  57.602 -53.398  1.00  0.00     0.279 C 
HETATM   16  N   UNL     1     -42.779  57.520 -54.058  1.00  0.00    -0.356 N 
HETATM   17  H   UNL     1     -41.976  57.185 -53.534  1.00  0.00     0.162 HD
HETATM   18  O   UNL     1     -45.062  57.714 -54.004  1.00  0.00    -0.268 OA
BRANCH  16  19
HETATM   19  C   UNL     1     -42.739  57.424 -55.504  1.00  0.00     0.127 C 
BRANCH  19  20
HETATM   20  C   UNL     1     -43.018  56.009 -56.019  1.00  0.00     0.058 C 
BRANCH  20  21
HETATM   21  C   UNL     1     -42.145  54.947 -55.385  1.00  0.00    -0.057 A 
HETATM   22  C   UNL     1     -42.697  53.740 -54.930  1.00  0.00     0.009 A 
HETATM   23  C   UNL     1     -41.885  52.759 -54.356  1.00  0.00     0.024 A 
HETATM   24  C   UNL     1     -40.515  52.973 -54.244  1.00  0.00     0.034 A 
HETATM   25 CL   UNL     1     -39.513  51.764 -53.543  1.00  0.00    -0.084 Cl
HETATM   26  C   UNL     1     -39.949  54.160 -54.704  1.00  0.00     0.024 A 
HETATM   27  C   UNL     1     -40.761  55.144 -55.273  1.00  0.00     0.009 A 
ENDBRANCH  20  21
ENDBRANCH  19  20
ENDBRANCH  16  19
ENDBRANCH   2  15
BRANCH   1  28
HETATM   28  C   UNL     1     -44.466  59.907 -51.076  1.00  0.00     0.045 A 
HETATM   29  C   UNL     1     -45.039  60.225 -49.832  1.00  0.00     0.066 A 
HETATM   30  C   UNL     1     -45.924  61.301 -49.696  1.00  0.00     0.070 A 
HETATM   31  C   UNL     1     -46.215  62.098 -50.803  1.00  0.00     0.037 A 
HETATM   32  C   UNL     1     -45.663  61.800 -52.044  1.00  0.00     0.005 A 
HETATM   33  C   UNL     1     -44.805  60.707 -52.179  1.00  0.00     0.030 A 
BRANCH  30  34
HETATM   34  O   UNL     1     -46.554  61.678 -48.540  1.00  0.00    -0.356 OA
HETATM   35  C   UNL     1     -45.923  61.310 -47.319  1.00  0.00     0.210 C 
ENDBRANCH  30  34
ENDBRANCH   1  28
TORSDOF 7
ENDMDL
MODEL 7
REMARK VINA RESULT:      -8.2      2.282      3.604
REMARK  7 active torsions:
REMARK  status: ('A' for Active; 'I' for Inactive)
REMARK    1  A    between atoms: O_2  and  C_3 
REMARK    2  A    between atoms: C_5  and  N_6 
REMARK    3  A    between atoms: C_7  and  O_8 
REMARK    4  A    between atoms: C_7  and  C_9 
REMARK       I    between atoms: C_9  and  N_10 
REMARK    5  A    between atoms: N_10  and  C_11 
REMARK    6  A    between atoms: C_11  and  C_12 
REMARK    7  A    between atoms: C_12  and  C_13 
ROOT
HETATM    1  N   UNL     1     -43.282  57.914 -56.302  1.00  0.00    -0.254 N 
HETATM    2  C   UNL     1     -43.594  56.947 -55.240  1.00  0.00     0.256 C 
HETATM    3  C   UNL     1     -43.326  57.485 -53.847  1.00  0.00     0.034 A 
HETATM    4  C   UNL     1     -42.378  58.492 -53.703  1.00  0.00     0.048 A 
HETATM    5  N   UNL     1     -41.804  59.028 -54.847  1.00  0.00    -0.308 N 
HETATM    6  C   UNL     1     -42.250  58.827 -56.122  1.00  0.00     0.330 C 
HETATM    7  O   UNL     1     -41.703  59.475 -57.014  1.00  0.00    -0.246 OA
HETATM    8  C   UNL     1     -43.909  56.943 -52.690  1.00  0.00     0.015 A 
HETATM    9  C   UNL     1     -43.545  57.412 -51.427  1.00  0.00     0.001 A 
HETATM   10  C   UNL     1     -42.585  58.415 -51.305  1.00  0.00     0.002 A 
HETATM   11  C   UNL     1     -41.994  58.955 -52.446  1.00  0.00     0.030 A 
HETATM   12  H   UNL     1     -41.115  59.766 -54.765  1.00  0.00     0.170 HD
ENDROOT
BRANCH   2  13
HETATM   13  O   UNL     1     -44.998  56.668 -55.273  1.00  0.00    -0.359 OA
HETATM   14  H   UNL     1     -45.214  56.539 -56.215  1.00  0.00     0.213 HD
ENDBRANCH   2  13
BRANCH   2  15
HETATM   15  C   UNL     1     -42.759  55.614 -55.434  1.00  0.00     0.279 C 
HETATM   16  N   UNL     1     -41.457  55.605 -54.970  1.00  0.00    -0.356 N 
HETATM   17  H   UNL     1     -41.180  56.339 -54.326  1.00  0.00     0.162 HD
HETATM   18  O   UNL     1     -43.269  54.626 -55.974  1.00  0.00    -0.268 OA
BRANCH  16  19
HETATM   19  C   UNL     1     -40.685  54.378 -54.980  1.00  0.00     0.127 C 
BRANCH  19  20
HETATM   20  C   UNL     1     -41.330  53.257 -54.160  1.00  0.00     0.058 C 
BRANCH  20  21
HETATM   21  C   UNL     1     -41.124  53.398 -52.667  1.00  0.00    -0.057 A 
HETATM   22  C   UNL     1     -42.063  54.073 -51.872  1.00  0.00     0.009 A 
HETATM   23  C   UNL     1     -41.873  54.190 -50.493  1.00  0.00     0.024 A 
HETATM   24  C   UNL     1     -40.749  53.623 -49.898  1.00  0.00     0.034 A 
HETATM   25 CL   UNL     1     -40.518  53.762 -48.200  1.00  0.00    -0.084 Cl
HETATM   26  C   UNL     1     -39.815  52.938 -50.671  1.00  0.00     0.024 A 
HETATM   27  C   UNL     1     -40.001  52.825 -52.052  1.00  0.00     0.009 A 
ENDBRANCH  20  21
ENDBRANCH  19  20
ENDBRANCH  16  19
ENDBRANCH   2  15
BRANCH   1  28
HETATM   28  C   UNL     1     -43.927  57.833 -57.588  1.00  0.00     0.045 A 
HETATM   29  C   UNL     1     -43.560  56.892 -58.566  1.00  0.00     0.066 A 
HETATM   30  C   UNL     1     -44.228  56.826 -59.794  1.00  0.00     0.070 A 
HETATM   31  C   UNL     1     -45.301  57.680 -60.042  1.00  0.00     0.037 A 
HETATM   32  C   UNL     1     -45.680  58.621 -59.091  1.00  0.00     0.005 A 
HETATM   33  C   UNL     1     -44.990  58.702 -57.880  1.00  0.00     0.030 A 
BRANCH  30  34
HETATM   34  O   UNL     1     -43.933  55.967 -60.820  1.00  0.00    -0.356 OA
HETATM   35  C   UNL     1     -44.950  55.044 -61.194  1.00  0.00     0.210 C 
ENDBRANCH  30  34
ENDBRANCH   1  28
TORSDOF 7
ENDMDL
MODEL 8
REMARK VINA RESULT:      -8.2      3.347      7.488
REMARK  7 active torsions:
REMARK  status: ('A' for Active; 'I' for Inactive)
REMARK    1  A    between atoms: O_2  and  C_3 
REMARK    2  A    between atoms: C_5  and  N_6 
REMARK    3  A    between atoms: C_7  and  O_8 
REMARK    4  A    between atoms: C_7  and  C_9 
REMARK       I    between atoms: C_9  and  N_10 
REMARK    5  A    between atoms: N_10  and  C_11 
REMARK    6  A    between atoms: C_11  and  C_12 
REMARK    7  A    between atoms: C_12  and  C_13 
ROOT
HETATM    1  N   UNL     1     -41.807  54.897 -52.879  1.00  0.00    -0.254 N 
HETATM    2  C   UNL     1     -41.635  55.979 -53.859  1.00  0.00     0.256 C 
HETATM    3  C   UNL     1     -41.852  57.359 -53.267  1.00  0.00     0.034 A 
HETATM    4  C   UNL     1     -42.665  57.473 -52.146  1.00  0.00     0.048 A 
HETATM    5  N   UNL     1     -43.151  56.311 -51.561  1.00  0.00    -0.308 N 
HETATM    6  C   UNL     1     -42.717  55.047 -51.840  1.00  0.00     0.330 C 
HETATM    7  O   UNL     1     -43.165  54.137 -51.144  1.00  0.00    -0.246 OA
HETATM    8  C   UNL     1     -41.357  58.533 -53.859  1.00  0.00     0.015 A 
HETATM    9  C   UNL     1     -41.676  59.783 -53.325  1.00  0.00     0.001 A 
HETATM   10  C   UNL     1     -42.502  59.875 -52.207  1.00  0.00     0.002 A 
HETATM   11  C   UNL     1     -43.004  58.716 -51.616  1.00  0.00     0.030 A 
HETATM   12  H   UNL     1     -43.743  56.371 -50.741  1.00  0.00     0.170 HD
ENDROOT
BRANCH   2  13
HETATM   13  O   UNL     1     -40.277  55.973 -54.315  1.00  0.00    -0.359 OA
HETATM   14  H   UNL     1     -39.799  56.570 -53.710  1.00  0.00     0.213 HD
ENDBRANCH   2  13
BRANCH   2  15
HETATM   15  C   UNL     1     -42.629  55.793 -55.079  1.00  0.00     0.279 C 
HETATM   16  N   UNL     1     -42.099  55.880 -56.352  1.00  0.00    -0.356 N 
HETATM   17  H   UNL     1     -41.090  55.815 -56.450  1.00  0.00     0.162 HD
HETATM   18  O   UNL     1     -43.829  55.570 -54.883  1.00  0.00    -0.268 OA
BRANCH  16  19
HETATM   19  C   UNL     1     -42.917  55.574 -57.509  1.00  0.00     0.127 C 
BRANCH  19  20
HETATM   20  C   UNL     1     -43.054  56.754 -58.476  1.00  0.00     0.058 C 
BRANCH  20  21
HETATM   21  C   UNL     1     -43.080  58.103 -57.792  1.00  0.00    -0.057 A 
HETATM   22  C   UNL     1     -41.995  58.987 -57.903  1.00  0.00     0.009 A 
HETATM   23  C   UNL     1     -42.029  60.235 -57.279  1.00  0.00     0.024 A 
HETATM   24  C   UNL     1     -43.151  60.614 -56.548  1.00  0.00     0.034 A 
HETATM   25 CL   UNL     1     -43.196  62.154 -55.783  1.00  0.00    -0.084 Cl
HETATM   26  C   UNL     1     -44.242  59.755 -56.438  1.00  0.00     0.024 A 
HETATM   27  C   UNL     1     -44.207  58.503 -57.059  1.00  0.00     0.009 A 
ENDBRANCH  20  21
ENDBRANCH  19  20
ENDBRANCH  16  19
ENDBRANCH   2  15
BRANCH   1  28
HETATM   28  C   UNL     1     -41.160  53.623 -53.064  1.00  0.00     0.045 A 
HETATM   29  C   UNL     1     -40.372  53.019 -52.069  1.00  0.00     0.066 A 
HETATM   30  C   UNL     1     -39.779  51.767 -52.275  1.00  0.00     0.070 A 
HETATM   31  C   UNL     1     -40.005  51.087 -53.471  1.00  0.00     0.037 A 
HETATM   32  C   UNL     1     -40.779  51.666 -54.470  1.00  0.00     0.005 A 
HETATM   33  C   UNL     1     -41.341  52.928 -54.270  1.00  0.00     0.030 A 
BRANCH  30  34
HETATM   34  O   UNL     1     -38.976  51.106 -51.385  1.00  0.00    -0.356 OA
HETATM   35  C   UNL     1     -39.408  49.815 -50.970  1.00  0.00     0.210 C 
ENDBRANCH  30  34
ENDBRANCH   1  28
TORSDOF 7
ENDMDL
MODEL 9
REMARK VINA RESULT:      -8.2      1.505      5.185
REMARK  7 active torsions:
REMARK  status: ('A' for Active; 'I' for Inactive)
REMARK    1  A    between atoms: O_2  and  C_3 
REMARK    2  A    between atoms: C_5  and  N_6 
REMARK    3  A    between atoms: C_7  and  O_8 
REMARK    4  A    between atoms: C_7  and  C_9 
REMARK       I    between atoms: C_9  and  N_10 
REMARK    5  A    between atoms: N_10  and  C_11 
REMARK    6  A    between atoms: C_11  and  C_12 
REMARK    7  A    between atoms: C_12  and  C_13 
ROOT
HETATM    1  N   UNL     1     -43.409  58.562 -53.498  1.00  0.00    -0.254 N 
HETATM    2  C   UNL     1     -42.943  58.162 -54.835  1.00  0.00     0.256 C 
HETATM    3  C   UNL     1     -43.743  58.796 -55.957  1.00  0.00     0.034 A 
HETATM    4  C   UNL     1     -45.050  59.187 -55.694  1.00  0.00     0.048 A 
HETATM    5  N   UNL     1     -45.524  59.078 -54.394  1.00  0.00    -0.308 N 
HETATM    6  C   UNL     1     -44.753  58.841 -53.292  1.00  0.00     0.330 C 
HETATM    7  O   UNL     1     -45.313  58.897 -52.197  1.00  0.00    -0.246 OA
HETATM    8  C   UNL     1     -43.261  58.908 -57.272  1.00  0.00     0.015 A 
HETATM    9  C   UNL     1     -44.081  59.406 -58.287  1.00  0.00     0.001 A 
HETATM   10  C   UNL     1     -45.392  59.783 -58.003  1.00  0.00     0.002 A 
HETATM   11  C   UNL     1     -45.882  59.669 -56.703  1.00  0.00     0.030 A 
HETATM   12  H   UNL     1     -46.472  59.361 -54.179  1.00  0.00     0.170 HD
ENDROOT
BRANCH   2  13
HETATM   13  O   UNL     1     -41.603  58.632 -55.013  1.00  0.00    -0.359 OA
HETATM   14  H   UNL     1     -41.418  58.531 -55.965  1.00  0.00     0.213 HD
ENDBRANCH   2  13
BRANCH   2  15
HETATM   15  C   UNL     1     -43.005  56.587 -54.999  1.00  0.00     0.279 C 
HETATM   16  N   UNL     1     -41.831  55.935 -55.327  1.00  0.00    -0.356 N 
HETATM   17  H   UNL     1     -40.959  56.442 -55.209  1.00  0.00     0.162 HD
HETATM   18  O   UNL     1     -44.068  55.979 -54.830  1.00  0.00    -0.268 OA
BRANCH  16  19
HETATM   19  C   UNL     1     -41.780  54.486 -55.349  1.00  0.00     0.127 C 
BRANCH  19  20
HETATM   20  C   UNL     1     -40.357  53.935 -55.223  1.00  0.00     0.058 C 
BRANCH  20  21
HETATM   21  C   UNL     1     -40.186  52.940 -54.096  1.00  0.00    -0.057 A 
HETATM   22  C   UNL     1     -39.925  51.588 -54.363  1.00  0.00     0.009 A 
HETATM   23  C   UNL     1     -39.757  50.677 -53.318  1.00  0.00     0.024 A 
HETATM   24  C   UNL     1     -39.836  51.113 -51.999  1.00  0.00     0.034 A 
HETATM   25 CL   UNL     1     -39.624  49.993 -50.711  1.00  0.00    -0.084 Cl
HETATM   26  C   UNL     1     -40.081  52.455 -51.716  1.00  0.00     0.024 A 
HETATM   27  C   UNL     1     -40.255  53.366 -52.761  1.00  0.00     0.009 A 
ENDBRANCH  20  21
ENDBRANCH  19  20
ENDBRANCH  16  19
ENDBRANCH   2  15
BRANCH   1  28
HETATM   28  C   UNL     1     -42.520  58.524 -52.365  1.00  0.00     0.045 A 
HETATM   29  C   UNL     1     -42.048  57.322 -51.808  1.00  0.00     0.066 A 
HETATM   30  C   UNL     1     -41.164  57.324 -50.723  1.00  0.00     0.070 A 
HETATM   31  C   UNL     1     -40.711  58.537 -50.205  1.00  0.00     0.037 A 
HETATM   32  C   UNL     1     -41.167  59.738 -50.737  1.00  0.00     0.005 A 
HETATM   33  C   UNL     1     -42.072  59.729 -51.800  1.00  0.00     0.030 A 
BRANCH  30  34
HETATM   34  O   UNL     1     -40.667  56.214 -50.093  1.00  0.00    -0.356 OA
HETATM   35  C   UNL     1     -41.618  55.259 -49.634  1.00  0.00     0.210 C 
ENDBRANCH  30  34
ENDBRANCH   1  28
TORSDOF 7
ENDMDL
MODEL 10
REMARK VINA RESULT:      -8.1      2.508      6.065
REMARK  7 active torsions:
REMARK  status: ('A' for Active; 'I' for Inactive)
REMARK    1  A    between atoms: O_2  and  C_3 
REMARK    2  A    between atoms: C_5  and  N_6 
REMARK    3  A    between atoms: C_7  and  O_8 
REMARK    4  A    between atoms: C_7  and  C_9 
REMARK       I    between atoms: C_9  and  N_10 
REMARK    5  A    between atoms: N_10  and  C_11 
REMARK    6  A    between atoms: C_11  and  C_12 
REMARK    7  A    between atoms: C_12  and  C_13 
ROOT
HETATM    1  N   UNL     1     -42.548  56.916 -50.815  1.00  0.00    -0.254 N 
HETATM    2  C   UNL     1     -41.863  58.140 -51.257  1.00  0.00     0.256 C 
HETATM    3  C   UNL     1     -42.664  59.400 -50.985  1.00  0.00     0.034 A 
HETATM    4  C   UNL     1     -44.046  59.294 -50.894  1.00  0.00     0.048 A 
HETATM    5  N   UNL     1     -44.617  58.030 -50.949  1.00  0.00    -0.308 N 
HETATM    6  C   UNL     1     -43.934  56.852 -50.849  1.00  0.00     0.330 C 
HETATM    7  O   UNL     1     -44.605  55.821 -50.793  1.00  0.00    -0.246 OA
HETATM    8  C   UNL     1     -42.084  60.679 -50.927  1.00  0.00     0.015 A 
HETATM    9  C   UNL     1     -42.884  61.813 -50.777  1.00  0.00     0.001 A 
HETATM   10  C   UNL     1     -44.269  61.684 -50.698  1.00  0.00     0.002 A 
HETATM   11  C   UNL     1     -44.856  60.421 -50.762  1.00  0.00     0.030 A 
HETATM   12  H   UNL     1     -45.623  57.929 -50.881  1.00  0.00     0.170 HD
ENDROOT
BRANCH   2  13
HETATM   13  O   UNL     1     -40.657  58.289 -50.500  1.00  0.00    -0.359 OA
HETATM   14  H   UNL     1     -40.350  59.198 -50.678  1.00  0.00     0.213 HD
ENDBRANCH   2  13
BRANCH   2  15
HETATM   15  C   UNL     1     -41.541  58.073 -52.807  1.00  0.00     0.279 C 
HETATM   16  N   UNL     1     -42.527  57.581 -53.641  1.00  0.00    -0.356 N 
HETATM   17  H   UNL     1     -43.471  57.517 -53.272  1.00  0.00     0.162 HD
HETATM   18  O   UNL     1     -40.449  58.458 -53.239  1.00  0.00    -0.268 OA
BRANCH  16  19
HETATM   19  C   UNL     1     -42.359  57.628 -55.080  1.00  0.00     0.127 C 
BRANCH  19  20
HETATM   20  C   UNL     1     -42.826  56.349 -55.781  1.00  0.00     0.058 C 
BRANCH  20  21
HETATM   21  C   UNL     1     -42.068  55.110 -55.356  1.00  0.00    -0.057 A 
HETATM   22  C   UNL     1     -40.665  55.099 -55.330  1.00  0.00     0.009 A 
HETATM   23  C   UNL     1     -39.970  53.956 -54.926  1.00  0.00     0.024 A 
HETATM   24  C   UNL     1     -40.674  52.821 -54.535  1.00  0.00     0.034 A 
HETATM   25 CL   UNL     1     -39.820  51.415 -54.033  1.00  0.00    -0.084 Cl
HETATM   26  C   UNL     1     -42.066  52.819 -54.542  1.00  0.00     0.024 A 
HETATM   27  C   UNL     1     -42.762  53.960 -54.951  1.00  0.00     0.009 A 
ENDBRANCH  20  21
ENDBRANCH  19  20
ENDBRANCH  16  19
ENDBRANCH   2  15
BRANCH   1  28
HETATM   28  C   UNL     1     -41.800  55.728 -50.492  1.00  0.00     0.045 A 
HETATM   29  C   UNL     1     -41.633  55.269 -49.174  1.00  0.00     0.066 A 
HETATM   30  C   UNL     1     -40.921  54.095 -48.900  1.00  0.00     0.070 A 
HETATM   31  C   UNL     1     -40.400  53.343 -49.952  1.00  0.00     0.037 A 
HETATM   32  C   UNL     1     -40.550  53.780 -51.264  1.00  0.00     0.005 A 
HETATM   33  C   UNL     1     -41.235  54.967 -51.528  1.00  0.00     0.030 A 
BRANCH  30  34
HETATM   34  O   UNL     1     -40.680  53.577 -47.655  1.00  0.00    -0.356 OA
HETATM   35  C   UNL     1     -39.382  53.794 -47.112  1.00  0.00     0.210 C 
ENDBRANCH  30  34
ENDBRANCH   1  28
TORSDOF 7
ENDMDL
