MODEL 1
REMARK VINA RESULT:     -10.2      0.000      0.000
REMARK  5 active torsions:
REMARK  status: ('A' for Active; 'I' for Inactive)
REMARK    1  A    between atoms: C_2  and  N_3 
REMARK    2  A    between atoms: C_10  and  C_11 
REMARK    3  A    between atoms: C_11  and  C_12 
REMARK    4  A    between atoms: C_12  and  C_13 
REMARK       I    between atoms: C_13  and  N_14 
REMARK    5  A    between atoms: N_14  and  C_15 
ROOT
HETATM    1  C   UNL     1     -42.416  55.693 -56.048  1.00  0.00     0.222 C 
HETATM    2  N   UNL     1     -42.266  55.675 -57.420  1.00  0.00    -0.327 N 
HETATM    3  O   UNL     1     -43.481  55.850 -55.455  1.00  0.00    -0.273 OA
HETATM    4  H   UNL     1     -41.351  55.464 -57.790  1.00  0.00     0.169 HD
ENDROOT
BRANCH   2   5
HETATM    5  C   UNL     1     -43.260  55.889 -58.402  1.00  0.00     0.035 A 
HETATM    6  C   UNL     1     -43.634  57.139 -58.895  1.00  0.00     0.049 A 
HETATM    7  C   UNL     1     -44.666  57.274 -59.853  1.00  0.00     0.061 A 
HETATM    8  C   UNL     1     -45.331  56.132 -60.320  1.00  0.00     0.050 A 
HETATM    9  C   UNL     1     -44.852  58.641 -60.409  1.00  0.00     0.256 C 
HETATM   10  N   UNL     1     -46.409  56.103 -61.220  1.00  0.00    -0.324 N 
HETATM   11  C   UNL     1     -44.904  54.874 -59.871  1.00  0.00     0.033 A 
HETATM   12  C   UNL     1     -47.386  57.039 -61.417  1.00  0.00     0.245 C 
HETATM   13  H   UNL     1     -46.647  55.219 -61.658  1.00  0.00     0.169 HD
HETATM   14  O   UNL     1     -48.344  56.733 -62.129  1.00  0.00    -0.271 OA
HETATM   15  C   UNL     1     -47.344  58.317 -60.583  1.00  0.00     0.180 C 
HETATM   16  N   UNL     1     -46.103  59.039 -60.811  1.00  0.00    -0.334 N 
HETATM   17  C   UNL     1     -48.444  59.309 -60.984  1.00  0.00     0.037 C 
HETATM   18  C   UNL     1     -46.354  60.404 -61.240  1.00  0.00     0.127 C 
HETATM   19  C   UNL     1     -47.784  60.669 -60.801  1.00  0.00     0.022 C 
HETATM   20  C   UNL     1     -43.892  54.755 -58.914  1.00  0.00     0.032 A 
HETATM   21  O   UNL     1     -43.876  59.382 -60.495  1.00  0.00    -0.267 OA
ENDBRANCH   2   5
BRANCH   1  22
HETATM   22  C   UNL     1     -41.155  55.432 -55.229  1.00  0.00     0.108 C 
BRANCH  22  23
HETATM   23  C   UNL     1     -40.689  53.984 -55.115  1.00  0.00     0.050 C 
BRANCH  23  24
HETATM   24  C   UNL     1     -40.571  53.452 -53.718  1.00  0.00    -0.030 A 
HETATM   25  C   UNL     1     -40.183  52.116 -53.373  1.00  0.00    -0.002 A 
HETATM   26  C   UNL     1     -40.172  52.016 -51.977  1.00  0.00     0.045 A 
HETATM   27  C   UNL     1     -39.832  50.982 -54.138  1.00  0.00     0.014 A 
HETATM   28  N   UNL     1     -40.543  53.252 -51.485  1.00  0.00    -0.352 N 
HETATM   29  C   UNL     1     -39.824  50.818 -51.328  1.00  0.00     0.030 A 
HETATM   30  C   UNL     1     -40.789  54.114 -52.527  1.00  0.00     0.099 A 
HETATM   31  C   UNL     1     -39.482  49.711 -52.110  1.00  0.00     0.002 A 
HETATM   32  C   UNL     1     -39.486  49.789 -53.498  1.00  0.00     0.001 A 
BRANCH  28  33
HETATM   33  C   UNL     1     -40.651  53.616 -50.070  1.00  0.00     0.081 C 
HETATM   34  C   UNL     1     -41.860  54.514 -49.808  1.00  0.00     0.032 C 
HETATM   35  C   UNL     1     -39.358  54.250 -49.553  1.00  0.00     0.032 C 
ENDBRANCH  28  33
ENDBRANCH  23  24
ENDBRANCH  22  23
ENDBRANCH   1  22
TORSDOF 5
ENDMDL
MODEL 2
REMARK VINA RESULT:      -9.7      4.967      6.661
REMARK  5 active torsions:
REMARK  status: ('A' for Active; 'I' for Inactive)
REMARK    1  A    between atoms: C_2  and  N_3 
REMARK    2  A    between atoms: C_10  and  C_11 
REMARK    3  A    between atoms: C_11  and  C_12 
REMARK    4  A    between atoms: C_12  and  C_13 
REMARK       I    between atoms: C_13  and  N_14 
REMARK    5  A    between atoms: N_14  and  C_15 
ROOT
HETATM    1  C   UNL     1     -42.931  55.061 -54.621  1.00  0.00     0.222 C 
HETATM    2  N   UNL     1     -42.661  56.332 -54.155  1.00  0.00    -0.327 N 
HETATM    3  O   UNL     1     -43.928  54.401 -54.338  1.00  0.00    -0.273 OA
HETATM    4  H   UNL     1     -41.845  56.801 -54.517  1.00  0.00     0.169 HD
ENDROOT
BRANCH   2   5
HETATM    5  C   UNL     1     -43.415  57.094 -53.234  1.00  0.00     0.035 A 
HETATM    6  C   UNL     1     -43.936  58.362 -53.489  1.00  0.00     0.049 A 
HETATM    7  C   UNL     1     -44.651  59.078 -52.500  1.00  0.00     0.061 A 
HETATM    8  C   UNL     1     -44.842  58.507 -51.234  1.00  0.00     0.050 A 
HETATM    9  C   UNL     1     -45.285  60.343 -52.955  1.00  0.00     0.256 C 
HETATM   10  N   UNL     1     -45.474  59.108 -50.133  1.00  0.00    -0.324 N 
HETATM   11  C   UNL     1     -44.375  57.204 -51.007  1.00  0.00     0.033 A 
HETATM   12  C   UNL     1     -45.542  60.434 -49.805  1.00  0.00     0.245 C 
HETATM   13  H   UNL     1     -45.757  58.518 -49.359  1.00  0.00     0.169 HD
HETATM   14  O   UNL     1     -45.990  60.731 -48.696  1.00  0.00    -0.271 OA
HETATM   15  C   UNL     1     -44.870  61.446 -50.729  1.00  0.00     0.180 C 
HETATM   16  N   UNL     1     -45.438  61.378 -52.065  1.00  0.00    -0.334 N 
HETATM   17  C   UNL     1     -45.115  62.894 -50.282  1.00  0.00     0.037 C 
HETATM   18  C   UNL     1     -45.936  62.672 -52.497  1.00  0.00     0.127 C 
HETATM   19  C   UNL     1     -45.219  63.660 -51.593  1.00  0.00     0.022 C 
HETATM   20  C   UNL     1     -43.658  56.513 -51.988  1.00  0.00     0.032 A 
HETATM   21  O   UNL     1     -45.659  60.431 -54.123  1.00  0.00    -0.267 OA
ENDBRANCH   2   5
BRANCH   1  22
HETATM   22  C   UNL     1     -41.928  54.481 -55.615  1.00  0.00     0.108 C 
BRANCH  22  23
HETATM   23  C   UNL     1     -40.515  54.225 -55.105  1.00  0.00     0.050 C 
BRANCH  23  24
HETATM   24  C   UNL     1     -40.422  53.596 -53.746  1.00  0.00    -0.030 A 
HETATM   25  C   UNL     1     -40.128  52.216 -53.493  1.00  0.00    -0.002 A 
HETATM   26  C   UNL     1     -40.112  52.025 -52.107  1.00  0.00     0.045 A 
HETATM   27  C   UNL     1     -39.867  51.112 -54.334  1.00  0.00     0.014 A 
HETATM   28  N   UNL     1     -40.389  53.250 -51.532  1.00  0.00    -0.352 N 
HETATM   29  C   UNL     1     -39.845  50.766 -51.540  1.00  0.00     0.030 A 
HETATM   30  C   UNL     1     -40.581  54.193 -52.513  1.00  0.00     0.099 A 
HETATM   31  C   UNL     1     -39.591  49.691 -52.396  1.00  0.00     0.002 A 
HETATM   32  C   UNL     1     -39.601  49.858 -53.776  1.00  0.00     0.001 A 
BRANCH  28  33
HETATM   33  C   UNL     1     -40.457  53.528 -50.095  1.00  0.00     0.081 C 
HETATM   34  C   UNL     1     -41.737  54.278 -49.725  1.00  0.00     0.032 C 
HETATM   35  C   UNL     1     -39.211  54.269 -49.607  1.00  0.00     0.032 C 
ENDBRANCH  28  33
ENDBRANCH  23  24
ENDBRANCH  22  23
ENDBRANCH   1  22
TORSDOF 5
ENDMDL
MODEL 3
REMARK VINA RESULT:      -9.3      4.699      6.643
REMARK  5 active torsions:
REMARK  status: ('A' for Active; 'I' for Inactive)
REMARK    1  A    between atoms: C_2  and  N_3 
REMARK    2  A    between atoms: C_10  and  C_11 
REMARK    3  A    between atoms: C_11  and  C_12 
REMARK    4  A    between atoms: C_12  and  C_13 
REMARK       I    between atoms: C_13  and  N_14 
REMARK    5  A    between atoms: N_14  and  C_15 
ROOT
HETATM    1  C   UNL     1     -42.506  55.827 -55.368  1.00  0.00     0.222 C 
HETATM    2  N   UNL     1     -43.357  56.138 -54.327  1.00  0.00    -0.327 N 
HETATM    3  O   UNL     1     -42.004  56.643 -56.138  1.00  0.00    -0.273 OA
HETATM    4  H   UNL     1     -43.646  55.388 -53.717  1.00  0.00     0.169 HD
ENDROOT
BRANCH   2   5
HETATM    5  C   UNL     1     -43.867  57.408 -53.976  1.00  0.00     0.035 A 
HETATM    6  C   UNL     1     -43.541  58.101 -52.811  1.00  0.00     0.049 A 
HETATM    7  C   UNL     1     -44.123  59.355 -52.512  1.00  0.00     0.061 A 
HETATM    8  C   UNL     1     -45.048  59.919 -53.401  1.00  0.00     0.050 A 
HETATM    9  C   UNL     1     -43.568  60.054 -51.322  1.00  0.00     0.256 C 
HETATM   10  N   UNL     1     -45.754  61.120 -53.222  1.00  0.00    -0.324 N 
HETATM   11  C   UNL     1     -45.319  59.249 -54.603  1.00  0.00     0.033 A 
HETATM   12  C   UNL     1     -46.161  61.708 -52.057  1.00  0.00     0.245 C 
HETATM   13  H   UNL     1     -46.209  61.536 -54.028  1.00  0.00     0.169 HD
HETATM   14  O   UNL     1     -46.929  62.669 -52.133  1.00  0.00    -0.271 OA
HETATM   15  C   UNL     1     -45.821  61.018 -50.738  1.00  0.00     0.180 C 
HETATM   16  N   UNL     1     -44.381  60.881 -50.587  1.00  0.00    -0.334 N 
HETATM   17  C   UNL     1     -46.257  61.844 -49.520  1.00  0.00     0.037 C 
HETATM   18  C   UNL     1     -43.918  61.483 -49.349  1.00  0.00     0.127 C 
HETATM   19  C   UNL     1     -45.169  61.567 -48.492  1.00  0.00     0.022 C 
HETATM   20  C   UNL     1     -44.748  58.004 -54.879  1.00  0.00     0.032 A 
HETATM   21  O   UNL     1     -42.388  59.873 -51.026  1.00  0.00    -0.267 OA
ENDBRANCH   2   5
BRANCH   1  22
HETATM   22  C   UNL     1     -42.124  54.356 -55.511  1.00  0.00     0.108 C 
BRANCH  22  23
HETATM   23  C   UNL     1     -40.714  53.961 -55.089  1.00  0.00     0.050 C 
BRANCH  23  24
HETATM   24  C   UNL     1     -40.579  53.445 -53.688  1.00  0.00    -0.030 A 
HETATM   25  C   UNL     1     -40.197  52.110 -53.332  1.00  0.00    -0.002 A 
HETATM   26  C   UNL     1     -40.167  52.027 -51.935  1.00  0.00     0.045 A 
HETATM   27  C   UNL     1     -39.869  50.964 -54.087  1.00  0.00     0.014 A 
HETATM   28  N   UNL     1     -40.519  53.273 -51.453  1.00  0.00    -0.352 N 
HETATM   29  C   UNL     1     -39.819  50.835 -51.276  1.00  0.00     0.030 A 
HETATM   30  C   UNL     1     -40.773  54.124 -52.503  1.00  0.00     0.099 A 
HETATM   31  C   UNL     1     -39.499  49.715 -52.049  1.00  0.00     0.002 A 
HETATM   32  C   UNL     1     -39.523  49.775 -53.437  1.00  0.00     0.001 A 
BRANCH  28  33
HETATM   33  C   UNL     1     -40.602  53.656 -50.042  1.00  0.00     0.081 C 
HETATM   34  C   UNL     1     -41.782  54.592 -49.778  1.00  0.00     0.032 C 
HETATM   35  C   UNL     1     -39.286  54.258 -49.545  1.00  0.00     0.032 C 
ENDBRANCH  28  33
ENDBRANCH  23  24
ENDBRANCH  22  23
ENDBRANCH   1  22
TORSDOF 5
ENDMDL
MODEL 4
REMARK VINA RESULT:      -9.1      0.728      2.554
REMARK  5 active torsions:
REMARK  status: ('A' for Active; 'I' for Inactive)
REMARK    1  A    between atoms: C_2  and  N_3 
REMARK    2  A    between atoms: C_10  and  C_11 
REMARK    3  A    between atoms: C_11  and  C_12 
REMARK    4  A    between atoms: C_12  and  C_13 
REMARK       I    between atoms: C_13  and  N_14 
REMARK    5  A    between atoms: N_14  and  C_15 
ROOT
HETATM    1  C   UNL     1     -42.495  54.977 -56.131  1.00  0.00     0.222 C 
HETATM    2  N   UNL     1     -42.329  55.601 -57.351  1.00  0.00    -0.327 N 
HETATM    3  O   UNL     1     -43.539  54.459 -55.738  1.00  0.00    -0.273 OA
HETATM    4  H   UNL     1     -41.404  55.923 -57.592  1.00  0.00     0.169 HD
ENDROOT
BRANCH   2   5
HETATM    5  C   UNL     1     -43.305  55.825 -58.348  1.00  0.00     0.035 A 
HETATM    6  C   UNL     1     -43.681  57.081 -58.825  1.00  0.00     0.049 A 
HETATM    7  C   UNL     1     -44.695  57.225 -59.801  1.00  0.00     0.061 A 
HETATM    8  C   UNL     1     -45.341  56.087 -60.303  1.00  0.00     0.050 A 
HETATM    9  C   UNL     1     -44.883  58.601 -60.332  1.00  0.00     0.256 C 
HETATM   10  N   UNL     1     -46.400  56.065 -61.225  1.00  0.00    -0.324 N 
HETATM   11  C   UNL     1     -44.910  54.825 -59.870  1.00  0.00     0.033 A 
HETATM   12  C   UNL     1     -47.381  56.997 -61.422  1.00  0.00     0.245 C 
HETATM   13  H   UNL     1     -46.621  55.189 -61.685  1.00  0.00     0.169 HD
HETATM   14  O   UNL     1     -48.322  56.696 -62.159  1.00  0.00    -0.271 OA
HETATM   15  C   UNL     1     -47.369  58.258 -60.563  1.00  0.00     0.180 C 
HETATM   16  N   UNL     1     -46.131  58.996 -60.752  1.00  0.00    -0.334 N 
HETATM   17  C   UNL     1     -48.470  59.248 -60.966  1.00  0.00     0.037 C 
HETATM   18  C   UNL     1     -46.386  60.367 -61.159  1.00  0.00     0.127 C 
HETATM   19  C   UNL     1     -47.827  60.609 -60.743  1.00  0.00     0.022 C 
HETATM   20  C   UNL     1     -43.917  54.696 -58.895  1.00  0.00     0.032 A 
HETATM   21  O   UNL     1     -43.913  59.353 -60.385  1.00  0.00    -0.267 OA
ENDBRANCH   2   5
BRANCH   1  22
HETATM   22  C   UNL     1     -41.254  54.882 -55.248  1.00  0.00     0.108 C 
BRANCH  22  23
HETATM   23  C   UNL     1     -41.419  55.247 -53.778  1.00  0.00     0.050 C 
BRANCH  23  24
HETATM   24  C   UNL     1     -40.905  54.234 -52.799  1.00  0.00    -0.030 A 
HETATM   25  C   UNL     1     -40.902  54.390 -51.373  1.00  0.00    -0.002 A 
HETATM   26  C   UNL     1     -40.364  53.226 -50.813  1.00  0.00     0.045 A 
HETATM   27  C   UNL     1     -41.319  55.428 -50.513  1.00  0.00     0.014 A 
HETATM   28  N   UNL     1     -40.048  52.386 -51.863  1.00  0.00    -0.352 N 
HETATM   29  C   UNL     1     -40.231  53.072 -49.422  1.00  0.00     0.030 A 
HETATM   30  C   UNL     1     -40.367  52.990 -53.056  1.00  0.00     0.099 A 
HETATM   31  C   UNL     1     -40.652  54.116 -48.593  1.00  0.00     0.002 A 
HETATM   32  C   UNL     1     -41.189  55.281 -49.128  1.00  0.00     0.001 A 
BRANCH  28  33
HETATM   33  C   UNL     1     -39.475  51.043 -51.746  1.00  0.00     0.081 C 
HETATM   34  C   UNL     1     -39.578  50.268 -53.060  1.00  0.00     0.032 C 
HETATM   35  C   UNL     1     -40.097  50.265 -50.585  1.00  0.00     0.032 C 
ENDBRANCH  28  33
ENDBRANCH  23  24
ENDBRANCH  22  23
ENDBRANCH   1  22
TORSDOF 5
ENDMDL
MODEL 5
REMARK VINA RESULT:      -8.9      3.800      6.089
REMARK  5 active torsions:
REMARK  status: ('A' for Active; 'I' for Inactive)
REMARK    1  A    between atoms: C_2  and  N_3 
REMARK    2  A    between atoms: C_10  and  C_11 
REMARK    3  A    between atoms: C_11  and  C_12 
REMARK    4  A    between atoms: C_12  and  C_13 
REMARK       I    between atoms: C_13  and  N_14 
REMARK    5  A    between atoms: N_14  and  C_15 
ROOT
HETATM    1  C   UNL     1     -42.172  55.979 -50.294  1.00  0.00     0.222 C 
HETATM    2  N   UNL     1     -43.388  55.945 -50.946  1.00  0.00    -0.327 N 
HETATM    3  O   UNL     1     -41.470  56.979 -50.159  1.00  0.00    -0.273 OA
HETATM    4  H   UNL     1     -43.907  55.080 -50.928  1.00  0.00     0.169 HD
ENDROOT
BRANCH   2   5
HETATM    5  C   UNL     1     -44.034  57.001 -51.627  1.00  0.00     0.035 A 
HETATM    6  C   UNL     1     -43.915  57.258 -52.993  1.00  0.00     0.049 A 
HETATM    7  C   UNL     1     -44.566  58.360 -53.596  1.00  0.00     0.061 A 
HETATM    8  C   UNL     1     -45.348  59.217 -52.810  1.00  0.00     0.050 A 
HETATM    9  C   UNL     1     -44.483  58.421 -55.079  1.00  0.00     0.256 C 
HETATM   10  N   UNL     1     -46.007  60.379 -53.243  1.00  0.00    -0.324 N 
HETATM   11  C   UNL     1     -45.519  58.914 -51.451  1.00  0.00     0.033 A 
HETATM   12  C   UNL     1     -45.654  61.238 -54.247  1.00  0.00     0.245 C 
HETATM   13  H   UNL     1     -46.723  60.778 -52.646  1.00  0.00     0.169 HD
HETATM   14  O   UNL     1     -46.274  62.300 -54.341  1.00  0.00    -0.271 OA
HETATM   15  C   UNL     1     -44.391  60.939 -55.049  1.00  0.00     0.180 C 
HETATM   16  N   UNL     1     -44.493  59.645 -55.704  1.00  0.00    -0.334 N 
HETATM   17  C   UNL     1     -44.181  61.934 -56.198  1.00  0.00     0.037 C 
HETATM   18  C   UNL     1     -44.288  59.758 -57.137  1.00  0.00     0.127 C 
HETATM   19  C   UNL     1     -43.566  61.084 -57.300  1.00  0.00     0.022 C 
HETATM   20  C   UNL     1     -44.859  57.830 -50.865  1.00  0.00     0.032 A 
HETATM   21  O   UNL     1     -44.409  57.370 -55.712  1.00  0.00    -0.267 OA
ENDBRANCH   2   5
BRANCH   1  22
HETATM   22  C   UNL     1     -41.718  54.673 -49.647  1.00  0.00     0.108 C 
BRANCH  22  23
HETATM   23  C   UNL     1     -40.317  54.179 -49.990  1.00  0.00     0.050 C 
BRANCH  23  24
HETATM   24  C   UNL     1     -40.207  53.371 -51.248  1.00  0.00    -0.030 A 
HETATM   25  C   UNL     1     -40.388  53.881 -52.576  1.00  0.00    -0.002 A 
HETATM   26  C   UNL     1     -40.185  52.828 -53.474  1.00  0.00     0.045 A 
HETATM   27  C   UNL     1     -40.704  55.159 -53.087  1.00  0.00     0.014 A 
HETATM   28  N   UNL     1     -39.890  51.710 -52.719  1.00  0.00    -0.352 N 
HETATM   29  C   UNL     1     -40.290  53.015 -54.864  1.00  0.00     0.030 A 
HETATM   30  C   UNL     1     -39.908  52.031 -51.383  1.00  0.00     0.099 A 
HETATM   31  C   UNL     1     -40.604  54.291 -55.342  1.00  0.00     0.002 A 
HETATM   32  C   UNL     1     -40.809  55.351 -54.467  1.00  0.00     0.001 A 
BRANCH  28  33
HETATM   33  C   UNL     1     -39.585  50.376 -53.243  1.00  0.00     0.081 C 
HETATM   34  C   UNL     1     -40.532  49.985 -54.379  1.00  0.00     0.032 C 
HETATM   35  C   UNL     1     -39.576  49.324 -52.132  1.00  0.00     0.032 C 
ENDBRANCH  28  33
ENDBRANCH  23  24
ENDBRANCH  22  23
ENDBRANCH   1  22
TORSDOF 5
ENDMDL
MODEL 6
REMARK VINA RESULT:      -8.9      3.626      5.450
REMARK  5 active torsions:
REMARK  status: ('A' for Active; 'I' for Inactive)
REMARK    1  A    between atoms: C_2  and  N_3 
REMARK    2  A    between atoms: C_10  and  C_11 
REMARK    3  A    between atoms: C_11  and  C_12 
REMARK    4  A    between atoms: C_12  and  C_13 
REMARK       I    between atoms: C_13  and  N_14 
REMARK    5  A    between atoms: N_14  and  C_15 
ROOT
HETATM    1  C   UNL     1     -42.880  56.021 -56.666  1.00  0.00     0.222 C 
HETATM    2  N   UNL     1     -41.994  57.023 -56.323  1.00  0.00    -0.327 N 
HETATM    3  O   UNL     1     -43.830  56.150 -57.435  1.00  0.00    -0.273 OA
HETATM    4  H   UNL     1     -41.210  56.776 -55.739  1.00  0.00     0.169 HD
ENDROOT
BRANCH   2   5
HETATM    5  C   UNL     1     -42.027  58.379 -56.718  1.00  0.00     0.035 A 
HETATM    6  C   UNL     1     -41.878  58.829 -58.030  1.00  0.00     0.049 A 
HETATM    7  C   UNL     1     -41.885  60.209 -58.341  1.00  0.00     0.061 A 
HETATM    8  C   UNL     1     -42.044  61.150 -57.314  1.00  0.00     0.050 A 
HETATM    9  C   UNL     1     -41.877  60.541 -59.790  1.00  0.00     0.256 C 
HETATM   10  N   UNL     1     -42.015  62.547 -57.449  1.00  0.00    -0.324 N 
HETATM   11  C   UNL     1     -42.262  60.688 -56.008  1.00  0.00     0.033 A 
HETATM   12  C   UNL     1     -41.326  63.305 -58.356  1.00  0.00     0.245 C 
HETATM   13  H   UNL     1     -42.372  63.113 -56.687  1.00  0.00     0.169 HD
HETATM   14  O   UNL     1     -41.296  64.525 -58.183  1.00  0.00    -0.271 OA
HETATM   15  C   UNL     1     -40.467  62.590 -59.395  1.00  0.00     0.180 C 
HETATM   16  N   UNL     1     -41.279  61.703 -60.212  1.00  0.00    -0.334 N 
HETATM   17  C   UNL     1     -39.837  63.565 -60.399  1.00  0.00     0.037 C 
HETATM   18  C   UNL     1     -41.137  62.005 -61.626  1.00  0.00     0.127 C 
HETATM   19  C   UNL     1     -39.836  62.783 -61.705  1.00  0.00     0.022 C 
HETATM   20  C   UNL     1     -42.238  59.322 -55.711  1.00  0.00     0.032 A 
HETATM   21  O   UNL     1     -42.411  59.763 -60.578  1.00  0.00    -0.267 OA
ENDBRANCH   2   5
BRANCH   1  22
HETATM   22  C   UNL     1     -42.596  54.640 -56.081  1.00  0.00     0.108 C 
BRANCH  22  23
HETATM   23  C   UNL     1     -42.882  54.444 -54.596  1.00  0.00     0.050 C 
BRANCH  23  24
HETATM   24  C   UNL     1     -41.838  53.685 -53.832  1.00  0.00    -0.030 A 
HETATM   25  C   UNL     1     -41.322  54.055 -52.547  1.00  0.00    -0.002 A 
HETATM   26  C   UNL     1     -40.385  53.089 -52.163  1.00  0.00     0.045 A 
HETATM   27  C   UNL     1     -41.582  55.134 -51.674  1.00  0.00     0.014 A 
HETATM   28  N   UNL     1     -40.330  52.159 -53.182  1.00  0.00    -0.352 N 
HETATM   29  C   UNL     1     -39.703  53.173 -50.936  1.00  0.00     0.030 A 
HETATM   30  C   UNL     1     -41.196  52.517 -54.188  1.00  0.00     0.099 A 
HETATM   31  C   UNL     1     -39.980  54.252 -50.092  1.00  0.00     0.002 A 
HETATM   32  C   UNL     1     -40.907  55.223 -50.454  1.00  0.00     0.001 A 
BRANCH  28  33
HETATM   33  C   UNL     1     -39.493  50.957 -53.202  1.00  0.00     0.081 C 
HETATM   34  C   UNL     1     -39.715  50.135 -54.473  1.00  0.00     0.032 C 
HETATM   35  C   UNL     1     -39.695  50.110 -51.944  1.00  0.00     0.032 C 
ENDBRANCH  28  33
ENDBRANCH  23  24
ENDBRANCH  22  23
ENDBRANCH   1  22
TORSDOF 5
ENDMDL
MODEL 7
REMARK VINA RESULT:      -8.8      1.595      2.426
REMARK  5 active torsions:
REMARK  status: ('A' for Active; 'I' for Inactive)
REMARK    1  A    between atoms: C_2  and  N_3 
REMARK    2  A    between atoms: C_10  and  C_11 
REMARK    3  A    between atoms: C_11  and  C_12 
REMARK    4  A    between atoms: C_12  and  C_13 
REMARK       I    between atoms: C_13  and  N_14 
REMARK    5  A    between atoms: N_14  and  C_15 
ROOT
HETATM    1  C   UNL     1     -42.512  55.440 -56.251  1.00  0.00     0.222 C 
HETATM    2  N   UNL     1     -42.426  55.366 -57.627  1.00  0.00    -0.327 N 
HETATM    3  O   UNL     1     -43.517  55.766 -55.622  1.00  0.00    -0.273 OA
HETATM    4  H   UNL     1     -41.568  55.015 -58.025  1.00  0.00     0.169 HD
ENDROOT
BRANCH   2   5
HETATM    5  C   UNL     1     -43.420  55.697 -58.575  1.00  0.00     0.035 A 
HETATM    6  C   UNL     1     -43.730  56.995 -58.982  1.00  0.00     0.049 A 
HETATM    7  C   UNL     1     -44.767  57.248 -59.911  1.00  0.00     0.061 A 
HETATM    8  C   UNL     1     -45.502  56.177 -60.437  1.00  0.00     0.050 A 
HETATM    9  C   UNL     1     -44.883  58.656 -60.375  1.00  0.00     0.256 C 
HETATM   10  N   UNL     1     -46.592  56.265 -61.318  1.00  0.00    -0.324 N 
HETATM   11  C   UNL     1     -45.139  54.871 -60.076  1.00  0.00     0.033 A 
HETATM   12  C   UNL     1     -47.517  57.265 -61.437  1.00  0.00     0.245 C 
HETATM   13  H   UNL     1     -46.886  55.427 -61.807  1.00  0.00     0.169 HD
HETATM   14  O   UNL     1     -48.501  57.059 -62.150  1.00  0.00    -0.271 OA
HETATM   15  C   UNL     1     -47.392  58.483 -60.525  1.00  0.00     0.180 C 
HETATM   16  N   UNL     1     -46.116  59.148 -60.728  1.00  0.00    -0.334 N 
HETATM   17  C   UNL     1     -48.440  59.558 -60.842  1.00  0.00     0.037 C 
HETATM   18  C   UNL     1     -46.296  60.550 -61.066  1.00  0.00     0.127 C 
HETATM   19  C   UNL     1     -47.702  60.864 -60.585  1.00  0.00     0.022 C 
HETATM   20  C   UNL     1     -44.123  54.635 -59.147  1.00  0.00     0.032 A 
HETATM   21  O   UNL     1     -43.868  59.346 -60.431  1.00  0.00    -0.267 OA
ENDBRANCH   2   5
BRANCH   1  22
HETATM   22  C   UNL     1     -41.268  55.019 -55.474  1.00  0.00     0.108 C 
BRANCH  22  23
HETATM   23  C   UNL     1     -41.485  54.189 -54.214  1.00  0.00     0.050 C 
BRANCH  23  24
HETATM   24  C   UNL     1     -41.383  54.941 -52.920  1.00  0.00    -0.030 A 
HETATM   25  C   UNL     1     -41.021  54.367 -51.657  1.00  0.00    -0.002 A 
HETATM   26  C   UNL     1     -41.019  55.390 -50.703  1.00  0.00     0.045 A 
HETATM   27  C   UNL     1     -40.689  53.056 -51.250  1.00  0.00     0.014 A 
HETATM   28  N   UNL     1     -41.369  56.552 -51.362  1.00  0.00    -0.352 N 
HETATM   29  C   UNL     1     -40.696  55.140 -49.357  1.00  0.00     0.030 A 
HETATM   30  C   UNL     1     -41.594  56.285 -52.691  1.00  0.00     0.099 A 
HETATM   31  C   UNL     1     -40.372  53.834 -48.981  1.00  0.00     0.002 A 
HETATM   32  C   UNL     1     -40.368  52.802 -49.913  1.00  0.00     0.001 A 
BRANCH  28  33
HETATM   33  C   UNL     1     -41.475  57.883 -50.758  1.00  0.00     0.081 C 
HETATM   34  C   UNL     1     -42.604  58.700 -51.388  1.00  0.00     0.032 C 
HETATM   35  C   UNL     1     -40.143  58.632 -50.810  1.00  0.00     0.032 C 
ENDBRANCH  28  33
ENDBRANCH  23  24
ENDBRANCH  22  23
ENDBRANCH   1  22
TORSDOF 5
ENDMDL
MODEL 8
REMARK VINA RESULT:      -8.7      5.390      7.065
REMARK  5 active torsions:
REMARK  status: ('A' for Active; 'I' for Inactive)
REMARK    1  A    between atoms: C_2  and  N_3 
REMARK    2  A    between atoms: C_10  and  C_11 
REMARK    3  A    between atoms: C_11  and  C_12 
REMARK    4  A    between atoms: C_12  and  C_13 
REMARK       I    between atoms: C_13  and  N_14 
REMARK    5  A    between atoms: N_14  and  C_15 
ROOT
HETATM    1  C   UNL     1     -42.615  56.308 -50.630  1.00  0.00     0.222 C 
HETATM    2  N   UNL     1     -43.848  56.488 -51.222  1.00  0.00    -0.327 N 
HETATM    3  O   UNL     1     -41.753  57.177 -50.514  1.00  0.00    -0.273 OA
HETATM    4  H   UNL     1     -44.500  55.719 -51.192  1.00  0.00     0.169 HD
ENDROOT
BRANCH   2   5
HETATM    5  C   UNL     1     -44.342  57.650 -51.857  1.00  0.00     0.035 A 
HETATM    6  C   UNL     1     -44.657  58.841 -51.202  1.00  0.00     0.049 A 
HETATM    7  C   UNL     1     -45.183  59.951 -51.904  1.00  0.00     0.061 A 
HETATM    8  C   UNL     1     -45.396  59.859 -53.286  1.00  0.00     0.050 A 
HETATM    9  C   UNL     1     -45.322  61.203 -51.114  1.00  0.00     0.256 C 
HETATM   10  N   UNL     1     -45.963  60.844 -54.111  1.00  0.00    -0.324 N 
HETATM   11  C   UNL     1     -45.014  58.683 -53.948  1.00  0.00     0.033 A 
HETATM   12  C   UNL     1     -46.892  61.795 -53.794  1.00  0.00     0.245 C 
HETATM   13  H   UNL     1     -45.848  60.755 -55.115  1.00  0.00     0.169 HD
HETATM   14  O   UNL     1     -47.390  62.445 -54.715  1.00  0.00    -0.271 OA
HETATM   15  C   UNL     1     -47.413  61.852 -52.360  1.00  0.00     0.180 C 
HETATM   16  N   UNL     1     -46.324  62.089 -51.427  1.00  0.00    -0.334 N 
HETATM   17  C   UNL     1     -48.373  63.028 -52.136  1.00  0.00     0.037 C 
HETATM   18  C   UNL     1     -46.574  63.260 -50.605  1.00  0.00     0.127 C 
HETATM   19  C   UNL     1     -48.076  63.465 -50.708  1.00  0.00     0.022 C 
HETATM   20  C   UNL     1     -44.508  57.589 -53.241  1.00  0.00     0.032 A 
HETATM   21  O   UNL     1     -44.532  61.414 -50.196  1.00  0.00    -0.267 OA
ENDBRANCH   2   5
BRANCH   1  22
HETATM   22  C   UNL     1     -42.352  54.932 -50.024  1.00  0.00     0.108 C 
BRANCH  22  23
HETATM   23  C   UNL     1     -40.916  54.423 -50.056  1.00  0.00     0.050 C 
BRANCH  23  24
HETATM   24  C   UNL     1     -40.570  53.538 -51.217  1.00  0.00    -0.030 A 
HETATM   25  C   UNL     1     -40.576  53.942 -52.593  1.00  0.00    -0.002 A 
HETATM   26  C   UNL     1     -40.179  52.844 -53.366  1.00  0.00     0.045 A 
HETATM   27  C   UNL     1     -40.881  55.156 -53.244  1.00  0.00     0.014 A 
HETATM   28  N   UNL     1     -39.940  51.804 -52.490  1.00  0.00    -0.352 N 
HETATM   29  C   UNL     1     -40.081  52.928 -54.767  1.00  0.00     0.030 A 
HETATM   30  C   UNL     1     -40.179  52.216 -51.201  1.00  0.00     0.099 A 
HETATM   31  C   UNL     1     -40.390  54.142 -55.385  1.00  0.00     0.002 A 
HETATM   32  C   UNL     1     -40.786  55.245 -54.636  1.00  0.00     0.001 A 
BRANCH  28  33
HETATM   33  C   UNL     1     -39.484  50.461 -52.856  1.00  0.00     0.081 C 
HETATM   34  C   UNL     1     -40.176  49.955 -54.123  1.00  0.00     0.032 C 
HETATM   35  C   UNL     1     -39.647  49.476 -51.697  1.00  0.00     0.032 C 
ENDBRANCH  28  33
ENDBRANCH  23  24
ENDBRANCH  22  23
ENDBRANCH   1  22
TORSDOF 5
ENDMDL
MODEL 9
REMARK VINA RESULT:      -8.6      3.228     10.029
REMARK  5 active torsions:
REMARK  status: ('A' for Active; 'I' for Inactive)
REMARK    1  A    between atoms: C_2  and  N_3 
REMARK    2  A    between atoms: C_10  and  C_11 
REMARK    3  A    between atoms: C_11  and  C_12 
REMARK    4  A    between atoms: C_12  and  C_13 
REMARK       I    between atoms: C_13  and  N_14 
REMARK    5  A    between atoms: N_14  and  C_15 
ROOT
HETATM    1  C   UNL     1     -44.358  58.422 -55.206  1.00  0.00     0.222 C 
HETATM    2  N   UNL     1     -44.686  57.090 -55.055  1.00  0.00    -0.327 N 
HETATM    3  O   UNL     1     -43.261  58.914 -54.950  1.00  0.00    -0.273 OA
HETATM    4  H   UNL     1     -45.597  56.792 -55.368  1.00  0.00     0.169 HD
ENDROOT
BRANCH   2   5
HETATM    5  C   UNL     1     -43.879  56.055 -54.532  1.00  0.00     0.035 A 
HETATM    6  C   UNL     1     -43.640  55.840 -53.175  1.00  0.00     0.049 A 
HETATM    7  C   UNL     1     -42.788  54.801 -52.732  1.00  0.00     0.061 A 
HETATM    8  C   UNL     1     -42.166  53.967 -53.671  1.00  0.00     0.050 A 
HETATM    9  C   UNL     1     -42.749  54.586 -51.261  1.00  0.00     0.256 C 
HETATM   10  N   UNL     1     -41.254  52.935 -53.397  1.00  0.00    -0.324 N 
HETATM   11  C   UNL     1     -42.465  54.145 -55.029  1.00  0.00     0.033 A 
HETATM   12  C   UNL     1     -40.360  52.835 -52.367  1.00  0.00     0.245 C 
HETATM   13  H   UNL     1     -41.058  52.258 -54.127  1.00  0.00     0.169 HD
HETATM   14  O   UNL     1     -39.523  51.931 -52.416  1.00  0.00    -0.271 OA
HETATM   15  C   UNL     1     -40.310  53.959 -51.336  1.00  0.00     0.180 C 
HETATM   16  N   UNL     1     -41.598  54.112 -50.680  1.00  0.00    -0.334 N 
HETATM   17  C   UNL     1     -39.331  53.658 -50.193  1.00  0.00     0.037 C 
HETATM   18  C   UNL     1     -41.475  54.006 -49.236  1.00  0.00     0.127 C 
HETATM   19  C   UNL     1     -40.003  54.276 -48.975  1.00  0.00     0.022 C 
HETATM   20  C   UNL     1     -43.297  55.184 -55.455  1.00  0.00     0.032 A 
HETATM   21  O   UNL     1     -43.754  54.839 -50.599  1.00  0.00    -0.267 OA
ENDBRANCH   2   5
BRANCH   1  22
HETATM   22  C   UNL     1     -45.441  59.320 -55.799  1.00  0.00     0.108 C 
BRANCH  22  23
HETATM   23  C   UNL     1     -45.667  59.234 -57.304  1.00  0.00     0.050 C 
BRANCH  23  24
HETATM   24  C   UNL     1     -44.426  59.270 -58.146  1.00  0.00    -0.030 A 
HETATM   25  C   UNL     1     -43.781  58.124 -58.717  1.00  0.00    -0.002 A 
HETATM   26  C   UNL     1     -42.673  58.570 -59.446  1.00  0.00     0.045 A 
HETATM   27  C   UNL     1     -44.055  56.739 -58.677  1.00  0.00     0.014 A 
HETATM   28  N   UNL     1     -42.643  59.946 -59.324  1.00  0.00    -0.352 N 
HETATM   29  C   UNL     1     -41.834  57.674 -60.132  1.00  0.00     0.030 A 
HETATM   30  C   UNL     1     -43.690  60.368 -58.539  1.00  0.00     0.099 A 
HETATM   31  C   UNL     1     -42.129  56.309 -60.075  1.00  0.00     0.002 A 
HETATM   32  C   UNL     1     -43.224  55.844 -59.356  1.00  0.00     0.001 A 
BRANCH  28  33
HETATM   33  C   UNL     1     -41.661  60.841 -59.941  1.00  0.00     0.081 C 
HETATM   34  C   UNL     1     -41.420  62.088 -59.090  1.00  0.00     0.032 C 
HETATM   35  C   UNL     1     -42.055  61.206 -61.373  1.00  0.00     0.032 C 
ENDBRANCH  28  33
ENDBRANCH  23  24
ENDBRANCH  22  23
ENDBRANCH   1  22
TORSDOF 5
ENDMDL
MODEL 10
REMARK VINA RESULT:      -8.6      1.885      2.707
REMARK  5 active torsions:
REMARK  status: ('A' for Active; 'I' for Inactive)
REMARK    1  A    between atoms: C_2  and  N_3 
REMARK    2  A    between atoms: C_10  and  C_11 
REMARK    3  A    between atoms: C_11  and  C_12 
REMARK    4  A    between atoms: C_12  and  C_13 
REMARK       I    between atoms: C_13  and  N_14 
REMARK    5  A    between atoms: N_14  and  C_15 
ROOT
HETATM    1  C   UNL     1     -42.668  58.783 -54.608  1.00  0.00     0.222 C 
HETATM    2  N   UNL     1     -42.143  58.338 -55.804  1.00  0.00    -0.327 N 
HETATM    3  O   UNL     1     -43.866  58.827 -54.335  1.00  0.00    -0.273 OA
HETATM    4  H   UNL     1     -41.139  58.280 -55.884  1.00  0.00     0.169 HD
ENDROOT
BRANCH   2   5
HETATM    5  C   UNL     1     -42.847  57.914 -56.954  1.00  0.00     0.035 A 
HETATM    6  C   UNL     1     -43.503  58.764 -57.844  1.00  0.00     0.049 A 
HETATM    7  C   UNL     1     -44.219  58.258 -58.954  1.00  0.00     0.061 A 
HETATM    8  C   UNL     1     -44.275  56.874 -59.171  1.00  0.00     0.050 A 
HETATM    9  C   UNL     1     -44.734  59.279 -59.905  1.00  0.00     0.256 C 
HETATM   10  N   UNL     1     -44.987  56.215 -60.186  1.00  0.00    -0.324 N 
HETATM   11  C   UNL     1     -43.556  56.031 -58.312  1.00  0.00     0.033 A 
HETATM   12  C   UNL     1     -46.147  56.595 -60.802  1.00  0.00     0.245 C 
HETATM   13  H   UNL     1     -44.762  55.246 -60.381  1.00  0.00     0.169 HD
HETATM   14  O   UNL     1     -46.702  55.779 -61.540  1.00  0.00    -0.271 OA
HETATM   15  C   UNL     1     -46.796  57.911 -60.381  1.00  0.00     0.180 C 
HETATM   16  N   UNL     1     -45.889  59.026 -60.604  1.00  0.00    -0.334 N 
HETATM   17  C   UNL     1     -48.031  58.248 -61.227  1.00  0.00     0.037 C 
HETATM   18  C   UNL     1     -46.495  60.042 -61.447  1.00  0.00     0.127 C 
HETATM   19  C   UNL     1     -47.984  59.765 -61.342  1.00  0.00     0.022 C 
HETATM   20  C   UNL     1     -42.864  56.542 -57.210  1.00  0.00     0.032 A 
HETATM   21  O   UNL     1     -44.108  60.328 -60.044  1.00  0.00    -0.267 OA
ENDBRANCH   2   5
BRANCH   1  22
HETATM   22  C   UNL     1     -41.659  59.184 -53.536  1.00  0.00     0.108 C 
BRANCH  22  23
HETATM   23  C   UNL     1     -40.523  58.207 -53.252  1.00  0.00     0.050 C 
BRANCH  23  24
HETATM   24  C   UNL     1     -40.945  56.845 -52.788  1.00  0.00    -0.030 A 
HETATM   25  C   UNL     1     -40.793  55.633 -53.539  1.00  0.00    -0.002 A 
HETATM   26  C   UNL     1     -41.286  54.579 -52.761  1.00  0.00     0.045 A 
HETATM   27  C   UNL     1     -40.271  55.346 -54.819  1.00  0.00     0.014 A 
HETATM   28  N   UNL     1     -41.724  55.130 -51.573  1.00  0.00    -0.352 N 
HETATM   29  C   UNL     1     -41.272  53.252 -53.226  1.00  0.00     0.030 A 
HETATM   30  C   UNL     1     -41.526  56.490 -51.589  1.00  0.00     0.099 A 
HETATM   31  C   UNL     1     -40.749  52.997 -54.497  1.00  0.00     0.002 A 
HETATM   32  C   UNL     1     -40.254  54.029 -55.286  1.00  0.00     0.001 A 
BRANCH  28  33
HETATM   33  C   UNL     1     -42.303  54.393 -50.447  1.00  0.00     0.081 C 
HETATM   34  C   UNL     1     -43.799  54.674 -50.296  1.00  0.00     0.032 C 
HETATM   35  C   UNL     1     -41.546  54.669 -49.146  1.00  0.00     0.032 C 
ENDBRANCH  28  33
ENDBRANCH  23  24
ENDBRANCH  22  23
ENDBRANCH   1  22
TORSDOF 5
ENDMDL
