MODEL 1
REMARK VINA RESULT:      -8.2      0.000      0.000
REMARK  8 active torsions:
REMARK  status: ('A' for Active; 'I' for Inactive)
REMARK    1  A    between atoms: O_2  and  C_3 
REMARK    2  A    between atoms: C_6  and  C_7 
REMARK    3  A    between atoms: C_7  and  O_8 
REMARK    4  A    between atoms: C_7  and  C_9 
REMARK    5  A    between atoms: C_9  and  N_10 
REMARK    6  A    between atoms: C_11  and  N_12 
REMARK    7  A    between atoms: N_13  and  C_14 
REMARK    8  A    between atoms: C_14  and  C_15 
ROOT
HETATM    1  N   UNL     1     -43.159  56.805 -55.157  1.00  0.00    -0.178 N 
HETATM    2  C   UNL     1     -43.222  55.555 -54.716  1.00  0.00     0.681 C 
HETATM    3  N   UNL     1     -42.665  55.479 -53.516  1.00  0.00    -0.177 N 
HETATM    4  C   UNL     1     -41.995  56.674 -53.262  1.00  0.00     0.079 A 
HETATM    5  C   UNL     1     -42.314  57.530 -54.322  1.00  0.00     0.079 A 
HETATM    6  C   UNL     1     -41.167  57.066 -52.213  1.00  0.00     0.032 A 
HETATM    7  C   UNL     1     -40.666  58.372 -52.281  1.00  0.00     0.002 A 
HETATM    8  C   UNL     1     -40.989  59.236 -53.346  1.00  0.00     0.002 A 
HETATM    9  C   UNL     1     -41.828  58.833 -54.393  1.00  0.00     0.032 A 
ENDROOT
BRANCH   1  10
HETATM   10  C   UNL     1     -43.918  57.337 -56.301  1.00  0.00     0.184 C 
BRANCH  10  11
HETATM   11  C   UNL     1     -43.167  57.205 -57.644  1.00  0.00     0.170 C 
BRANCH  11  12
HETATM   12  C   UNL     1     -44.123  56.834 -58.757  1.00  0.00    -0.028 A 
HETATM   13  C   UNL     1     -43.832  55.806 -59.666  1.00  0.00     0.012 A 
HETATM   14  C   UNL     1     -44.752  55.439 -60.655  1.00  0.00     0.037 A 
HETATM   15  C   UNL     1     -45.983  56.083 -60.741  1.00  0.00     0.068 A 
HETATM   16  C   UNL     1     -46.280  57.106 -59.840  1.00  0.00     0.037 A 
HETATM   17  C   UNL     1     -45.361  57.482 -58.855  1.00  0.00     0.012 A 
BRANCH  15  18
HETATM   18  O   UNL     1     -46.974  55.812 -61.642  1.00  0.00    -0.356 OA
HETATM   19  C   UNL     1     -48.013  56.776 -61.775  1.00  0.00     0.210 C 
ENDBRANCH  15  18
ENDBRANCH  11  12
BRANCH  11  20
HETATM   20  O   UNL     1     -42.130  56.209 -57.529  1.00  0.00    -0.389 OA
HETATM   21  H   UNL     1     -42.277  55.596 -58.280  1.00  0.00     0.210 HD
ENDBRANCH  11  20
ENDBRANCH  10  11
ENDBRANCH   1  10
BRANCH   2  22
HETATM   22  N   UNL     1     -43.754  54.535 -55.384  1.00  0.00    -0.234 N 
HETATM   23  H   UNL     1     -44.749  54.582 -55.610  1.00  0.00     0.174 HD
HETATM   24  H   UNL     1     -43.182  53.892 -55.909  1.00  0.00     0.174 HD
ENDBRANCH   2  22
BRANCH   3  25
HETATM   25  C   UNL     1     -42.799  54.368 -52.587  1.00  0.00     0.186 C 
BRANCH  25  26
HETATM   26  C   UNL     1     -41.600  53.452 -52.594  1.00  0.00    -0.039 A 
HETATM   27  C   UNL     1     -41.096  52.832 -53.748  1.00  0.00     0.009 A 
HETATM   28  C   UNL     1     -39.972  52.005 -53.679  1.00  0.00     0.001 A 
HETATM   29  C   UNL     1     -39.331  51.792 -52.462  1.00  0.00     0.000 A 
HETATM   30  C   UNL     1     -39.811  52.406 -51.309  1.00  0.00     0.001 A 
HETATM   31  C   UNL     1     -40.937  53.228 -51.374  1.00  0.00     0.009 A 
ENDBRANCH  25  26
ENDBRANCH   3  25
TORSDOF 8
ENDMDL
MODEL 2
REMARK VINA RESULT:      -8.0     15.634     19.202
REMARK  8 active torsions:
REMARK  status: ('A' for Active; 'I' for Inactive)
REMARK    1  A    between atoms: O_2  and  C_3 
REMARK    2  A    between atoms: C_6  and  C_7 
REMARK    3  A    between atoms: C_7  and  O_8 
REMARK    4  A    between atoms: C_7  and  C_9 
REMARK    5  A    between atoms: C_9  and  N_10 
REMARK    6  A    between atoms: C_11  and  N_12 
REMARK    7  A    between atoms: N_13  and  C_14 
REMARK    8  A    between atoms: C_14  and  C_15 
ROOT
HETATM    1  N   UNL     1     -36.117  40.389 -53.361  1.00  0.00    -0.178 N 
HETATM    2  C   UNL     1     -36.948  41.262 -53.917  1.00  0.00     0.681 C 
HETATM    3  N   UNL     1     -36.485  41.619 -55.106  1.00  0.00    -0.177 N 
HETATM    4  C   UNL     1     -35.179  41.150 -55.233  1.00  0.00     0.079 A 
HETATM    5  C   UNL     1     -34.942  40.355 -54.106  1.00  0.00     0.079 A 
HETATM    6  C   UNL     1     -34.219  41.343 -56.222  1.00  0.00     0.032 A 
HETATM    7  C   UNL     1     -32.992  40.697 -56.023  1.00  0.00     0.002 A 
HETATM    8  C   UNL     1     -32.753  39.894 -54.890  1.00  0.00     0.002 A 
HETATM    9  C   UNL     1     -33.730  39.700 -53.904  1.00  0.00     0.032 A 
ENDROOT
BRANCH   1  10
HETATM   10  C   UNL     1     -36.429  39.552 -52.190  1.00  0.00     0.184 C 
BRANCH  10  11
HETATM   11  C   UNL     1     -36.198  40.276 -50.845  1.00  0.00     0.170 C 
BRANCH  11  12
HETATM   12  C   UNL     1     -34.868  39.878 -50.245  1.00  0.00    -0.028 A 
HETATM   13  C   UNL     1     -33.696  40.607 -50.502  1.00  0.00     0.012 A 
HETATM   14  C   UNL     1     -32.484  40.257 -49.895  1.00  0.00     0.037 A 
HETATM   15  C   UNL     1     -32.428  39.184 -49.009  1.00  0.00     0.068 A 
HETATM   16  C   UNL     1     -33.589  38.456 -48.748  1.00  0.00     0.037 A 
HETATM   17  C   UNL     1     -34.800  38.795 -49.359  1.00  0.00     0.012 A 
BRANCH  15  18
HETATM   18  O   UNL     1     -31.321  38.750 -48.337  1.00  0.00    -0.356 OA
HETATM   19  C   UNL     1     -30.965  39.450 -47.150  1.00  0.00     0.210 C 
ENDBRANCH  15  18
ENDBRANCH  11  12
BRANCH  11  20
HETATM   20  O   UNL     1     -37.269  39.962 -49.931  1.00  0.00    -0.389 OA
HETATM   21  H   UNL     1     -38.036  39.742 -50.500  1.00  0.00     0.210 HD
ENDBRANCH  11  20
ENDBRANCH  10  11
ENDBRANCH   1  10
BRANCH   2  22
HETATM   22  N   UNL     1     -38.067  41.713 -53.358  1.00  0.00    -0.234 N 
HETATM   23  H   UNL     1     -38.828  41.047 -53.210  1.00  0.00     0.174 HD
HETATM   24  H   UNL     1     -38.084  42.572 -52.830  1.00  0.00     0.174 HD
ENDBRANCH   2  22
BRANCH   3  25
HETATM   25  C   UNL     1     -37.240  42.315 -56.136  1.00  0.00     0.186 C 
BRANCH  25  26
HETATM   26  C   UNL     1     -37.451  41.478 -57.374  1.00  0.00    -0.039 A 
HETATM   27  C   UNL     1     -38.034  40.201 -57.365  1.00  0.00     0.009 A 
HETATM   28  C   UNL     1     -38.207  39.489 -58.554  1.00  0.00     0.001 A 
HETATM   29  C   UNL     1     -37.811  40.044 -59.768  1.00  0.00     0.000 A 
HETATM   30  C   UNL     1     -37.241  41.312 -59.798  1.00  0.00     0.001 A 
HETATM   31  C   UNL     1     -37.061  42.024 -58.610  1.00  0.00     0.009 A 
ENDBRANCH  25  26
ENDBRANCH   3  25
TORSDOF 8
ENDMDL
MODEL 3
REMARK VINA RESULT:      -7.9      2.736      7.478
REMARK  8 active torsions:
REMARK  status: ('A' for Active; 'I' for Inactive)
REMARK    1  A    between atoms: O_2  and  C_3 
REMARK    2  A    between atoms: C_6  and  C_7 
REMARK    3  A    between atoms: C_7  and  O_8 
REMARK    4  A    between atoms: C_7  and  C_9 
REMARK    5  A    between atoms: C_9  and  N_10 
REMARK    6  A    between atoms: C_11  and  N_12 
REMARK    7  A    between atoms: N_13  and  C_14 
REMARK    8  A    between atoms: C_14  and  C_15 
ROOT
HETATM    1  N   UNL     1     -42.787  56.507 -54.779  1.00  0.00    -0.178 N 
HETATM    2  C   UNL     1     -42.987  55.946 -55.965  1.00  0.00     0.681 C 
HETATM    3  N   UNL     1     -42.702  56.818 -56.921  1.00  0.00    -0.177 N 
HETATM    4  C   UNL     1     -42.542  58.076 -56.342  1.00  0.00     0.079 A 
HETATM    5  C   UNL     1     -42.596  57.874 -54.959  1.00  0.00     0.079 A 
HETATM    6  C   UNL     1     -42.348  59.335 -56.903  1.00  0.00     0.032 A 
HETATM    7  C   UNL     1     -42.213  60.396 -55.999  1.00  0.00     0.002 A 
HETATM    8  C   UNL     1     -42.264  60.194 -54.606  1.00  0.00     0.002 A 
HETATM    9  C   UNL     1     -42.453  58.921 -54.052  1.00  0.00     0.032 A 
ENDROOT
BRANCH   1  10
HETATM   10  C   UNL     1     -42.712  55.779 -53.501  1.00  0.00     0.184 C 
BRANCH  10  11
HETATM   11  C   UNL     1     -41.283  55.720 -52.918  1.00  0.00     0.170 C 
BRANCH  11  12
HETATM   12  C   UNL     1     -40.750  54.305 -52.949  1.00  0.00    -0.028 A 
HETATM   13  C   UNL     1     -40.377  53.632 -51.774  1.00  0.00     0.012 A 
HETATM   14  C   UNL     1     -39.938  52.304 -51.815  1.00  0.00     0.037 A 
HETATM   15  C   UNL     1     -39.880  51.622 -53.028  1.00  0.00     0.068 A 
HETATM   16  C   UNL     1     -40.250  52.284 -54.199  1.00  0.00     0.037 A 
HETATM   17  C   UNL     1     -40.681  53.613 -54.165  1.00  0.00     0.012 A 
BRANCH  15  18
HETATM   18  O   UNL     1     -39.490  50.325 -53.206  1.00  0.00    -0.356 OA
HETATM   19  C   UNL     1     -39.610  49.784 -54.516  1.00  0.00     0.210 C 
ENDBRANCH  15  18
ENDBRANCH  11  12
BRANCH  11  20
HETATM   20  O   UNL     1     -41.287  56.219 -51.564  1.00  0.00    -0.389 OA
HETATM   21  H   UNL     1     -40.379  56.063 -51.229  1.00  0.00     0.210 HD
ENDBRANCH  11  20
ENDBRANCH  10  11
ENDBRANCH   1  10
BRANCH   2  22
HETATM   22  N   UNL     1     -43.417  54.703 -56.159  1.00  0.00    -0.234 N 
HETATM   23  H   UNL     1     -42.738  54.008 -56.475  1.00  0.00     0.174 HD
HETATM   24  H   UNL     1     -44.273  54.369 -55.743  1.00  0.00     0.174 HD
ENDBRANCH   2  22
BRANCH   3  25
HETATM   25  C   UNL     1     -42.511  56.502 -58.328  1.00  0.00     0.186 C 
BRANCH  25  26
HETATM   26  C   UNL     1     -43.809  56.245 -59.052  1.00  0.00    -0.039 A 
HETATM   27  C   UNL     1     -44.076  55.081 -59.789  1.00  0.00     0.009 A 
HETATM   28  C   UNL     1     -45.309  54.907 -60.425  1.00  0.00     0.001 A 
HETATM   29  C   UNL     1     -46.294  55.886 -60.325  1.00  0.00     0.000 A 
HETATM   30  C   UNL     1     -46.051  57.041 -59.590  1.00  0.00     0.001 A 
HETATM   31  C   UNL     1     -44.818  57.220 -58.959  1.00  0.00     0.009 A 
ENDBRANCH  25  26
ENDBRANCH   3  25
TORSDOF 8
ENDMDL
MODEL 4
REMARK VINA RESULT:      -7.8      2.580      3.589
REMARK  8 active torsions:
REMARK  status: ('A' for Active; 'I' for Inactive)
REMARK    1  A    between atoms: O_2  and  C_3 
REMARK    2  A    between atoms: C_6  and  C_7 
REMARK    3  A    between atoms: C_7  and  O_8 
REMARK    4  A    between atoms: C_7  and  C_9 
REMARK    5  A    between atoms: C_9  and  N_10 
REMARK    6  A    between atoms: C_11  and  N_12 
REMARK    7  A    between atoms: N_13  and  C_14 
REMARK    8  A    between atoms: C_14  and  C_15 
ROOT
HETATM    1  N   UNL     1     -42.782  56.945 -55.577  1.00  0.00    -0.178 N 
HETATM    2  C   UNL     1     -42.906  55.662 -55.259  1.00  0.00     0.681 C 
HETATM    3  N   UNL     1     -42.559  55.483 -53.993  1.00  0.00    -0.177 N 
HETATM    4  C   UNL     1     -41.953  56.649 -53.529  1.00  0.00     0.079 A 
HETATM    5  C   UNL     1     -42.097  57.593 -54.552  1.00  0.00     0.079 A 
HETATM    6  C   UNL     1     -41.318  56.947 -52.327  1.00  0.00     0.032 A 
HETATM    7  C   UNL     1     -40.826  58.252 -52.198  1.00  0.00     0.002 A 
HETATM    8  C   UNL     1     -40.974  59.204 -53.226  1.00  0.00     0.002 A 
HETATM    9  C   UNL     1     -41.620  58.895 -54.430  1.00  0.00     0.032 A 
ENDROOT
BRANCH   1  10
HETATM   10  C   UNL     1     -43.343  57.575 -56.783  1.00  0.00     0.184 C 
BRANCH  10  11
HETATM   11  C   UNL     1     -42.482  57.346 -58.045  1.00  0.00     0.170 C 
BRANCH  11  12
HETATM   12  C   UNL     1     -42.217  58.655 -58.756  1.00  0.00    -0.028 A 
HETATM   13  C   UNL     1     -41.752  59.787 -58.067  1.00  0.00     0.012 A 
HETATM   14  C   UNL     1     -41.459  60.973 -58.749  1.00  0.00     0.037 A 
HETATM   15  C   UNL     1     -41.611  61.043 -60.132  1.00  0.00     0.068 A 
HETATM   16  C   UNL     1     -42.072  59.922 -60.823  1.00  0.00     0.037 A 
HETATM   17  C   UNL     1     -42.374  58.737 -60.146  1.00  0.00     0.012 A 
BRANCH  15  18
HETATM   18  O   UNL     1     -41.344  62.127 -60.918  1.00  0.00    -0.356 OA
HETATM   19  C   UNL     1     -40.204  62.909 -60.582  1.00  0.00     0.210 C 
ENDBRANCH  15  18
ENDBRANCH  11  12
BRANCH  11  20
HETATM   20  O   UNL     1     -43.152  56.427 -58.932  1.00  0.00    -0.389 OA
HETATM   21  H   UNL     1     -43.273  56.920 -59.770  1.00  0.00     0.210 HD
ENDBRANCH  11  20
ENDBRANCH  10  11
ENDBRANCH   1  10
BRANCH   2  22
HETATM   22  N   UNL     1     -43.308  54.705 -56.091  1.00  0.00    -0.234 N 
HETATM   23  H   UNL     1     -44.309  54.509 -56.144  1.00  0.00     0.174 HD
HETATM   24  H   UNL     1     -42.725  54.387 -56.850  1.00  0.00     0.174 HD
ENDBRANCH   2  22
BRANCH   3  25
HETATM   25  C   UNL     1     -42.836  54.297 -53.197  1.00  0.00     0.186 C 
BRANCH  25  26
HETATM   26  C   UNL     1     -41.629  53.409 -53.030  1.00  0.00    -0.039 A 
HETATM   27  C   UNL     1     -40.906  53.287 -51.833  1.00  0.00     0.009 A 
HETATM   28  C   UNL     1     -39.803  52.434 -51.750  1.00  0.00     0.001 A 
HETATM   29  C   UNL     1     -39.411  51.684 -52.856  1.00  0.00     0.000 A 
HETATM   30  C   UNL     1     -40.122  51.784 -54.048  1.00  0.00     0.001 A 
HETATM   31  C   UNL     1     -41.221  52.640 -54.135  1.00  0.00     0.009 A 
ENDBRANCH  25  26
ENDBRANCH   3  25
TORSDOF 8
ENDMDL
MODEL 5
REMARK VINA RESULT:      -7.7      3.973      6.797
REMARK  8 active torsions:
REMARK  status: ('A' for Active; 'I' for Inactive)
REMARK    1  A    between atoms: O_2  and  C_3 
REMARK    2  A    between atoms: C_6  and  C_7 
REMARK    3  A    between atoms: C_7  and  O_8 
REMARK    4  A    between atoms: C_7  and  C_9 
REMARK    5  A    between atoms: C_9  and  N_10 
REMARK    6  A    between atoms: C_11  and  N_12 
REMARK    7  A    between atoms: N_13  and  C_14 
REMARK    8  A    between atoms: C_14  and  C_15 
ROOT
HETATM    1  N   UNL     1     -43.062  54.910 -52.084  1.00  0.00    -0.178 N 
HETATM    2  C   UNL     1     -42.057  54.157 -51.654  1.00  0.00     0.681 C 
HETATM    3  N   UNL     1     -41.182  53.983 -52.634  1.00  0.00    -0.177 N 
HETATM    4  C   UNL     1     -41.751  54.435 -53.823  1.00  0.00     0.079 A 
HETATM    5  C   UNL     1     -42.965  55.034 -53.468  1.00  0.00     0.079 A 
HETATM    6  C   UNL     1     -41.308  54.378 -55.141  1.00  0.00     0.032 A 
HETATM    7  C   UNL     1     -42.152  54.955 -56.099  1.00  0.00     0.002 A 
HETATM    8  C   UNL     1     -43.372  55.561 -55.742  1.00  0.00     0.002 A 
HETATM    9  C   UNL     1     -43.806  55.618 -54.411  1.00  0.00     0.032 A 
ENDROOT
BRANCH   1  10
HETATM   10  C   UNL     1     -44.064  55.557 -51.221  1.00  0.00     0.184 C 
BRANCH  10  11
HETATM   11  C   UNL     1     -44.174  57.080 -51.454  1.00  0.00     0.170 C 
BRANCH  11  12
HETATM   12  C   UNL     1     -42.805  57.723 -51.443  1.00  0.00    -0.028 A 
HETATM   13  C   UNL     1     -41.873  57.454 -50.428  1.00  0.00     0.012 A 
HETATM   14  C   UNL     1     -40.591  58.015 -50.463  1.00  0.00     0.037 A 
HETATM   15  C   UNL     1     -40.215  58.841 -51.519  1.00  0.00     0.068 A 
HETATM   16  C   UNL     1     -41.136  59.111 -52.532  1.00  0.00     0.037 A 
HETATM   17  C   UNL     1     -42.420  58.561 -52.498  1.00  0.00     0.012 A 
BRANCH  15  18
HETATM   18  O   UNL     1     -38.996  59.434 -51.684  1.00  0.00    -0.356 OA
HETATM   19  C   UNL     1     -38.162  59.537 -50.536  1.00  0.00     0.210 C 
ENDBRANCH  15  18
ENDBRANCH  11  12
BRANCH  11  20
HETATM   20  O   UNL     1     -45.008  57.670 -50.436  1.00  0.00    -0.389 OA
HETATM   21  H   UNL     1     -44.754  57.221 -49.603  1.00  0.00     0.210 HD
ENDBRANCH  11  20
ENDBRANCH  10  11
ENDBRANCH   1  10
BRANCH   2  22
HETATM   22  N   UNL     1     -41.953  53.650 -50.429  1.00  0.00    -0.234 N 
HETATM   23  H   UNL     1     -42.100  54.280 -49.638  1.00  0.00     0.174 HD
HETATM   24  H   UNL     1     -42.027  52.659 -50.260  1.00  0.00     0.174 HD
ENDBRANCH   2  22
BRANCH   3  25
HETATM   25  C   UNL     1     -39.826  53.479 -52.481  1.00  0.00     0.186 C 
BRANCH  25  26
HETATM   26  C   UNL     1     -39.749  51.974 -52.557  1.00  0.00    -0.039 A 
HETATM   27  C   UNL     1     -39.652  51.138 -51.435  1.00  0.00     0.009 A 
HETATM   28  C   UNL     1     -39.596  49.750 -51.583  1.00  0.00     0.001 A 
HETATM   29  C   UNL     1     -39.647  49.177 -52.851  1.00  0.00     0.000 A 
HETATM   30  C   UNL     1     -39.753  49.990 -53.975  1.00  0.00     0.001 A 
HETATM   31  C   UNL     1     -39.803  51.377 -53.830  1.00  0.00     0.009 A 
ENDBRANCH  25  26
ENDBRANCH   3  25
TORSDOF 8
ENDMDL
MODEL 6
REMARK VINA RESULT:      -7.5      3.348      8.379
REMARK  8 active torsions:
REMARK  status: ('A' for Active; 'I' for Inactive)
REMARK    1  A    between atoms: O_2  and  C_3 
REMARK    2  A    between atoms: C_6  and  C_7 
REMARK    3  A    between atoms: C_7  and  O_8 
REMARK    4  A    between atoms: C_7  and  C_9 
REMARK    5  A    between atoms: C_9  and  N_10 
REMARK    6  A    between atoms: C_11  and  N_12 
REMARK    7  A    between atoms: N_13  and  C_14 
REMARK    8  A    between atoms: C_14  and  C_15 
ROOT
HETATM    1  N   UNL     1     -42.664  57.472 -56.273  1.00  0.00    -0.178 N 
HETATM    2  C   UNL     1     -42.564  58.791 -56.374  1.00  0.00     0.681 C 
HETATM    3  N   UNL     1     -43.011  59.180 -57.560  1.00  0.00    -0.177 N 
HETATM    4  C   UNL     1     -43.187  58.052 -58.360  1.00  0.00     0.079 A 
HETATM    5  C   UNL     1     -42.963  56.949 -57.528  1.00  0.00     0.079 A 
HETATM    6  C   UNL     1     -43.525  57.914 -59.703  1.00  0.00     0.032 A 
HETATM    7  C   UNL     1     -43.626  56.600 -60.179  1.00  0.00     0.002 A 
HETATM    8  C   UNL     1     -43.404  55.489 -59.342  1.00  0.00     0.002 A 
HETATM    9  C   UNL     1     -43.071  55.640 -57.989  1.00  0.00     0.032 A 
ENDROOT
BRANCH   1  10
HETATM   10  C   UNL     1     -42.546  56.710 -55.019  1.00  0.00     0.184 C 
BRANCH  10  11
HETATM   11  C   UNL     1     -41.093  56.601 -54.507  1.00  0.00     0.170 C 
BRANCH  11  12
HETATM   12  C   UNL     1     -40.777  55.181 -54.090  1.00  0.00    -0.028 A 
HETATM   13  C   UNL     1     -40.977  54.739 -52.773  1.00  0.00     0.012 A 
HETATM   14  C   UNL     1     -40.732  53.407 -52.417  1.00  0.00     0.037 A 
HETATM   15  C   UNL     1     -40.300  52.494 -53.375  1.00  0.00     0.068 A 
HETATM   16  C   UNL     1     -40.100  52.927 -54.686  1.00  0.00     0.037 A 
HETATM   17  C   UNL     1     -40.335  54.257 -55.045  1.00  0.00     0.012 A 
BRANCH  15  18
HETATM   18  O   UNL     1     -40.044  51.168 -53.167  1.00  0.00    -0.356 OA
HETATM   19  C   UNL     1     -40.032  50.321 -54.310  1.00  0.00     0.210 C 
ENDBRANCH  15  18
ENDBRANCH  11  12
BRANCH  11  20
HETATM   20  O   UNL     1     -40.897  57.499 -53.396  1.00  0.00    -0.389 OA
HETATM   21  H   UNL     1     -40.615  56.929 -52.650  1.00  0.00     0.210 HD
ENDBRANCH  11  20
ENDBRANCH  10  11
ENDBRANCH   1  10
BRANCH   2  22
HETATM   22  N   UNL     1     -42.077  59.595 -55.433  1.00  0.00    -0.234 N 
HETATM   23  H   UNL     1     -41.373  60.281 -55.711  1.00  0.00     0.174 HD
HETATM   24  H   UNL     1     -42.567  59.748 -54.565  1.00  0.00     0.174 HD
ENDBRANCH   2  22
BRANCH   3  25
HETATM   25  C   UNL     1     -43.340  60.546 -57.937  1.00  0.00     0.186 C 
BRANCH  25  26
HETATM   26  C   UNL     1     -42.260  61.201 -58.762  1.00  0.00    -0.039 A 
HETATM   27  C   UNL     1     -42.279  61.267 -60.163  1.00  0.00     0.009 A 
HETATM   28  C   UNL     1     -41.248  61.902 -60.861  1.00  0.00     0.001 A 
HETATM   29  C   UNL     1     -40.190  62.487 -60.170  1.00  0.00     0.000 A 
HETATM   30  C   UNL     1     -40.161  62.441 -58.780  1.00  0.00     0.001 A 
HETATM   31  C   UNL     1     -41.186  61.802 -58.081  1.00  0.00     0.009 A 
ENDBRANCH  25  26
ENDBRANCH   3  25
TORSDOF 8
ENDMDL
MODEL 7
REMARK VINA RESULT:      -7.5      3.422      7.172
REMARK  8 active torsions:
REMARK  status: ('A' for Active; 'I' for Inactive)
REMARK    1  A    between atoms: O_2  and  C_3 
REMARK    2  A    between atoms: C_6  and  C_7 
REMARK    3  A    between atoms: C_7  and  O_8 
REMARK    4  A    between atoms: C_7  and  C_9 
REMARK    5  A    between atoms: C_9  and  N_10 
REMARK    6  A    between atoms: C_11  and  N_12 
REMARK    7  A    between atoms: N_13  and  C_14 
REMARK    8  A    between atoms: C_14  and  C_15 
ROOT
HETATM    1  N   UNL     1     -43.959  56.977 -52.828  1.00  0.00    -0.178 N 
HETATM    2  C   UNL     1     -44.521  56.746 -54.008  1.00  0.00     0.681 C 
HETATM    3  N   UNL     1     -44.907  57.893 -54.547  1.00  0.00    -0.177 N 
HETATM    4  C   UNL     1     -44.815  58.892 -53.580  1.00  0.00     0.079 A 
HETATM    5  C   UNL     1     -44.202  58.300 -52.470  1.00  0.00     0.079 A 
HETATM    6  C   UNL     1     -45.198  60.230 -53.592  1.00  0.00     0.032 A 
HETATM    7  C   UNL     1     -44.937  60.955 -52.422  1.00  0.00     0.002 A 
HETATM    8  C   UNL     1     -44.316  60.361 -51.305  1.00  0.00     0.002 A 
HETATM    9  C   UNL     1     -43.929  59.014 -51.306  1.00  0.00     0.032 A 
ENDROOT
BRANCH   1  10
HETATM   10  C   UNL     1     -43.154  56.005 -52.070  1.00  0.00     0.184 C 
BRANCH  10  11
HETATM   11  C   UNL     1     -41.643  56.095 -52.376  1.00  0.00     0.170 C 
BRANCH  11  12
HETATM   12  C   UNL     1     -41.094  54.740 -52.762  1.00  0.00    -0.028 A 
HETATM   13  C   UNL     1     -40.895  54.381 -54.105  1.00  0.00     0.012 A 
HETATM   14  C   UNL     1     -40.334  53.144 -54.443  1.00  0.00     0.037 A 
HETATM   15  C   UNL     1     -39.949  52.253 -53.445  1.00  0.00     0.068 A 
HETATM   16  C   UNL     1     -40.143  52.603 -52.109  1.00  0.00     0.037 A 
HETATM   17  C   UNL     1     -40.711  53.833 -51.766  1.00  0.00     0.012 A 
BRANCH  15  18
HETATM   18  O   UNL     1     -39.376  51.027 -53.636  1.00  0.00    -0.356 OA
HETATM   19  C   UNL     1     -40.155  50.043 -54.306  1.00  0.00     0.210 C 
ENDBRANCH  15  18
ENDBRANCH  11  12
BRANCH  11  20
HETATM   20  O   UNL     1     -40.941  56.604 -51.223  1.00  0.00    -0.389 OA
HETATM   21  H   UNL     1     -40.822  57.562 -51.397  1.00  0.00     0.210 HD
ENDBRANCH  11  20
ENDBRANCH  10  11
ENDBRANCH   1  10
BRANCH   2  22
HETATM   22  N   UNL     1     -44.680  55.545 -54.556  1.00  0.00    -0.234 N 
HETATM   23  H   UNL     1     -43.903  55.163 -55.099  1.00  0.00     0.174 HD
HETATM   24  H   UNL     1     -45.384  54.903 -54.225  1.00  0.00     0.174 HD
ENDBRANCH   2  22
BRANCH   3  25
HETATM   25  C   UNL     1     -45.287  58.092 -55.937  1.00  0.00     0.186 C 
BRANCH  25  26
HETATM   26  C   UNL     1     -44.099  58.254 -56.851  1.00  0.00    -0.039 A 
HETATM   27  C   UNL     1     -43.285  59.397 -56.881  1.00  0.00     0.009 A 
HETATM   28  C   UNL     1     -42.192  59.471 -57.748  1.00  0.00     0.001 A 
HETATM   29  C   UNL     1     -41.890  58.404 -58.590  1.00  0.00     0.000 A 
HETATM   30  C   UNL     1     -42.679  57.258 -58.567  1.00  0.00     0.001 A 
HETATM   31  C   UNL     1     -43.776  57.184 -57.705  1.00  0.00     0.009 A 
ENDBRANCH  25  26
ENDBRANCH   3  25
TORSDOF 8
ENDMDL
MODEL 8
REMARK VINA RESULT:      -7.4      2.797      5.549
REMARK  8 active torsions:
REMARK  status: ('A' for Active; 'I' for Inactive)
REMARK    1  A    between atoms: O_2  and  C_3 
REMARK    2  A    between atoms: C_6  and  C_7 
REMARK    3  A    between atoms: C_7  and  O_8 
REMARK    4  A    between atoms: C_7  and  C_9 
REMARK    5  A    between atoms: C_9  and  N_10 
REMARK    6  A    between atoms: C_11  and  N_12 
REMARK    7  A    between atoms: N_13  and  C_14 
REMARK    8  A    between atoms: C_14  and  C_15 
ROOT
HETATM    1  N   UNL     1     -43.011  55.501 -55.121  1.00  0.00    -0.178 N 
HETATM    2  C   UNL     1     -43.803  55.866 -54.120  1.00  0.00     0.681 C 
HETATM    3  N   UNL     1     -43.253  55.510 -52.968  1.00  0.00    -0.177 N 
HETATM    4  C   UNL     1     -42.176  54.666 -53.231  1.00  0.00     0.079 A 
HETATM    5  C   UNL     1     -42.020  54.661 -54.622  1.00  0.00     0.079 A 
HETATM    6  C   UNL     1     -41.344  53.937 -52.387  1.00  0.00     0.032 A 
HETATM    7  C   UNL     1     -40.336  53.190 -53.011  1.00  0.00     0.002 A 
HETATM    8  C   UNL     1     -40.176  53.187 -54.411  1.00  0.00     0.002 A 
HETATM    9  C   UNL     1     -41.016  53.930 -55.251  1.00  0.00     0.032 A 
ENDROOT
BRANCH   1  10
HETATM   10  C   UNL     1     -43.133  55.974 -56.510  1.00  0.00     0.184 C 
BRANCH  10  11
HETATM   11  C   UNL     1     -42.202  57.163 -56.832  1.00  0.00     0.170 C 
BRANCH  11  12
HETATM   12  C   UNL     1     -42.721  58.435 -56.198  1.00  0.00    -0.028 A 
HETATM   13  C   UNL     1     -43.929  59.022 -56.607  1.00  0.00     0.012 A 
HETATM   14  C   UNL     1     -44.422  60.168 -55.972  1.00  0.00     0.037 A 
HETATM   15  C   UNL     1     -43.724  60.737 -54.910  1.00  0.00     0.068 A 
HETATM   16  C   UNL     1     -42.523  60.158 -54.499  1.00  0.00     0.037 A 
HETATM   17  C   UNL     1     -42.022  59.019 -55.134  1.00  0.00     0.012 A 
BRANCH  15  18
HETATM   18  O   UNL     1     -44.101  61.838 -54.195  1.00  0.00    -0.356 OA
HETATM   19  C   UNL     1     -43.074  62.565 -53.531  1.00  0.00     0.210 C 
ENDBRANCH  15  18
ENDBRANCH  11  12
BRANCH  11  20
HETATM   20  O   UNL     1     -42.096  57.328 -58.261  1.00  0.00    -0.389 OA
HETATM   21  H   UNL     1     -43.020  57.340 -58.588  1.00  0.00     0.210 HD
ENDBRANCH  11  20
ENDBRANCH  10  11
ENDBRANCH   1  10
BRANCH   2  22
HETATM   22  N   UNL     1     -44.974  56.482 -54.258  1.00  0.00    -0.234 N 
HETATM   23  H   UNL     1     -45.187  57.247 -53.614  1.00  0.00     0.174 HD
HETATM   24  H   UNL     1     -45.502  56.426 -55.114  1.00  0.00     0.174 HD
ENDBRANCH   2  22
BRANCH   3  25
HETATM   25  C   UNL     1     -43.657  55.985 -51.653  1.00  0.00     0.186 C 
BRANCH  25  26
HETATM   26  C   UNL     1     -43.188  57.391 -51.370  1.00  0.00    -0.039 A 
HETATM   27  C   UNL     1     -44.036  58.509 -51.352  1.00  0.00     0.009 A 
HETATM   28  C   UNL     1     -43.532  59.781 -51.069  1.00  0.00     0.001 A 
HETATM   29  C   UNL     1     -42.179  59.954 -50.791  1.00  0.00     0.000 A 
HETATM   30  C   UNL     1     -41.325  58.855 -50.794  1.00  0.00     0.001 A 
HETATM   31  C   UNL     1     -41.825  57.584 -51.082  1.00  0.00     0.009 A 
ENDBRANCH  25  26
ENDBRANCH   3  25
TORSDOF 8
ENDMDL
MODEL 9
REMARK VINA RESULT:      -7.4      1.535      2.107
REMARK  8 active torsions:
REMARK  status: ('A' for Active; 'I' for Inactive)
REMARK    1  A    between atoms: O_2  and  C_3 
REMARK    2  A    between atoms: C_6  and  C_7 
REMARK    3  A    between atoms: C_7  and  O_8 
REMARK    4  A    between atoms: C_7  and  C_9 
REMARK    5  A    between atoms: C_9  and  N_10 
REMARK    6  A    between atoms: C_11  and  N_12 
REMARK    7  A    between atoms: N_13  and  C_14 
REMARK    8  A    between atoms: C_14  and  C_15 
ROOT
HETATM    1  N   UNL     1     -43.403  57.690 -53.823  1.00  0.00    -0.178 N 
HETATM    2  C   UNL     1     -43.483  56.367 -53.886  1.00  0.00     0.681 C 
HETATM    3  N   UNL     1     -42.953  55.839 -52.792  1.00  0.00    -0.177 N 
HETATM    4  C   UNL     1     -42.282  56.841 -52.094  1.00  0.00     0.079 A 
HETATM    5  C   UNL     1     -42.573  58.037 -52.760  1.00  0.00     0.079 A 
HETATM    6  C   UNL     1     -41.477  56.799 -50.960  1.00  0.00     0.032 A 
HETATM    7  C   UNL     1     -40.967  58.028 -50.522  1.00  0.00     0.002 A 
HETATM    8  C   UNL     1     -41.261  59.233 -51.189  1.00  0.00     0.002 A 
HETATM    9  C   UNL     1     -42.080  59.265 -52.327  1.00  0.00     0.032 A 
ENDROOT
BRANCH   1  10
HETATM   10  C   UNL     1     -44.133  58.624 -54.696  1.00  0.00     0.184 C 
BRANCH  10  11
HETATM   11  C   UNL     1     -43.302  59.102 -55.907  1.00  0.00     0.170 C 
BRANCH  11  12
HETATM   12  C   UNL     1     -43.652  58.306 -57.145  1.00  0.00    -0.028 A 
HETATM   13  C   UNL     1     -42.713  57.478 -57.779  1.00  0.00     0.012 A 
HETATM   14  C   UNL     1     -43.070  56.706 -58.890  1.00  0.00     0.037 A 
HETATM   15  C   UNL     1     -44.375  56.738 -59.376  1.00  0.00     0.068 A 
HETATM   16  C   UNL     1     -45.314  57.559 -58.750  1.00  0.00     0.037 A 
HETATM   17  C   UNL     1     -44.961  58.338 -57.645  1.00  0.00     0.012 A 
BRANCH  15  18
HETATM   18  O   UNL     1     -44.858  56.024 -60.436  1.00  0.00    -0.356 OA
HETATM   19  C   UNL     1     -44.945  54.612 -60.283  1.00  0.00     0.210 C 
ENDBRANCH  15  18
ENDBRANCH  11  12
BRANCH  11  20
HETATM   20  O   UNL     1     -41.895  58.972 -55.615  1.00  0.00    -0.389 OA
HETATM   21  H   UNL     1     -41.436  59.434 -56.348  1.00  0.00     0.210 HD
ENDBRANCH  11  20
ENDBRANCH  10  11
ENDBRANCH   1  10
BRANCH   2  22
HETATM   22  N   UNL     1     -44.005  55.681 -54.898  1.00  0.00    -0.234 N 
HETATM   23  H   UNL     1     -44.671  56.161 -55.505  1.00  0.00     0.174 HD
HETATM   24  H   UNL     1     -43.567  54.843 -55.250  1.00  0.00     0.174 HD
ENDBRANCH   2  22
BRANCH   3  25
HETATM   25  C   UNL     1     -43.113  54.461 -52.352  1.00  0.00     0.186 C 
BRANCH  25  26
HETATM   26  C   UNL     1     -41.886  53.621 -52.602  1.00  0.00    -0.039 A 
HETATM   27  C   UNL     1     -40.984  53.235 -51.599  1.00  0.00     0.009 A 
HETATM   28  C   UNL     1     -39.874  52.444 -51.905  1.00  0.00     0.001 A 
HETATM   29  C   UNL     1     -39.653  52.020 -53.212  1.00  0.00     0.000 A 
HETATM   30  C   UNL     1     -40.543  52.383 -54.218  1.00  0.00     0.001 A 
HETATM   31  C   UNL     1     -41.650  53.178 -53.916  1.00  0.00     0.009 A 
ENDBRANCH  25  26
ENDBRANCH   3  25
TORSDOF 8
ENDMDL
MODEL 10
REMARK VINA RESULT:      -7.2      2.485      8.141
REMARK  8 active torsions:
REMARK  status: ('A' for Active; 'I' for Inactive)
REMARK    1  A    between atoms: O_2  and  C_3 
REMARK    2  A    between atoms: C_6  and  C_7 
REMARK    3  A    between atoms: C_7  and  O_8 
REMARK    4  A    between atoms: C_7  and  C_9 
REMARK    5  A    between atoms: C_9  and  N_10 
REMARK    6  A    between atoms: C_11  and  N_12 
REMARK    7  A    between atoms: N_13  and  C_14 
REMARK    8  A    between atoms: C_14  and  C_15 
ROOT
HETATM    1  N   UNL     1     -42.807  56.690 -55.362  1.00  0.00    -0.178 N 
HETATM    2  C   UNL     1     -42.904  56.596 -56.683  1.00  0.00     0.681 C 
HETATM    3  N   UNL     1     -43.542  57.657 -57.157  1.00  0.00    -0.177 N 
HETATM    4  C   UNL     1     -44.098  58.356 -56.087  1.00  0.00     0.079 A 
HETATM    5  C   UNL     1     -43.623  57.732 -54.929  1.00  0.00     0.079 A 
HETATM    6  C   UNL     1     -44.945  59.459 -56.043  1.00  0.00     0.032 A 
HETATM    7  C   UNL     1     -45.300  59.911 -54.766  1.00  0.00     0.002 A 
HETATM    8  C   UNL     1     -44.820  59.286 -53.598  1.00  0.00     0.002 A 
HETATM    9  C   UNL     1     -43.962  58.179 -53.654  1.00  0.00     0.032 A 
ENDROOT
BRANCH   1  10
HETATM   10  C   UNL     1     -41.924  55.868 -54.519  1.00  0.00     0.184 C 
BRANCH  10  11
HETATM   11  C   UNL     1     -42.578  54.546 -54.061  1.00  0.00     0.170 C 
BRANCH  11  12
HETATM   12  C   UNL     1     -41.982  54.080 -52.751  1.00  0.00    -0.028 A 
HETATM   13  C   UNL     1     -40.750  53.408 -52.700  1.00  0.00     0.012 A 
HETATM   14  C   UNL     1     -40.186  53.033 -51.475  1.00  0.00     0.037 A 
HETATM   15  C   UNL     1     -40.836  53.337 -50.282  1.00  0.00     0.068 A 
HETATM   16  C   UNL     1     -42.060  54.005 -50.325  1.00  0.00     0.037 A 
HETATM   17  C   UNL     1     -42.632  54.374 -51.546  1.00  0.00     0.012 A 
BRANCH  15  18
HETATM   18  O   UNL     1     -40.390  53.046 -49.024  1.00  0.00    -0.356 OA
HETATM   19  C   UNL     1     -40.384  54.107 -48.075  1.00  0.00     0.210 C 
ENDBRANCH  15  18
ENDBRANCH  11  12
BRANCH  11  20
HETATM   20  O   UNL     1     -42.400  53.535 -55.075  1.00  0.00    -0.389 OA
HETATM   21  H   UNL     1     -43.189  52.958 -55.004  1.00  0.00     0.210 HD
ENDBRANCH  11  20
ENDBRANCH  10  11
ENDBRANCH   1  10
BRANCH   2  22
HETATM   22  N   UNL     1     -42.441  55.585 -57.412  1.00  0.00    -0.234 N 
HETATM   23  H   UNL     1     -42.791  55.488 -58.367  1.00  0.00     0.174 HD
HETATM   24  H   UNL     1     -41.582  55.113 -57.176  1.00  0.00     0.174 HD
ENDBRANCH   2  22
BRANCH   3  25
HETATM   25  C   UNL     1     -43.586  58.066 -58.552  1.00  0.00     0.186 C 
BRANCH  25  26
HETATM   26  C   UNL     1     -44.577  57.269 -59.364  1.00  0.00    -0.039 A 
HETATM   27  C   UNL     1     -44.212  56.305 -60.316  1.00  0.00     0.009 A 
HETATM   28  C   UNL     1     -45.188  55.597 -61.023  1.00  0.00     0.001 A 
HETATM   29  C   UNL     1     -46.539  55.834 -60.784  1.00  0.00     0.000 A 
HETATM   30  C   UNL     1     -46.919  56.779 -59.836  1.00  0.00     0.001 A 
HETATM   31  C   UNL     1     -45.947  57.492 -59.133  1.00  0.00     0.009 A 
ENDBRANCH  25  26
ENDBRANCH   3  25
TORSDOF 8
ENDMDL
