MODEL 1
REMARK VINA RESULT:      -9.0      0.000      0.000
REMARK  3 active torsions:
REMARK  status: ('A' for Active; 'I' for Inactive)
REMARK    1  A    between atoms: C_2  and  C_3 
REMARK    2  A    between atoms: C_12  and  C_13 
REMARK    3  A    between atoms: C_16  and  O_17 
ROOT
HETATM    1  C   UNL     1     -40.718  53.092 -54.903  1.00  0.00    -0.007 C 
HETATM    2  C   UNL     1     -42.245  53.247 -55.087  1.00  0.00     0.009 C 
HETATM    3  C   UNL     1     -42.912  54.337 -54.226  1.00  0.00     0.056 C 
HETATM    4  C   UNL     1     -42.159  55.684 -54.175  1.00  0.00     0.129 C 
HETATM    5  N   UNL     1     -42.448  56.589 -55.321  1.00  0.00    -0.223 N 
HETATM    6  C   UNL     1     -42.245  57.972 -55.189  1.00  0.00     0.142 C 
HETATM    7  N   UNL     1     -42.142  58.703 -56.340  1.00  0.00    -0.305 N 
HETATM    8  C   UNL     1     -42.479  58.161 -57.552  1.00  0.00     0.278 C 
HETATM    9  O   UNL     1     -42.238  58.713 -58.613  1.00  0.00    -0.265 OA
HETATM   10  C   UNL     1     -43.241  56.833 -57.461  1.00  0.00     0.155 C 
HETATM   11  N   UNL     1     -43.124  56.069 -56.402  1.00  0.00    -0.162 NA
HETATM   12  C   UNL     1     -42.193  58.568 -53.976  1.00  0.00     0.036 C 
HETATM   13  C   UNL     1     -42.527  57.671 -52.811  1.00  0.00     0.044 C 
HETATM   14  N   UNL     1     -42.581  56.392 -52.929  1.00  0.00    -0.361 N 
HETATM   15  H   UNL     1     -42.844  55.822 -52.127  1.00  0.00     0.162 HD
HETATM   16  C   UNL     1     -41.980  59.978 -53.705  1.00  0.00     0.017 C 
HETATM   17  C   UNL     1     -42.168  60.476 -52.476  1.00  0.00     0.001 C 
HETATM   18  C   UNL     1     -42.614  59.648 -51.381  1.00  0.00     0.002 C 
HETATM   19  C   UNL     1     -42.797  58.326 -51.502  1.00  0.00     0.030 C 
HETATM   20  C   UNL     1     -40.631  55.484 -54.030  1.00  0.00     0.056 C 
HETATM   21  C   UNL     1     -40.070  54.480 -55.021  1.00  0.00     0.009 C 
HETATM   22  H   UNL     1     -41.809  59.656 -56.367  1.00  0.00     0.170 HD
ENDROOT
BRANCH   1  23
HETATM   23  C   UNL     1     -40.258  52.183 -53.687  1.00  0.00    -0.048 C 
HETATM   24  C   UNL     1     -40.769  50.742 -53.938  1.00  0.00     0.015 C 
HETATM   25  C   UNL     1     -40.800  52.613 -52.313  1.00  0.00     0.015 C 
HETATM   26  C   UNL     1     -38.720  52.096 -53.576  1.00  0.00     0.015 C 
ENDBRANCH   1  23
BRANCH  10  27
HETATM   27  C   UNL     1     -44.210  56.464 -58.538  1.00  0.00     0.000 A 
HETATM   28  C   UNL     1     -45.314  57.284 -58.788  1.00  0.00     0.017 A 
HETATM   29  C   UNL     1     -46.148  57.026 -59.881  1.00  0.00     0.037 A 
HETATM   30  C   UNL     1     -45.887  55.960 -60.747  1.00  0.00     0.068 A 
HETATM   31  C   UNL     1     -44.799  55.131 -60.491  1.00  0.00     0.037 A 
HETATM   32  C   UNL     1     -43.961  55.384 -59.397  1.00  0.00     0.017 A 
BRANCH  30  33
HETATM   33  O   UNL     1     -46.755  55.840 -61.795  1.00  0.00    -0.356 OA
HETATM   34  C   UNL     1     -47.964  56.588 -61.720  1.00  0.00     0.210 C 
ENDBRANCH  30  33
ENDBRANCH  10  27
TORSDOF 3
ENDMDL
MODEL 2
REMARK VINA RESULT:      -8.4      3.142      8.324
REMARK  3 active torsions:
REMARK  status: ('A' for Active; 'I' for Inactive)
REMARK    1  A    between atoms: C_2  and  C_3 
REMARK    2  A    between atoms: C_12  and  C_13 
REMARK    3  A    between atoms: C_16  and  O_17 
ROOT
HETATM    1  C   UNL     1     -42.798  61.211 -56.014  1.00  0.00    -0.007 C 
HETATM    2  C   UNL     1     -43.752  60.405 -55.103  1.00  0.00     0.009 C 
HETATM    3  C   UNL     1     -44.703  59.433 -55.828  1.00  0.00     0.056 C 
HETATM    4  C   UNL     1     -44.048  58.582 -56.938  1.00  0.00     0.129 C 
HETATM    5  N   UNL     1     -43.369  57.353 -56.445  1.00  0.00    -0.223 N 
HETATM    6  C   UNL     1     -43.161  56.271 -57.316  1.00  0.00     0.142 C 
HETATM    7  N   UNL     1     -42.216  55.350 -56.957  1.00  0.00    -0.305 N 
HETATM    8  C   UNL     1     -41.686  55.340 -55.694  1.00  0.00     0.278 C 
HETATM    9  O   UNL     1     -40.723  54.656 -55.388  1.00  0.00    -0.265 OA
HETATM   10  C   UNL     1     -42.441  56.210 -54.683  1.00  0.00     0.155 C 
HETATM   11  N   UNL     1     -43.169  57.223 -55.089  1.00  0.00    -0.162 NA
HETATM   12  C   UNL     1     -43.891  56.120 -58.445  1.00  0.00     0.036 C 
HETATM   13  C   UNL     1     -45.030  57.096 -58.602  1.00  0.00     0.044 C 
HETATM   14  N   UNL     1     -45.129  58.151 -57.874  1.00  0.00    -0.361 N 
HETATM   15  H   UNL     1     -45.931  58.768 -57.987  1.00  0.00     0.162 HD
HETATM   16  C   UNL     1     -43.769  55.058 -59.427  1.00  0.00     0.017 C 
HETATM   17  C   UNL     1     -44.694  54.899 -60.383  1.00  0.00     0.001 C 
HETATM   18  C   UNL     1     -45.857  55.749 -60.463  1.00  0.00     0.002 C 
HETATM   19  C   UNL     1     -46.051  56.790 -59.641  1.00  0.00     0.030 C 
HETATM   20  C   UNL     1     -43.071  59.416 -57.803  1.00  0.00     0.056 C 
HETATM   21  C   UNL     1     -42.099  60.234 -56.972  1.00  0.00     0.009 C 
HETATM   22  H   UNL     1     -41.854  54.650 -57.588  1.00  0.00     0.170 HD
ENDROOT
BRANCH   1  23
HETATM   23  C   UNL     1     -43.402  62.533 -56.649  1.00  0.00    -0.048 C 
HETATM   24  C   UNL     1     -43.485  63.610 -55.538  1.00  0.00     0.015 C 
HETATM   25  C   UNL     1     -44.820  62.386 -57.230  1.00  0.00     0.015 C 
HETATM   26  C   UNL     1     -42.500  63.109 -57.761  1.00  0.00     0.015 C 
ENDBRANCH   1  23
BRANCH  10  27
HETATM   27  C   UNL     1     -42.439  55.832 -53.238  1.00  0.00     0.000 A 
HETATM   28  C   UNL     1     -43.106  54.675 -52.822  1.00  0.00     0.017 A 
HETATM   29  C   UNL     1     -42.993  54.236 -51.498  1.00  0.00     0.037 A 
HETATM   30  C   UNL     1     -42.206  54.931 -50.576  1.00  0.00     0.068 A 
HETATM   31  C   UNL     1     -41.554  56.093 -50.982  1.00  0.00     0.037 A 
HETATM   32  C   UNL     1     -41.664  56.537 -52.306  1.00  0.00     0.017 A 
BRANCH  30  33
HETATM   33  O   UNL     1     -42.150  54.377 -49.329  1.00  0.00    -0.356 OA
HETATM   34  C   UNL     1     -40.922  54.506 -48.621  1.00  0.00     0.210 C 
ENDBRANCH  30  33
ENDBRANCH  10  27
TORSDOF 3
ENDMDL
MODEL 3
REMARK VINA RESULT:      -8.3      3.478      7.488
REMARK  3 active torsions:
REMARK  status: ('A' for Active; 'I' for Inactive)
REMARK    1  A    between atoms: C_2  and  C_3 
REMARK    2  A    between atoms: C_12  and  C_13 
REMARK    3  A    between atoms: C_16  and  O_17 
ROOT
HETATM    1  C   UNL     1     -44.061  57.752 -56.672  1.00  0.00    -0.007 C 
HETATM    2  C   UNL     1     -42.659  57.526 -56.060  1.00  0.00     0.009 C 
HETATM    3  C   UNL     1     -42.222  58.552 -54.997  1.00  0.00     0.056 C 
HETATM    4  C   UNL     1     -43.299  58.909 -53.950  1.00  0.00     0.129 C 
HETATM    5  N   UNL     1     -43.386  57.954 -52.812  1.00  0.00    -0.223 N 
HETATM    6  C   UNL     1     -43.937  58.370 -51.589  1.00  0.00     0.142 C 
HETATM    7  N   UNL     1     -44.352  57.395 -50.724  1.00  0.00    -0.305 N 
HETATM    8  C   UNL     1     -44.011  56.083 -50.925  1.00  0.00     0.278 C 
HETATM    9  O   UNL     1     -44.501  55.168 -50.285  1.00  0.00    -0.265 OA
HETATM   10  C   UNL     1     -42.916  55.868 -51.977  1.00  0.00     0.155 C 
HETATM   11  N   UNL     1     -42.712  56.758 -52.918  1.00  0.00    -0.162 NA
HETATM   12  C   UNL     1     -44.020  59.679 -51.258  1.00  0.00     0.036 C 
HETATM   13  C   UNL     1     -43.337  60.622 -52.216  1.00  0.00     0.044 C 
HETATM   14  N   UNL     1     -42.954  60.248 -53.385  1.00  0.00    -0.361 N 
HETATM   15  H   UNL     1     -42.465  60.905 -53.990  1.00  0.00     0.162 HD
HETATM   16  C   UNL     1     -44.573  60.237 -50.038  1.00  0.00     0.017 C 
HETATM   17  C   UNL     1     -44.398  61.530 -49.733  1.00  0.00     0.001 C 
HETATM   18  C   UNL     1     -43.634  62.412 -50.582  1.00  0.00     0.002 C 
HETATM   19  C   UNL     1     -43.117  62.020 -51.755  1.00  0.00     0.030 C 
HETATM   20  C   UNL     1     -44.694  59.089 -54.597  1.00  0.00     0.056 C 
HETATM   21  C   UNL     1     -45.066  57.947 -55.526  1.00  0.00     0.009 C 
HETATM   22  H   UNL     1     -44.929  57.577 -49.916  1.00  0.00     0.170 HD
ENDROOT
BRANCH   1  23
HETATM   23  C   UNL     1     -44.131  58.784 -57.875  1.00  0.00    -0.048 C 
HETATM   24  C   UNL     1     -43.599  58.080 -59.148  1.00  0.00     0.015 C 
HETATM   25  C   UNL     1     -43.288  60.058 -57.688  1.00  0.00     0.015 C 
HETATM   26  C   UNL     1     -45.578  59.223 -58.181  1.00  0.00     0.015 C 
ENDBRANCH   1  23
BRANCH  10  27
HETATM   27  C   UNL     1     -42.002  54.691 -51.859  1.00  0.00     0.000 A 
HETATM   28  C   UNL     1     -41.768  53.880 -52.974  1.00  0.00     0.017 A 
HETATM   29  C   UNL     1     -40.810  52.862 -52.913  1.00  0.00     0.037 A 
HETATM   30  C   UNL     1     -40.062  52.649 -51.752  1.00  0.00     0.068 A 
HETATM   31  C   UNL     1     -40.305  53.443 -50.635  1.00  0.00     0.037 A 
HETATM   32  C   UNL     1     -41.264  54.463 -50.689  1.00  0.00     0.017 A 
BRANCH  30  33
HETATM   33  O   UNL     1     -39.134  51.650 -51.837  1.00  0.00    -0.356 OA
HETATM   34  C   UNL     1     -39.509  50.377 -51.321  1.00  0.00     0.210 C 
ENDBRANCH  30  33
ENDBRANCH  10  27
TORSDOF 3
ENDMDL
MODEL 4
REMARK VINA RESULT:      -8.2      2.293      6.030
REMARK  3 active torsions:
REMARK  status: ('A' for Active; 'I' for Inactive)
REMARK    1  A    between atoms: C_2  and  C_3 
REMARK    2  A    between atoms: C_12  and  C_13 
REMARK    3  A    between atoms: C_16  and  O_17 
ROOT
HETATM    1  C   UNL     1     -43.593  60.564 -52.808  1.00  0.00    -0.007 C 
HETATM    2  C   UNL     1     -42.376  60.671 -53.755  1.00  0.00     0.009 C 
HETATM    3  C   UNL     1     -41.471  59.425 -53.821  1.00  0.00     0.056 C 
HETATM    4  C   UNL     1     -42.218  58.078 -53.931  1.00  0.00     0.129 C 
HETATM    5  N   UNL     1     -42.615  57.710 -55.318  1.00  0.00    -0.223 N 
HETATM    6  C   UNL     1     -42.849  56.365 -55.646  1.00  0.00     0.142 C 
HETATM    7  N   UNL     1     -43.570  56.112 -56.779  1.00  0.00    -0.305 N 
HETATM    8  C   UNL     1     -43.828  57.106 -57.687  1.00  0.00     0.278 C 
HETATM    9  O   UNL     1     -44.609  56.968 -58.613  1.00  0.00    -0.265 OA
HETATM   10  C   UNL     1     -43.005  58.383 -57.477  1.00  0.00     0.155 C 
HETATM   11  N   UNL     1     -42.516  58.674 -56.296  1.00  0.00    -0.162 NA
HETATM   12  C   UNL     1     -42.349  55.356 -54.896  1.00  0.00     0.036 C 
HETATM   13  C   UNL     1     -41.406  55.784 -53.800  1.00  0.00     0.044 C 
HETATM   14  N   UNL     1     -41.303  57.010 -53.430  1.00  0.00    -0.361 N 
HETATM   15  H   UNL     1     -40.628  57.265 -52.710  1.00  0.00     0.162 HD
HETATM   16  C   UNL     1     -42.526  53.933 -55.120  1.00  0.00     0.017 C 
HETATM   17  C   UNL     1     -41.802  53.036 -54.437  1.00  0.00     0.001 C 
HETATM   18  C   UNL     1     -40.802  53.440 -53.478  1.00  0.00     0.002 C 
HETATM   19  C   UNL     1     -40.585  54.723 -53.155  1.00  0.00     0.030 C 
HETATM   20  C   UNL     1     -43.452  58.026 -52.997  1.00  0.00     0.056 C 
HETATM   21  C   UNL     1     -44.336  59.254 -53.117  1.00  0.00     0.009 C 
HETATM   22  H   UNL     1     -43.957  55.207 -57.003  1.00  0.00     0.170 HD
ENDROOT
BRANCH   1  23
HETATM   23  C   UNL     1     -43.311  60.888 -51.281  1.00  0.00    -0.048 C 
HETATM   24  C   UNL     1     -43.162  62.423 -51.132  1.00  0.00     0.015 C 
HETATM   25  C   UNL     1     -42.027  60.261 -50.710  1.00  0.00     0.015 C 
HETATM   26  C   UNL     1     -44.482  60.464 -50.370  1.00  0.00     0.015 C 
ENDBRANCH   1  23
BRANCH  10  27
HETATM   27  C   UNL     1     -42.665  59.241 -58.653  1.00  0.00     0.000 A 
HETATM   28  C   UNL     1     -42.575  60.628 -58.497  1.00  0.00     0.017 A 
HETATM   29  C   UNL     1     -42.121  61.426 -59.553  1.00  0.00     0.037 A 
HETATM   30  C   UNL     1     -41.737  60.856 -60.769  1.00  0.00     0.068 A 
HETATM   31  C   UNL     1     -41.841  59.477 -60.934  1.00  0.00     0.037 A 
HETATM   32  C   UNL     1     -42.296  58.674 -59.881  1.00  0.00     0.017 A 
BRANCH  30  33
HETATM   33  O   UNL     1     -41.278  61.740 -61.703  1.00  0.00    -0.356 OA
HETATM   34  C   UNL     1     -40.335  62.712 -61.262  1.00  0.00     0.210 C 
ENDBRANCH  30  33
ENDBRANCH  10  27
TORSDOF 3
ENDMDL
MODEL 5
REMARK VINA RESULT:      -8.0      2.831      7.849
REMARK  3 active torsions:
REMARK  status: ('A' for Active; 'I' for Inactive)
REMARK    1  A    between atoms: C_2  and  C_3 
REMARK    2  A    between atoms: C_12  and  C_13 
REMARK    3  A    between atoms: C_16  and  O_17 
ROOT
HETATM    1  C   UNL     1     -42.969  59.930 -51.378  1.00  0.00    -0.007 C 
HETATM    2  C   UNL     1     -43.606  58.539 -51.160  1.00  0.00     0.009 C 
HETATM    3  C   UNL     1     -44.509  58.033 -52.302  1.00  0.00     0.056 C 
HETATM    4  C   UNL     1     -43.940  58.233 -53.724  1.00  0.00     0.129 C 
HETATM    5  N   UNL     1     -43.001  57.165 -54.162  1.00  0.00    -0.223 N 
HETATM    6  C   UNL     1     -42.787  56.938 -55.531  1.00  0.00     0.142 C 
HETATM    7  N   UNL     1     -41.662  56.246 -55.884  1.00  0.00    -0.305 N 
HETATM    8  C   UNL     1     -40.918  55.583 -54.944  1.00  0.00     0.278 C 
HETATM    9  O   UNL     1     -39.822  55.107 -55.186  1.00  0.00    -0.265 OA
HETATM   10  C   UNL     1     -41.605  55.437 -53.581  1.00  0.00     0.155 C 
HETATM   11  N   UNL     1     -42.543  56.277 -53.214  1.00  0.00    -0.162 NA
HETATM   12  C   UNL     1     -43.676  57.350 -56.464  1.00  0.00     0.036 C 
HETATM   13  C   UNL     1     -44.962  57.912 -55.914  1.00  0.00     0.044 C 
HETATM   14  N   UNL     1     -45.091  58.233 -54.676  1.00  0.00    -0.361 N 
HETATM   15  H   UNL     1     -45.987  58.577 -54.335  1.00  0.00     0.162 HD
HETATM   16  C   UNL     1     -43.569  57.187 -57.902  1.00  0.00     0.017 C 
HETATM   17  C   UNL     1     -44.614  57.441 -58.701  1.00  0.00     0.001 C 
HETATM   18  C   UNL     1     -45.891  57.856 -58.171  1.00  0.00     0.002 C 
HETATM   19  C   UNL     1     -46.093  58.084 -56.866  1.00  0.00     0.030 C 
HETATM   20  C   UNL     1     -43.277  59.622 -53.889  1.00  0.00     0.056 C 
HETATM   21  C   UNL     1     -42.310  59.951 -52.766  1.00  0.00     0.009 C 
HETATM   22  H   UNL     1     -41.314  56.194 -56.831  1.00  0.00     0.170 HD
ENDROOT
BRANCH   1  23
HETATM   23  C   UNL     1     -43.876  61.173 -50.993  1.00  0.00    -0.048 C 
HETATM   24  C   UNL     1     -43.256  62.441 -51.632  1.00  0.00     0.015 C 
HETATM   25  C   UNL     1     -43.992  61.450 -49.483  1.00  0.00     0.015 C 
HETATM   26  C   UNL     1     -45.307  61.046 -51.555  1.00  0.00     0.015 C 
ENDBRANCH   1  23
BRANCH  10  27
HETATM   27  C   UNL     1     -41.284  54.261 -52.717  1.00  0.00     0.000 A 
HETATM   28  C   UNL     1     -40.592  53.172 -53.256  1.00  0.00     0.017 A 
HETATM   29  C   UNL     1     -40.164  52.130 -52.425  1.00  0.00     0.037 A 
HETATM   30  C   UNL     1     -40.404  52.165 -51.049  1.00  0.00     0.068 A 
HETATM   31  C   UNL     1     -41.108  53.239 -50.511  1.00  0.00     0.037 A 
HETATM   32  C   UNL     1     -41.540  54.284 -51.338  1.00  0.00     0.017 A 
BRANCH  30  33
HETATM   33  O   UNL     1     -39.902  51.106 -50.347  1.00  0.00    -0.356 OA
HETATM   34  C   UNL     1     -39.584  49.933 -51.089  1.00  0.00     0.210 C 
ENDBRANCH  30  33
ENDBRANCH  10  27
TORSDOF 3
ENDMDL
MODEL 6
REMARK VINA RESULT:      -8.0      2.150      3.166
REMARK  3 active torsions:
REMARK  status: ('A' for Active; 'I' for Inactive)
REMARK    1  A    between atoms: C_2  and  C_3 
REMARK    2  A    between atoms: C_12  and  C_13 
REMARK    3  A    between atoms: C_16  and  O_17 
ROOT
HETATM    1  C   UNL     1     -41.389  55.257 -52.296  1.00  0.00    -0.007 C 
HETATM    2  C   UNL     1     -42.621  55.114 -53.218  1.00  0.00     0.009 C 
HETATM    3  C   UNL     1     -43.790  56.073 -52.921  1.00  0.00     0.056 C 
HETATM    4  C   UNL     1     -43.385  57.540 -52.659  1.00  0.00     0.129 C 
HETATM    5  N   UNL     1     -43.198  58.351 -53.893  1.00  0.00    -0.223 N 
HETATM    6  C   UNL     1     -43.307  59.750 -53.834  1.00  0.00     0.142 C 
HETATM    7  N   UNL     1     -42.757  60.466 -54.861  1.00  0.00    -0.305 N 
HETATM    8  C   UNL     1     -42.352  59.846 -56.014  1.00  0.00     0.278 C 
HETATM    9  O   UNL     1     -41.702  60.414 -56.875  1.00  0.00    -0.265 OA
HETATM   10  C   UNL     1     -42.838  58.399 -56.160  1.00  0.00     0.155 C 
HETATM   11  N   UNL     1     -43.150  57.691 -55.100  1.00  0.00    -0.162 NA
HETATM   12  C   UNL     1     -43.964  60.367 -52.825  1.00  0.00     0.036 C 
HETATM   13  C   UNL     1     -44.692  59.444 -51.880  1.00  0.00     0.044 C 
HETATM   14  N   UNL     1     -44.479  58.177 -51.867  1.00  0.00    -0.361 N 
HETATM   15  H   UNL     1     -45.016  57.582 -51.238  1.00  0.00     0.162 HD
HETATM   16  C   UNL     1     -44.139  61.796 -52.644  1.00  0.00     0.017 C 
HETATM   17  C   UNL     1     -44.992  62.273 -51.728  1.00  0.00     0.001 C 
HETATM   18  C   UNL     1     -45.791  61.395 -50.907  1.00  0.00     0.002 C 
HETATM   19  C   UNL     1     -45.680  60.060 -50.953  1.00  0.00     0.030 C 
HETATM   20  C   UNL     1     -42.125  57.638 -51.765  1.00  0.00     0.056 C 
HETATM   21  C   UNL     1     -40.995  56.741 -52.236  1.00  0.00     0.009 C 
HETATM   22  H   UNL     1     -42.609  61.464 -54.828  1.00  0.00     0.170 HD
ENDROOT
BRANCH   1  23
HETATM   23  C   UNL     1     -41.464  54.476 -50.917  1.00  0.00    -0.048 C 
HETATM   24  C   UNL     1     -40.617  55.249 -49.875  1.00  0.00     0.015 C 
HETATM   25  C   UNL     1     -40.917  53.038 -50.954  1.00  0.00     0.015 C 
HETATM   26  C   UNL     1     -42.903  54.413 -50.362  1.00  0.00     0.015 C 
ENDBRANCH   1  23
BRANCH  10  27
HETATM   27  C   UNL     1     -43.066  57.832 -57.523  1.00  0.00     0.000 A 
HETATM   28  C   UNL     1     -42.584  56.556 -57.834  1.00  0.00     0.017 A 
HETATM   29  C   UNL     1     -42.911  55.960 -59.056  1.00  0.00     0.037 A 
HETATM   30  C   UNL     1     -43.732  56.615 -59.978  1.00  0.00     0.068 A 
HETATM   31  C   UNL     1     -44.200  57.892 -59.680  1.00  0.00     0.037 A 
HETATM   32  C   UNL     1     -43.875  58.495 -58.457  1.00  0.00     0.017 A 
BRANCH  30  33
HETATM   33  O   UNL     1     -44.005  55.909 -61.115  1.00  0.00    -0.356 OA
HETATM   34  C   UNL     1     -45.139  55.048 -61.082  1.00  0.00     0.210 C 
ENDBRANCH  30  33
ENDBRANCH  10  27
TORSDOF 3
ENDMDL
MODEL 7
REMARK VINA RESULT:      -7.9      2.502      5.945
REMARK  3 active torsions:
REMARK  status: ('A' for Active; 'I' for Inactive)
REMARK    1  A    between atoms: C_2  and  C_3 
REMARK    2  A    between atoms: C_12  and  C_13 
REMARK    3  A    between atoms: C_16  and  O_17 
ROOT
HETATM    1  C   UNL     1     -44.909  59.433 -51.859  1.00  0.00    -0.007 C 
HETATM    2  C   UNL     1     -43.648  59.631 -52.731  1.00  0.00     0.009 C 
HETATM    3  C   UNL     1     -42.391  58.868 -52.269  1.00  0.00     0.056 C 
HETATM    4  C   UNL     1     -42.631  57.398 -51.860  1.00  0.00     0.129 C 
HETATM    5  N   UNL     1     -42.641  56.441 -52.999  1.00  0.00    -0.223 N 
HETATM    6  C   UNL     1     -42.367  55.082 -52.775  1.00  0.00     0.142 C 
HETATM    7  N   UNL     1     -42.760  54.195 -53.738  1.00  0.00    -0.305 N 
HETATM    8  C   UNL     1     -43.165  54.629 -54.973  1.00  0.00     0.278 C 
HETATM    9  O   UNL     1     -43.687  53.893 -55.793  1.00  0.00    -0.265 OA
HETATM   10  C   UNL     1     -42.850  56.102 -55.260  1.00  0.00     0.155 C 
HETATM   11  N   UNL     1     -42.693  56.954 -54.276  1.00  0.00    -0.162 NA
HETATM   12  C   UNL     1     -41.704  54.666 -51.671  1.00  0.00     0.036 C 
HETATM   13  C   UNL     1     -41.154  55.771 -50.804  1.00  0.00     0.044 C 
HETATM   14  N   UNL     1     -41.520  56.995 -50.947  1.00  0.00    -0.361 N 
HETATM   15  H   UNL     1     -41.099  57.718 -50.366  1.00  0.00     0.162 HD
HETATM   16  C   UNL     1     -41.369  53.299 -51.318  1.00  0.00     0.017 C 
HETATM   17  C   UNL     1     -40.523  53.038 -50.313  1.00  0.00     0.001 C 
HETATM   18  C   UNL     1     -39.890  54.094 -49.560  1.00  0.00     0.002 C 
HETATM   19  C   UNL     1     -40.159  55.390 -49.766  1.00  0.00     0.030 C 
HETATM   20  C   UNL     1     -43.923  57.237 -51.022  1.00  0.00     0.056 C 
HETATM   21  C   UNL     1     -45.122  57.926 -51.648  1.00  0.00     0.009 C 
HETATM   22  H   UNL     1     -42.788  53.196 -53.597  1.00  0.00     0.170 HD
ENDROOT
BRANCH   1  23
HETATM   23  C   UNL     1     -45.015  60.362 -50.577  1.00  0.00    -0.048 C 
HETATM   24  C   UNL     1     -45.664  59.539 -49.435  1.00  0.00     0.015 C 
HETATM   25  C   UNL     1     -45.876  61.624 -50.759  1.00  0.00     0.015 C 
HETATM   26  C   UNL     1     -43.629  60.812 -50.069  1.00  0.00     0.015 C 
ENDBRANCH   1  23
BRANCH  10  27
HETATM   27  C   UNL     1     -42.608  56.543 -56.668  1.00  0.00     0.000 A 
HETATM   28  C   UNL     1     -43.000  55.721 -57.729  1.00  0.00     0.017 A 
HETATM   29  C   UNL     1     -42.907  56.182 -59.047  1.00  0.00     0.037 A 
HETATM   30  C   UNL     1     -42.439  57.469 -59.325  1.00  0.00     0.068 A 
HETATM   31  C   UNL     1     -42.032  58.284 -58.272  1.00  0.00     0.037 A 
HETATM   32  C   UNL     1     -42.121  57.827 -56.951  1.00  0.00     0.017 A 
BRANCH  30  33
HETATM   33  O   UNL     1     -42.433  57.810 -60.648  1.00  0.00    -0.356 OA
HETATM   34  C   UNL     1     -41.934  59.102 -60.978  1.00  0.00     0.210 C 
ENDBRANCH  30  33
ENDBRANCH  10  27
TORSDOF 3
ENDMDL
MODEL 8
REMARK VINA RESULT:      -7.9      2.940      7.967
REMARK  3 active torsions:
REMARK  status: ('A' for Active; 'I' for Inactive)
REMARK    1  A    between atoms: C_2  and  C_3 
REMARK    2  A    between atoms: C_12  and  C_13 
REMARK    3  A    between atoms: C_16  and  O_17 
ROOT
HETATM    1  C   UNL     1     -43.886  59.321 -58.093  1.00  0.00    -0.007 C 
HETATM    2  C   UNL     1     -44.754  59.234 -56.817  1.00  0.00     0.009 C 
HETATM    3  C   UNL     1     -44.722  57.881 -56.081  1.00  0.00     0.056 C 
HETATM    4  C   UNL     1     -43.319  57.258 -55.914  1.00  0.00     0.129 C 
HETATM    5  N   UNL     1     -42.559  57.771 -54.742  1.00  0.00    -0.223 N 
HETATM    6  C   UNL     1     -41.526  57.001 -54.185  1.00  0.00     0.142 C 
HETATM    7  N   UNL     1     -40.618  57.646 -53.392  1.00  0.00    -0.305 N 
HETATM    8  C   UNL     1     -40.849  58.923 -52.952  1.00  0.00     0.278 C 
HETATM    9  O   UNL     1     -39.996  59.594 -52.396  1.00  0.00    -0.265 OA
HETATM   10  C   UNL     1     -42.287  59.413 -53.160  1.00  0.00     0.155 C 
HETATM   11  N   UNL     1     -43.042  58.886 -54.094  1.00  0.00    -0.162 NA
HETATM   12  C   UNL     1     -41.450  55.665 -54.389  1.00  0.00     0.036 C 
HETATM   13  C   UNL     1     -42.630  55.063 -55.109  1.00  0.00     0.044 C 
HETATM   14  N   UNL     1     -43.497  55.788 -55.722  1.00  0.00    -0.361 N 
HETATM   15  H   UNL     1     -44.299  55.346 -56.167  1.00  0.00     0.162 HD
HETATM   16  C   UNL     1     -40.434  54.762 -53.881  1.00  0.00     0.017 C 
HETATM   17  C   UNL     1     -40.590  53.434 -53.969  1.00  0.00     0.001 C 
HETATM   18  C   UNL     1     -41.778  52.846 -54.541  1.00  0.00     0.002 C 
HETATM   19  C   UNL     1     -42.760  53.580 -55.083  1.00  0.00     0.030 C 
HETATM   20  C   UNL     1     -42.469  57.400 -57.200  1.00  0.00     0.056 C 
HETATM   21  C   UNL     1     -42.475  58.812 -57.758  1.00  0.00     0.009 C 
HETATM   22  H   UNL     1     -39.741  57.238 -53.103  1.00  0.00     0.170 HD
ENDROOT
BRANCH   1  23
HETATM   23  C   UNL     1     -44.555  58.768 -59.422  1.00  0.00    -0.048 C 
HETATM   24  C   UNL     1     -45.470  59.876 -60.000  1.00  0.00     0.015 C 
HETATM   25  C   UNL     1     -45.433  57.518 -59.236  1.00  0.00     0.015 C 
HETATM   26  C   UNL     1     -43.507  58.444 -60.508  1.00  0.00     0.015 C 
ENDBRANCH   1  23
BRANCH  10  27
HETATM   27  C   UNL     1     -42.867  60.417 -52.217  1.00  0.00     0.000 A 
HETATM   28  C   UNL     1     -43.105  60.062 -50.885  1.00  0.00     0.017 A 
HETATM   29  C   UNL     1     -43.514  61.031 -49.962  1.00  0.00     0.037 A 
HETATM   30  C   UNL     1     -43.678  62.364 -50.346  1.00  0.00     0.068 A 
HETATM   31  C   UNL     1     -43.459  62.718 -51.675  1.00  0.00     0.037 A 
HETATM   32  C   UNL     1     -43.050  61.752 -52.604  1.00  0.00     0.017 A 
BRANCH  30  33
HETATM   33  O   UNL     1     -44.044  63.215 -49.342  1.00  0.00    -0.356 OA
HETATM   34  C   UNL     1     -44.700  62.640 -48.217  1.00  0.00     0.210 C 
ENDBRANCH  30  33
ENDBRANCH  10  27
TORSDOF 3
ENDMDL
MODEL 9
REMARK VINA RESULT:      -7.8      3.813      7.690
REMARK  3 active torsions:
REMARK  status: ('A' for Active; 'I' for Inactive)
REMARK    1  A    between atoms: C_2  and  C_3 
REMARK    2  A    between atoms: C_12  and  C_13 
REMARK    3  A    between atoms: C_16  and  O_17 
ROOT
HETATM    1  C   UNL     1     -43.434  58.470 -56.502  1.00  0.00    -0.007 C 
HETATM    2  C   UNL     1     -44.683  58.402 -55.594  1.00  0.00     0.009 C 
HETATM    3  C   UNL     1     -44.666  57.299 -54.519  1.00  0.00     0.056 C 
HETATM    4  C   UNL     1     -43.336  57.158 -53.747  1.00  0.00     0.129 C 
HETATM    5  N   UNL     1     -43.190  58.100 -52.604  1.00  0.00    -0.223 N 
HETATM    6  C   UNL     1     -42.313  57.794 -51.551  1.00  0.00     0.142 C 
HETATM    7  N   UNL     1     -41.917  58.824 -50.744  1.00  0.00    -0.305 N 
HETATM    8  C   UNL     1     -42.544  60.042 -50.797  1.00  0.00     0.278 C 
HETATM    9  O   UNL     1     -42.114  61.031 -50.228  1.00  0.00    -0.265 OA
HETATM   10  C   UNL     1     -43.864  60.040 -51.578  1.00  0.00     0.155 C 
HETATM   11  N   UNL     1     -44.091  59.136 -52.500  1.00  0.00    -0.162 NA
HETATM   12  C   UNL     1     -41.904  56.526 -51.316  1.00  0.00     0.036 C 
HETATM   13  C   UNL     1     -42.582  55.472 -52.155  1.00  0.00     0.044 C 
HETATM   14  N   UNL     1     -43.279  55.772 -53.193  1.00  0.00    -0.361 N 
HETATM   15  H   UNL     1     -43.750  55.035 -53.714  1.00  0.00     0.162 HD
HETATM   16  C   UNL     1     -40.998  56.081 -50.274  1.00  0.00     0.017 C 
HETATM   17  C   UNL     1     -40.845  54.776 -50.008  1.00  0.00     0.001 C 
HETATM   18  C   UNL     1     -41.588  53.765 -50.720  1.00  0.00     0.002 C 
HETATM   19  C   UNL     1     -42.417  54.054 -51.733  1.00  0.00     0.030 C 
HETATM   20  C   UNL     1     -42.110  57.271 -54.685  1.00  0.00     0.056 C 
HETATM   21  C   UNL     1     -42.183  58.473 -55.610  1.00  0.00     0.009 C 
HETATM   22  H   UNL     1     -41.151  58.756 -50.089  1.00  0.00     0.170 HD
ENDROOT
BRANCH   1  23
HETATM   23  C   UNL     1     -43.430  57.485 -57.746  1.00  0.00    -0.048 C 
HETATM   24  C   UNL     1     -44.830  57.534 -58.407  1.00  0.00     0.015 C 
HETATM   25  C   UNL     1     -43.151  56.011 -57.406  1.00  0.00     0.015 C 
HETATM   26  C   UNL     1     -42.413  57.915 -58.825  1.00  0.00     0.015 C 
ENDBRANCH   1  23
BRANCH  10  27
HETATM   27  C   UNL     1     -44.941  61.005 -51.204  1.00  0.00     0.000 A 
HETATM   28  C   UNL     1     -45.474  60.985 -49.911  1.00  0.00     0.017 A 
HETATM   29  C   UNL     1     -46.381  61.972 -49.509  1.00  0.00     0.037 A 
HETATM   30  C   UNL     1     -46.757  62.998 -50.379  1.00  0.00     0.068 A 
HETATM   31  C   UNL     1     -46.242  63.012 -51.673  1.00  0.00     0.037 A 
HETATM   32  C   UNL     1     -45.335  62.026 -52.081  1.00  0.00     0.017 A 
BRANCH  30  33
HETATM   33  O   UNL     1     -47.618  63.918 -49.852  1.00  0.00    -0.356 OA
HETATM   34  C   UNL     1     -48.074  63.686 -48.523  1.00  0.00     0.210 C 
ENDBRANCH  30  33
ENDBRANCH  10  27
TORSDOF 3
ENDMDL
MODEL 10
REMARK VINA RESULT:      -7.6      3.233      8.352
REMARK  3 active torsions:
REMARK  status: ('A' for Active; 'I' for Inactive)
REMARK    1  A    between atoms: C_2  and  C_3 
REMARK    2  A    between atoms: C_12  and  C_13 
REMARK    3  A    between atoms: C_16  and  O_17 
ROOT
HETATM    1  C   UNL     1     -43.522  61.599 -53.585  1.00  0.00    -0.007 C 
HETATM    2  C   UNL     1     -44.233  60.417 -52.887  1.00  0.00     0.009 C 
HETATM    3  C   UNL     1     -45.109  59.534 -53.798  1.00  0.00     0.056 C 
HETATM    4  C   UNL     1     -44.472  59.155 -55.152  1.00  0.00     0.129 C 
HETATM    5  N   UNL     1     -43.565  57.976 -55.092  1.00  0.00    -0.223 N 
HETATM    6  C   UNL     1     -43.305  57.234 -56.255  1.00  0.00     0.142 C 
HETATM    7  N   UNL     1     -42.199  56.429 -56.251  1.00  0.00    -0.305 N 
HETATM    8  C   UNL     1     -41.527  56.160 -55.087  1.00  0.00     0.278 C 
HETATM    9  O   UNL     1     -40.445  55.598 -55.064  1.00  0.00    -0.265 OA
HETATM   10  C   UNL     1     -42.279  56.569 -53.814  1.00  0.00     0.155 C 
HETATM   11  N   UNL     1     -43.191  57.511 -53.852  1.00  0.00    -0.162 NA
HETATM   12  C   UNL     1     -44.132  57.277 -57.324  1.00  0.00     0.036 C 
HETATM   13  C   UNL     1     -45.413  58.043 -57.107  1.00  0.00     0.044 C 
HETATM   14  N   UNL     1     -45.580  58.820 -56.096  1.00  0.00    -0.361 N 
HETATM   15  H   UNL     1     -46.472  59.293 -55.965  1.00  0.00     0.162 HD
HETATM   16  C   UNL     1     -43.972  56.570 -58.581  1.00  0.00     0.017 C 
HETATM   17  C   UNL     1     -44.969  56.525 -59.475  1.00  0.00     0.001 C 
HETATM   18  C   UNL     1     -46.246  57.146 -59.219  1.00  0.00     0.002 C 
HETATM   19  C   UNL     1     -46.493  57.865 -58.115  1.00  0.00     0.030 C 
HETATM   20  C   UNL     1     -43.737  60.355 -55.799  1.00  0.00     0.056 C 
HETATM   21  C   UNL     1     -42.805  61.065 -54.835  1.00  0.00     0.009 C 
HETATM   22  H   UNL     1     -41.814  56.007 -57.083  1.00  0.00     0.170 HD
ENDROOT
BRANCH   1  23
HETATM   23  C   UNL     1     -44.386  62.919 -53.759  1.00  0.00    -0.048 C 
HETATM   24  C   UNL     1     -44.189  63.795 -52.497  1.00  0.00     0.015 C 
HETATM   25  C   UNL     1     -45.900  62.690 -53.909  1.00  0.00     0.015 C 
HETATM   26  C   UNL     1     -43.921  63.763 -54.964  1.00  0.00     0.015 C 
ENDBRANCH   1  23
BRANCH  10  27
HETATM   27  C   UNL     1     -42.050  55.809 -52.548  1.00  0.00     0.000 A 
HETATM   28  C   UNL     1     -41.364  56.414 -51.490  1.00  0.00     0.017 A 
HETATM   29  C   UNL     1     -41.267  55.766 -50.253  1.00  0.00     0.037 A 
HETATM   30  C   UNL     1     -41.862  54.518 -50.048  1.00  0.00     0.068 A 
HETATM   31  C   UNL     1     -42.531  53.905 -51.104  1.00  0.00     0.037 A 
HETATM   32  C   UNL     1     -42.630  54.549 -52.345  1.00  0.00     0.017 A 
BRANCH  30  33
HETATM   33  O   UNL     1     -41.725  54.012 -48.787  1.00  0.00    -0.356 OA
HETATM   34  C   UNL     1     -40.401  53.909 -48.274  1.00  0.00     0.210 C 
ENDBRANCH  30  33
ENDBRANCH  10  27
TORSDOF 3
ENDMDL
