MODEL 1
REMARK VINA RESULT:      -8.2      0.000      0.000
REMARK  9 active torsions:
REMARK  status: ('A' for Active; 'I' for Inactive)
REMARK    1  A    between atoms: C_2  and  O_3 
REMARK    2  A    between atoms: O_3  and  C_4 
REMARK    3  A    between atoms: C_7  and  N_8 
REMARK       I    between atoms: N_8  and  C_9 
REMARK    4  A    between atoms: C_9  and  C_10 
REMARK    5  A    between atoms: C_11  and  N_12 
REMARK       I    between atoms: N_12  and  C_13 
REMARK    6  A    between atoms: C_13  and  C_14 
REMARK    7  A    between atoms: C_14  and  N_15 
REMARK    8  A    between atoms: N_15  and  C_18 
REMARK    9  A    between atoms: C_18  and  C_19 
ROOT
HETATM    1  C   UNL     1     -42.876  56.644 -56.751  1.00  0.00     0.073 A 
HETATM    2  C   UNL     1     -42.590  58.013 -56.650  1.00  0.00     0.093 A 
HETATM    3  S   UNL     1     -42.984  58.896 -58.060  1.00  0.00    -0.075 SA
HETATM    4  C   UNL     1     -43.477  57.502 -58.826  1.00  0.00    -0.008 A 
HETATM    5  C   UNL     1     -43.368  56.371 -58.065  1.00  0.00    -0.026 A 
HETATM    6  C   UNL     1     -43.795  55.182 -58.859  1.00  0.00     0.041 C 
HETATM    7  C   UNL     1     -43.837  55.736 -60.315  1.00  0.00     0.010 C 
HETATM    8  C   UNL     1     -43.995  57.279 -60.196  1.00  0.00     0.047 C 
ENDROOT
BRANCH   2   9
HETATM    9  N   UNL     1     -42.022  58.637 -55.546  1.00  0.00    -0.319 N 
HETATM   10  C   UNL     1     -42.677  59.144 -54.449  1.00  0.00     0.248 C 
HETATM   11  O   UNL     1     -43.873  59.080 -54.163  1.00  0.00    -0.271 OA
HETATM   12  H   UNL     1     -40.999  58.670 -55.594  1.00  0.00     0.169 HD
BRANCH  10  13
HETATM   13  C   UNL     1     -41.760  59.859 -53.455  1.00  0.00     0.335 C 
BRANCH  13  14
HETATM   14  N   UNL     1     -42.111  59.405 -52.056  1.00  0.00    -0.059 N 
HETATM   15  H   UNL     1     -42.291  60.281 -51.533  1.00  0.00     0.278 HD
HETATM   16  H   UNL     1     -43.035  58.957 -52.078  1.00  0.00     0.278 HD
BRANCH  14  17
HETATM   17  C   UNL     1     -41.135  58.573 -51.295  1.00  0.00     0.215 C 
HETATM   18  C   UNL     1     -40.510  59.409 -50.179  1.00  0.00     0.045 C 
BRANCH  17  19
HETATM   19  C   UNL     1     -41.728  57.240 -50.890  1.00  0.00    -0.028 A 
HETATM   20  C   UNL     1     -41.112  56.377 -49.970  1.00  0.00     0.009 A 
HETATM   21  C   UNL     1     -41.716  55.169 -49.611  1.00  0.00     0.001 A 
HETATM   22  C   UNL     1     -42.941  54.806 -50.162  1.00  0.00     0.000 A 
HETATM   23  C   UNL     1     -43.568  55.649 -51.075  1.00  0.00     0.001 A 
HETATM   24  C   UNL     1     -42.969  56.857 -51.434  1.00  0.00     0.009 A 
ENDBRANCH  17  19
ENDBRANCH  14  17
ENDBRANCH  13  14
ENDBRANCH  10  13
ENDBRANCH   2   9
BRANCH   1  25
HETATM   25  C   UNL     1     -42.658  55.732 -55.610  1.00  0.00     0.259 C 
HETATM   26  N   UNL     1     -41.422  55.123 -55.588  1.00  0.00    -0.323 N 
HETATM   27  H   UNL     1     -40.799  55.332 -56.353  1.00  0.00     0.169 HD
HETATM   28  O   UNL     1     -43.575  55.529 -54.814  1.00  0.00    -0.267 OA
BRANCH  26  29
HETATM   29  C   UNL     1     -40.947  54.142 -54.694  1.00  0.00     0.035 A 
HETATM   30  C   UNL     1     -40.614  52.837 -55.057  1.00  0.00     0.032 A 
HETATM   31  C   UNL     1     -40.096  51.943 -54.108  1.00  0.00     0.039 A 
HETATM   32  C   UNL     1     -39.904  52.348 -52.789  1.00  0.00     0.068 A 
HETATM   33  C   UNL     1     -40.274  53.638 -52.415  1.00  0.00     0.039 A 
HETATM   34  C   UNL     1     -40.787  54.530 -53.359  1.00  0.00     0.032 A 
BRANCH  32  35
HETATM   35  O   UNL     1     -39.387  51.584 -51.781  1.00  0.00    -0.352 OA
BRANCH  35  36
HETATM   36  C   UNL     1     -39.500  50.170 -51.925  1.00  0.00     0.171 C 
HETATM   37  C   UNL     1     -39.883  49.592 -50.574  1.00  0.00     0.034 C 
ENDBRANCH  35  36
ENDBRANCH  32  35
ENDBRANCH  26  29
ENDBRANCH   1  25
TORSDOF 9
ENDMDL
MODEL 2
REMARK VINA RESULT:      -8.0      2.608      6.792
REMARK  9 active torsions:
REMARK  status: ('A' for Active; 'I' for Inactive)
REMARK    1  A    between atoms: C_2  and  O_3 
REMARK    2  A    between atoms: O_3  and  C_4 
REMARK    3  A    between atoms: C_7  and  N_8 
REMARK       I    between atoms: N_8  and  C_9 
REMARK    4  A    between atoms: C_9  and  C_10 
REMARK    5  A    between atoms: C_11  and  N_12 
REMARK       I    between atoms: N_12  and  C_13 
REMARK    6  A    between atoms: C_13  and  C_14 
REMARK    7  A    between atoms: C_14  and  N_15 
REMARK    8  A    between atoms: N_15  and  C_18 
REMARK    9  A    between atoms: C_18  and  C_19 
ROOT
HETATM    1  C   UNL     1     -40.572  53.567 -53.284  1.00  0.00     0.073 A 
HETATM    2  C   UNL     1     -40.640  53.915 -51.928  1.00  0.00     0.093 A 
HETATM    3  S   UNL     1     -40.168  52.652 -50.876  1.00  0.00    -0.075 SA
HETATM    4  C   UNL     1     -39.924  51.632 -52.169  1.00  0.00    -0.008 A 
HETATM    5  C   UNL     1     -40.178  52.197 -53.389  1.00  0.00    -0.026 A 
HETATM    6  C   UNL     1     -39.967  51.188 -54.468  1.00  0.00     0.041 C 
HETATM    7  C   UNL     1     -39.896  49.846 -53.677  1.00  0.00     0.010 C 
HETATM    8  C   UNL     1     -39.498  50.214 -52.220  1.00  0.00     0.047 C 
ENDROOT
BRANCH   2   9
HETATM    9  N   UNL     1     -41.065  55.142 -51.433  1.00  0.00    -0.319 N 
HETATM   10  C   UNL     1     -42.359  55.596 -51.334  1.00  0.00     0.248 C 
HETATM   11  O   UNL     1     -43.409  54.998 -51.571  1.00  0.00    -0.271 OA
HETATM   12  H   UNL     1     -40.291  55.720 -51.092  1.00  0.00     0.169 HD
BRANCH  10  13
HETATM   13  C   UNL     1     -42.474  57.037 -50.835  1.00  0.00     0.335 C 
BRANCH  13  14
HETATM   14  N   UNL     1     -41.084  57.616 -50.696  1.00  0.00    -0.059 N 
HETATM   15  H   UNL     1     -40.767  57.314 -49.757  1.00  0.00     0.278 HD
HETATM   16  H   UNL     1     -40.452  57.108 -51.327  1.00  0.00     0.278 HD
BRANCH  14  17
HETATM   17  C   UNL     1     -40.894  59.090 -50.825  1.00  0.00     0.215 C 
HETATM   18  C   UNL     1     -39.434  59.445 -50.552  1.00  0.00     0.045 C 
BRANCH  17  19
HETATM   19  C   UNL     1     -41.490  59.622 -52.111  1.00  0.00    -0.028 A 
HETATM   20  C   UNL     1     -41.083  59.183 -53.381  1.00  0.00     0.009 A 
HETATM   21  C   UNL     1     -41.686  59.689 -54.537  1.00  0.00     0.001 A 
HETATM   22  C   UNL     1     -42.701  60.635 -54.443  1.00  0.00     0.000 A 
HETATM   23  C   UNL     1     -43.120  61.081 -53.193  1.00  0.00     0.001 A 
HETATM   24  C   UNL     1     -42.523  60.577 -52.037  1.00  0.00     0.009 A 
ENDBRANCH  17  19
ENDBRANCH  14  17
ENDBRANCH  13  14
ENDBRANCH  10  13
ENDBRANCH   2   9
BRANCH   1  25
HETATM   25  C   UNL     1     -40.884  54.548 -54.341  1.00  0.00     0.259 C 
HETATM   26  N   UNL     1     -42.230  54.751 -54.559  1.00  0.00    -0.323 N 
HETATM   27  H   UNL     1     -42.868  54.202 -54.005  1.00  0.00     0.169 HD
HETATM   28  O   UNL     1     -39.967  55.060 -54.982  1.00  0.00    -0.267 OA
BRANCH  26  29
HETATM   29  C   UNL     1     -42.846  55.544 -55.548  1.00  0.00     0.035 A 
HETATM   30  C   UNL     1     -43.528  56.735 -55.296  1.00  0.00     0.032 A 
HETATM   31  C   UNL     1     -44.062  57.489 -56.352  1.00  0.00     0.039 A 
HETATM   32  C   UNL     1     -43.917  57.058 -57.669  1.00  0.00     0.068 A 
HETATM   33  C   UNL     1     -43.273  55.849 -57.920  1.00  0.00     0.039 A 
HETATM   34  C   UNL     1     -42.738  55.099 -56.871  1.00  0.00     0.032 A 
BRANCH  32  35
HETATM   35  O   UNL     1     -44.368  57.710 -58.782  1.00  0.00    -0.352 OA
BRANCH  35  36
HETATM   36  C   UNL     1     -45.723  58.156 -58.760  1.00  0.00     0.171 C 
HETATM   37  C   UNL     1     -46.588  57.049 -59.337  1.00  0.00     0.034 C 
ENDBRANCH  35  36
ENDBRANCH  32  35
ENDBRANCH  26  29
ENDBRANCH   1  25
TORSDOF 9
ENDMDL
MODEL 3
REMARK VINA RESULT:      -7.9      2.175      2.781
REMARK  9 active torsions:
REMARK  status: ('A' for Active; 'I' for Inactive)
REMARK    1  A    between atoms: C_2  and  O_3 
REMARK    2  A    between atoms: O_3  and  C_4 
REMARK    3  A    between atoms: C_7  and  N_8 
REMARK       I    between atoms: N_8  and  C_9 
REMARK    4  A    between atoms: C_9  and  C_10 
REMARK    5  A    between atoms: C_11  and  N_12 
REMARK       I    between atoms: N_12  and  C_13 
REMARK    6  A    between atoms: C_13  and  C_14 
REMARK    7  A    between atoms: C_14  and  N_15 
REMARK    8  A    between atoms: N_15  and  C_18 
REMARK    9  A    between atoms: C_18  and  C_19 
ROOT
HETATM    1  C   UNL     1     -44.141  56.714 -57.943  1.00  0.00     0.073 A 
HETATM    2  C   UNL     1     -44.949  57.845 -57.759  1.00  0.00     0.093 A 
HETATM    3  S   UNL     1     -46.203  57.980 -58.915  1.00  0.00    -0.075 SA
HETATM    4  C   UNL     1     -45.673  56.604 -59.689  1.00  0.00    -0.008 A 
HETATM    5  C   UNL     1     -44.577  56.021 -59.115  1.00  0.00    -0.026 A 
HETATM    6  C   UNL     1     -44.165  54.826 -59.909  1.00  0.00     0.041 C 
HETATM    7  C   UNL     1     -44.966  54.999 -61.234  1.00  0.00     0.010 C 
HETATM    8  C   UNL     1     -46.176  55.918 -60.902  1.00  0.00     0.047 C 
ENDROOT
BRANCH   2   9
HETATM    9  N   UNL     1     -44.778  58.804 -56.769  1.00  0.00    -0.319 N 
HETATM   10  C   UNL     1     -45.109  58.693 -55.439  1.00  0.00     0.248 C 
HETATM   11  O   UNL     1     -45.534  57.714 -54.826  1.00  0.00    -0.271 OA
HETATM   12  H   UNL     1     -44.327  59.654 -57.116  1.00  0.00     0.169 HD
BRANCH  10  13
HETATM   13  C   UNL     1     -44.880  59.973 -54.635  1.00  0.00     0.335 C 
BRANCH  13  14
HETATM   14  N   UNL     1     -45.718  59.915 -53.378  1.00  0.00    -0.059 N 
HETATM   15  H   UNL     1     -46.429  60.658 -53.501  1.00  0.00     0.278 HD
HETATM   16  H   UNL     1     -46.279  59.055 -53.396  1.00  0.00     0.278 HD
BRANCH  14  17
HETATM   17  C   UNL     1     -45.055  60.089 -52.052  1.00  0.00     0.215 C 
HETATM   18  C   UNL     1     -46.090  60.517 -51.013  1.00  0.00     0.045 C 
BRANCH  17  19
HETATM   19  C   UNL     1     -44.190  58.899 -51.696  1.00  0.00    -0.028 A 
HETATM   20  C   UNL     1     -42.789  58.961 -51.642  1.00  0.00     0.009 A 
HETATM   21  C   UNL     1     -42.039  57.837 -51.281  1.00  0.00     0.001 A 
HETATM   22  C   UNL     1     -42.675  56.640 -50.968  1.00  0.00     0.000 A 
HETATM   23  C   UNL     1     -44.063  56.559 -51.015  1.00  0.00     0.001 A 
HETATM   24  C   UNL     1     -44.815  57.679 -51.373  1.00  0.00     0.009 A 
ENDBRANCH  17  19
ENDBRANCH  14  17
ENDBRANCH  13  14
ENDBRANCH  10  13
ENDBRANCH   2   9
BRANCH   1  25
HETATM   25  C   UNL     1     -43.045  56.399 -57.007  1.00  0.00     0.259 C 
HETATM   26  N   UNL     1     -43.145  55.166 -56.397  1.00  0.00    -0.323 N 
HETATM   27  H   UNL     1     -43.956  54.613 -56.622  1.00  0.00     0.169 HD
HETATM   28  O   UNL     1     -42.176  57.242 -56.786  1.00  0.00    -0.267 OA
BRANCH  26  29
HETATM   29  C   UNL     1     -42.318  54.616 -55.396  1.00  0.00     0.035 A 
HETATM   30  C   UNL     1     -40.959  54.343 -55.555  1.00  0.00     0.032 A 
HETATM   31  C   UNL     1     -40.202  53.846 -54.484  1.00  0.00     0.039 A 
HETATM   32  C   UNL     1     -40.797  53.621 -53.244  1.00  0.00     0.068 A 
HETATM   33  C   UNL     1     -42.162  53.855 -53.095  1.00  0.00     0.039 A 
HETATM   34  C   UNL     1     -42.917  54.351 -54.159  1.00  0.00     0.032 A 
BRANCH  32  35
HETATM   35  O   UNL     1     -40.166  53.166 -52.121  1.00  0.00    -0.352 OA
BRANCH  35  36
HETATM   36  C   UNL     1     -40.838  53.369 -50.880  1.00  0.00     0.171 C 
HETATM   37  C   UNL     1     -39.916  54.165 -49.974  1.00  0.00     0.034 C 
ENDBRANCH  35  36
ENDBRANCH  32  35
ENDBRANCH  26  29
ENDBRANCH   1  25
TORSDOF 9
ENDMDL
MODEL 4
REMARK VINA RESULT:      -7.8      2.547      6.722
REMARK  9 active torsions:
REMARK  status: ('A' for Active; 'I' for Inactive)
REMARK    1  A    between atoms: C_2  and  O_3 
REMARK    2  A    between atoms: O_3  and  C_4 
REMARK    3  A    between atoms: C_7  and  N_8 
REMARK       I    between atoms: N_8  and  C_9 
REMARK    4  A    between atoms: C_9  and  C_10 
REMARK    5  A    between atoms: C_11  and  N_12 
REMARK       I    between atoms: N_12  and  C_13 
REMARK    6  A    between atoms: C_13  and  C_14 
REMARK    7  A    between atoms: C_14  and  N_15 
REMARK    8  A    between atoms: N_15  and  C_18 
REMARK    9  A    between atoms: C_18  and  C_19 
ROOT
HETATM    1  C   UNL     1     -41.791  54.071 -53.385  1.00  0.00     0.073 A 
HETATM    2  C   UNL     1     -41.803  54.642 -52.104  1.00  0.00     0.093 A 
HETATM    3  S   UNL     1     -40.719  53.892 -51.015  1.00  0.00    -0.075 SA
HETATM    4  C   UNL     1     -40.268  52.792 -52.181  1.00  0.00    -0.008 A 
HETATM    5  C   UNL     1     -40.897  52.957 -53.385  1.00  0.00    -0.026 A 
HETATM    6  C   UNL     1     -40.451  51.899 -54.338  1.00  0.00     0.041 C 
HETATM    7  C   UNL     1     -39.734  50.875 -53.407  1.00  0.00     0.010 C 
HETATM    8  C   UNL     1     -39.317  51.657 -52.129  1.00  0.00     0.047 C 
ENDROOT
BRANCH   2   9
HETATM    9  N   UNL     1     -42.613  55.697 -51.701  1.00  0.00    -0.319 N 
HETATM   10  C   UNL     1     -43.755  55.623 -50.939  1.00  0.00     0.248 C 
HETATM   11  O   UNL     1     -44.253  54.645 -50.383  1.00  0.00    -0.271 OA
HETATM   12  H   UNL     1     -42.258  56.607 -52.008  1.00  0.00     0.169 HD
BRANCH  10  13
HETATM   13  C   UNL     1     -44.466  56.965 -50.759  1.00  0.00     0.335 C 
BRANCH  13  14
HETATM   14  N   UNL     1     -44.266  57.794 -52.008  1.00  0.00    -0.059 N 
HETATM   15  H   UNL     1     -43.630  57.229 -52.599  1.00  0.00     0.278 HD
HETATM   16  H   UNL     1     -45.141  57.794 -52.546  1.00  0.00     0.278 HD
BRANCH  14  17
HETATM   17  C   UNL     1     -43.718  59.176 -51.883  1.00  0.00     0.215 C 
HETATM   18  C   UNL     1     -44.506  59.947 -50.825  1.00  0.00     0.045 C 
BRANCH  17  19
HETATM   19  C   UNL     1     -42.211  59.171 -51.735  1.00  0.00    -0.028 A 
HETATM   20  C   UNL     1     -41.342  58.821 -52.780  1.00  0.00     0.009 A 
HETATM   21  C   UNL     1     -39.956  58.859 -52.597  1.00  0.00     0.001 A 
HETATM   22  C   UNL     1     -39.420  59.247 -51.374  1.00  0.00     0.000 A 
HETATM   23  C   UNL     1     -40.266  59.600 -50.326  1.00  0.00     0.001 A 
HETATM   24  C   UNL     1     -41.649  59.565 -50.506  1.00  0.00     0.009 A 
ENDBRANCH  17  19
ENDBRANCH  14  17
ENDBRANCH  13  14
ENDBRANCH  10  13
ENDBRANCH   2   9
BRANCH   1  25
HETATM   25  C   UNL     1     -42.619  54.625 -54.475  1.00  0.00     0.259 C 
HETATM   26  N   UNL     1     -41.920  55.351 -55.416  1.00  0.00    -0.323 N 
HETATM   27  H   UNL     1     -40.929  55.458 -55.263  1.00  0.00     0.169 HD
HETATM   28  O   UNL     1     -43.838  54.466 -54.449  1.00  0.00    -0.267 OA
BRANCH  26  29
HETATM   29  C   UNL     1     -42.427  56.076 -56.514  1.00  0.00     0.035 A 
HETATM   30  C   UNL     1     -42.987  55.497 -57.652  1.00  0.00     0.032 A 
HETATM   31  C   UNL     1     -43.518  56.300 -58.673  1.00  0.00     0.039 A 
HETATM   32  C   UNL     1     -43.493  57.689 -58.562  1.00  0.00     0.068 A 
HETATM   33  C   UNL     1     -42.897  58.270 -57.445  1.00  0.00     0.039 A 
HETATM   34  C   UNL     1     -42.371  57.472 -56.427  1.00  0.00     0.032 A 
BRANCH  32  35
HETATM   35  O   UNL     1     -43.996  58.576 -59.471  1.00  0.00    -0.352 OA
BRANCH  35  36
HETATM   36  C   UNL     1     -43.291  59.806 -59.626  1.00  0.00     0.171 C 
HETATM   37  C   UNL     1     -42.349  59.659 -60.807  1.00  0.00     0.034 C 
ENDBRANCH  35  36
ENDBRANCH  32  35
ENDBRANCH  26  29
ENDBRANCH   1  25
TORSDOF 9
ENDMDL
MODEL 5
REMARK VINA RESULT:      -7.8      2.686      6.727
REMARK  9 active torsions:
REMARK  status: ('A' for Active; 'I' for Inactive)
REMARK    1  A    between atoms: C_2  and  O_3 
REMARK    2  A    between atoms: O_3  and  C_4 
REMARK    3  A    between atoms: C_7  and  N_8 
REMARK       I    between atoms: N_8  and  C_9 
REMARK    4  A    between atoms: C_9  and  C_10 
REMARK    5  A    between atoms: C_11  and  N_12 
REMARK       I    between atoms: N_12  and  C_13 
REMARK    6  A    between atoms: C_13  and  C_14 
REMARK    7  A    between atoms: C_14  and  N_15 
REMARK    8  A    between atoms: N_15  and  C_18 
REMARK    9  A    between atoms: C_18  and  C_19 
ROOT
HETATM    1  C   UNL     1     -42.619  60.373 -52.663  1.00  0.00     0.073 A 
HETATM    2  C   UNL     1     -42.754  59.819 -51.382  1.00  0.00     0.093 A 
HETATM    3  S   UNL     1     -43.414  60.905 -50.237  1.00  0.00    -0.075 SA
HETATM    4  C   UNL     1     -43.478  62.113 -51.382  1.00  0.00    -0.008 A 
HETATM    5  C   UNL     1     -43.024  61.743 -52.619  1.00  0.00    -0.026 A 
HETATM    6  C   UNL     1     -43.088  62.906 -53.551  1.00  0.00     0.041 C 
HETATM    7  C   UNL     1     -43.313  64.110 -52.586  1.00  0.00     0.010 C 
HETATM    8  C   UNL     1     -43.924  63.522 -51.283  1.00  0.00     0.047 C 
ENDROOT
BRANCH   2   9
HETATM    9  N   UNL     1     -42.383  58.530 -51.019  1.00  0.00    -0.319 N 
HETATM   10  C   UNL     1     -41.125  58.092 -50.681  1.00  0.00     0.248 C 
HETATM   11  O   UNL     1     -40.090  58.743 -50.539  1.00  0.00    -0.271 OA
HETATM   12  H   UNL     1     -43.177  57.884 -50.990  1.00  0.00     0.169 HD
BRANCH  10  13
HETATM   13  C   UNL     1     -41.040  56.586 -50.430  1.00  0.00     0.335 C 
BRANCH  13  14
HETATM   14  N   UNL     1     -41.226  55.862 -51.744  1.00  0.00    -0.059 N 
HETATM   15  H   UNL     1     -41.765  56.522 -52.334  1.00  0.00     0.278 HD
HETATM   16  H   UNL     1     -40.320  55.812 -52.224  1.00  0.00     0.278 HD
BRANCH  14  17
HETATM   17  C   UNL     1     -41.906  54.533 -51.753  1.00  0.00     0.215 C 
HETATM   18  C   UNL     1     -43.311  54.680 -52.335  1.00  0.00     0.045 C 
BRANCH  17  19
HETATM   19  C   UNL     1     -41.030  53.459 -52.361  1.00  0.00    -0.028 A 
HETATM   20  C   UNL     1     -40.181  52.641 -51.598  1.00  0.00     0.009 A 
HETATM   21  C   UNL     1     -39.413  51.645 -52.208  1.00  0.00     0.001 A 
HETATM   22  C   UNL     1     -39.482  51.450 -53.583  1.00  0.00     0.000 A 
HETATM   23  C   UNL     1     -40.318  52.249 -54.357  1.00  0.00     0.001 A 
HETATM   24  C   UNL     1     -41.088  53.242 -53.751  1.00  0.00     0.009 A 
ENDBRANCH  17  19
ENDBRANCH  14  17
ENDBRANCH  13  14
ENDBRANCH  10  13
ENDBRANCH   2   9
BRANCH   1  25
HETATM   25  C   UNL     1     -42.123  59.565 -53.795  1.00  0.00     0.259 C 
HETATM   26  N   UNL     1     -43.109  58.956 -54.542  1.00  0.00    -0.323 N 
HETATM   27  H   UNL     1     -44.059  59.093 -54.238  1.00  0.00     0.169 HD
HETATM   28  O   UNL     1     -40.911  59.438 -53.962  1.00  0.00    -0.267 OA
BRANCH  26  29
HETATM   29  C   UNL     1     -42.959  58.056 -55.617  1.00  0.00     0.035 A 
HETATM   30  C   UNL     1     -42.837  56.673 -55.480  1.00  0.00     0.032 A 
HETATM   31  C   UNL     1     -42.749  55.849 -56.612  1.00  0.00     0.039 A 
HETATM   32  C   UNL     1     -42.782  56.402 -57.891  1.00  0.00     0.068 A 
HETATM   33  C   UNL     1     -42.863  57.785 -58.030  1.00  0.00     0.039 A 
HETATM   34  C   UNL     1     -42.954  58.607 -56.904  1.00  0.00     0.032 A 
BRANCH  32  35
HETATM   35  O   UNL     1     -42.730  55.709 -59.067  1.00  0.00    -0.352 OA
BRANCH  35  36
HETATM   36  C   UNL     1     -43.896  55.747 -59.888  1.00  0.00     0.171 C 
HETATM   37  C   UNL     1     -44.597  54.406 -59.766  1.00  0.00     0.034 C 
ENDBRANCH  35  36
ENDBRANCH  32  35
ENDBRANCH  26  29
ENDBRANCH   1  25
TORSDOF 9
ENDMDL
MODEL 6
REMARK VINA RESULT:      -7.7      1.873      2.739
REMARK  9 active torsions:
REMARK  status: ('A' for Active; 'I' for Inactive)
REMARK    1  A    between atoms: C_2  and  O_3 
REMARK    2  A    between atoms: O_3  and  C_4 
REMARK    3  A    between atoms: C_7  and  N_8 
REMARK       I    between atoms: N_8  and  C_9 
REMARK    4  A    between atoms: C_9  and  C_10 
REMARK    5  A    between atoms: C_11  and  N_12 
REMARK       I    between atoms: N_12  and  C_13 
REMARK    6  A    between atoms: C_13  and  C_14 
REMARK    7  A    between atoms: C_14  and  N_15 
REMARK    8  A    between atoms: N_15  and  C_18 
REMARK    9  A    between atoms: C_18  and  C_19 
ROOT
HETATM    1  C   UNL     1     -43.862  56.880 -57.918  1.00  0.00     0.073 A 
HETATM    2  C   UNL     1     -44.412  58.170 -57.944  1.00  0.00     0.093 A 
HETATM    3  S   UNL     1     -45.624  58.369 -59.134  1.00  0.00    -0.075 SA
HETATM    4  C   UNL     1     -45.405  56.803 -59.656  1.00  0.00    -0.008 A 
HETATM    5  C   UNL     1     -44.448  56.107 -58.968  1.00  0.00    -0.026 A 
HETATM    6  C   UNL     1     -44.307  54.737 -59.542  1.00  0.00     0.041 C 
HETATM    7  C   UNL     1     -45.072  54.849 -60.896  1.00  0.00     0.010 C 
HETATM    8  C   UNL     1     -46.057  56.044 -60.749  1.00  0.00     0.047 C 
ENDROOT
BRANCH   2   9
HETATM    9  N   UNL     1     -44.030  59.224 -57.123  1.00  0.00    -0.319 N 
HETATM   10  C   UNL     1     -43.204  60.273 -57.449  1.00  0.00     0.248 C 
HETATM   11  O   UNL     1     -42.704  60.556 -58.538  1.00  0.00    -0.271 OA
HETATM   12  H   UNL     1     -44.461  59.180 -56.196  1.00  0.00     0.169 HD
BRANCH  10  13
HETATM   13  C   UNL     1     -42.905  61.213 -56.280  1.00  0.00     0.335 C 
BRANCH  13  14
HETATM   14  N   UNL     1     -42.169  60.439 -55.210  1.00  0.00    -0.059 N 
HETATM   15  H   UNL     1     -42.372  59.444 -55.419  1.00  0.00     0.278 HD
HETATM   16  H   UNL     1     -41.160  60.510 -55.387  1.00  0.00     0.278 HD
BRANCH  14  17
HETATM   17  C   UNL     1     -42.478  60.709 -53.775  1.00  0.00     0.215 C 
HETATM   18  C   UNL     1     -43.964  61.034 -53.623  1.00  0.00     0.045 C 
BRANCH  17  19
HETATM   19  C   UNL     1     -41.926  59.629 -52.869  1.00  0.00    -0.028 A 
HETATM   20  C   UNL     1     -41.682  59.830 -51.501  1.00  0.00     0.009 A 
HETATM   21  C   UNL     1     -41.197  58.789 -50.704  1.00  0.00     0.001 A 
HETATM   22  C   UNL     1     -40.950  57.537 -51.257  1.00  0.00     0.000 A 
HETATM   23  C   UNL     1     -41.188  57.318 -52.611  1.00  0.00     0.001 A 
HETATM   24  C   UNL     1     -41.674  58.353 -53.409  1.00  0.00     0.009 A 
ENDBRANCH  17  19
ENDBRANCH  14  17
ENDBRANCH  13  14
ENDBRANCH  10  13
ENDBRANCH   2   9
BRANCH   1  25
HETATM   25  C   UNL     1     -42.844  56.504 -56.918  1.00  0.00     0.259 C 
HETATM   26  N   UNL     1     -43.030  55.264 -56.345  1.00  0.00    -0.323 N 
HETATM   27  H   UNL     1     -43.844  54.746 -56.638  1.00  0.00     0.169 HD
HETATM   28  O   UNL     1     -41.962  57.309 -56.619  1.00  0.00    -0.267 OA
BRANCH  26  29
HETATM   29  C   UNL     1     -42.294  54.662 -55.304  1.00  0.00     0.035 A 
HETATM   30  C   UNL     1     -40.941  54.334 -55.380  1.00  0.00     0.032 A 
HETATM   31  C   UNL     1     -40.276  53.787 -54.272  1.00  0.00     0.039 A 
HETATM   32  C   UNL     1     -40.960  53.566 -53.079  1.00  0.00     0.068 A 
HETATM   33  C   UNL     1     -42.321  53.854 -53.014  1.00  0.00     0.039 A 
HETATM   34  C   UNL     1     -42.984  54.401 -54.114  1.00  0.00     0.032 A 
BRANCH  32  35
HETATM   35  O   UNL     1     -40.424  53.065 -51.927  1.00  0.00    -0.352 OA
BRANCH  35  36
HETATM   36  C   UNL     1     -39.692  51.845 -52.037  1.00  0.00     0.171 C 
HETATM   37  C   UNL     1     -39.955  51.028 -50.785  1.00  0.00     0.034 C 
ENDBRANCH  35  36
ENDBRANCH  32  35
ENDBRANCH  26  29
ENDBRANCH   1  25
TORSDOF 9
ENDMDL
MODEL 7
REMARK VINA RESULT:      -7.5      2.488      6.759
REMARK  9 active torsions:
REMARK  status: ('A' for Active; 'I' for Inactive)
REMARK    1  A    between atoms: C_2  and  O_3 
REMARK    2  A    between atoms: O_3  and  C_4 
REMARK    3  A    between atoms: C_7  and  N_8 
REMARK       I    between atoms: N_8  and  C_9 
REMARK    4  A    between atoms: C_9  and  C_10 
REMARK    5  A    between atoms: C_11  and  N_12 
REMARK       I    between atoms: N_12  and  C_13 
REMARK    6  A    between atoms: C_13  and  C_14 
REMARK    7  A    between atoms: C_14  and  N_15 
REMARK    8  A    between atoms: N_15  and  C_18 
REMARK    9  A    between atoms: C_18  and  C_19 
ROOT
HETATM    1  C   UNL     1     -43.721  59.378 -53.671  1.00  0.00     0.073 A 
HETATM    2  C   UNL     1     -43.372  58.931 -52.389  1.00  0.00     0.093 A 
HETATM    3  S   UNL     1     -43.105  60.201 -51.276  1.00  0.00    -0.075 SA
HETATM    4  C   UNL     1     -43.390  61.335 -52.462  1.00  0.00    -0.008 A 
HETATM    5  C   UNL     1     -43.689  60.807 -53.688  1.00  0.00    -0.026 A 
HETATM    6  C   UNL     1     -43.884  61.904 -54.679  1.00  0.00     0.041 C 
HETATM    7  C   UNL     1     -43.307  63.147 -53.936  1.00  0.00     0.010 C 
HETATM    8  C   UNL     1     -43.356  62.816 -52.418  1.00  0.00     0.047 C 
ENDROOT
BRANCH   2   9
HETATM    9  N   UNL     1     -43.219  57.602 -52.014  1.00  0.00    -0.319 N 
HETATM   10  C   UNL     1     -44.053  56.866 -51.204  1.00  0.00     0.248 C 
HETATM   11  O   UNL     1     -45.138  57.184 -50.718  1.00  0.00    -0.271 OA
HETATM   12  H   UNL     1     -42.397  57.163 -52.437  1.00  0.00     0.169 HD
BRANCH  10  13
HETATM   13  C   UNL     1     -43.542  55.456 -50.908  1.00  0.00     0.335 C 
BRANCH  13  14
HETATM   14  N   UNL     1     -42.508  55.085 -51.947  1.00  0.00    -0.059 N 
HETATM   15  H   UNL     1     -42.929  54.293 -52.466  1.00  0.00     0.278 HD
HETATM   16  H   UNL     1     -42.470  55.829 -52.654  1.00  0.00     0.278 HD
BRANCH  14  17
HETATM   17  C   UNL     1     -41.135  54.703 -51.503  1.00  0.00     0.215 C 
HETATM   18  C   UNL     1     -41.090  54.635 -49.978  1.00  0.00     0.045 C 
BRANCH  17  19
HETATM   19  C   UNL     1     -40.621  53.490 -52.250  1.00  0.00    -0.028 A 
HETATM   20  C   UNL     1     -40.819  53.300 -53.627  1.00  0.00     0.009 A 
HETATM   21  C   UNL     1     -40.300  52.174 -54.273  1.00  0.00     0.001 A 
HETATM   22  C   UNL     1     -39.576  51.226 -53.557  1.00  0.00     0.000 A 
HETATM   23  C   UNL     1     -39.368  51.398 -52.192  1.00  0.00     0.001 A 
HETATM   24  C   UNL     1     -39.883  52.521 -51.544  1.00  0.00     0.009 A 
ENDBRANCH  17  19
ENDBRANCH  14  17
ENDBRANCH  13  14
ENDBRANCH  10  13
ENDBRANCH   2   9
BRANCH   1  25
HETATM   25  C   UNL     1     -44.048  58.423 -54.750  1.00  0.00     0.259 C 
HETATM   26  N   UNL     1     -43.209  58.481 -55.843  1.00  0.00    -0.323 N 
HETATM   27  H   UNL     1     -42.479  59.175 -55.818  1.00  0.00     0.169 HD
HETATM   28  O   UNL     1     -45.042  57.706 -54.643  1.00  0.00    -0.267 OA
BRANCH  26  29
HETATM   29  C   UNL     1     -43.309  57.775 -57.059  1.00  0.00     0.035 A 
HETATM   30  C   UNL     1     -43.094  56.403 -57.197  1.00  0.00     0.032 A 
HETATM   31  C   UNL     1     -43.270  55.775 -58.439  1.00  0.00     0.039 A 
HETATM   32  C   UNL     1     -43.664  56.514 -59.553  1.00  0.00     0.068 A 
HETATM   33  C   UNL     1     -43.839  57.890 -59.427  1.00  0.00     0.039 A 
HETATM   34  C   UNL     1     -43.667  58.517 -58.191  1.00  0.00     0.032 A 
BRANCH  32  35
HETATM   35  O   UNL     1     -43.892  56.018 -60.805  1.00  0.00    -0.352 OA
BRANCH  35  36
HETATM   36  C   UNL     1     -44.975  55.100 -60.945  1.00  0.00     0.171 C 
HETATM   37  C   UNL     1     -46.269  55.875 -60.779  1.00  0.00     0.034 C 
ENDBRANCH  35  36
ENDBRANCH  32  35
ENDBRANCH  26  29
ENDBRANCH   1  25
TORSDOF 9
ENDMDL
MODEL 8
REMARK VINA RESULT:      -7.5      2.720      7.011
REMARK  9 active torsions:
REMARK  status: ('A' for Active; 'I' for Inactive)
REMARK    1  A    between atoms: C_2  and  O_3 
REMARK    2  A    between atoms: O_3  and  C_4 
REMARK    3  A    between atoms: C_7  and  N_8 
REMARK       I    between atoms: N_8  and  C_9 
REMARK    4  A    between atoms: C_9  and  C_10 
REMARK    5  A    between atoms: C_11  and  N_12 
REMARK       I    between atoms: N_12  and  C_13 
REMARK    6  A    between atoms: C_13  and  C_14 
REMARK    7  A    between atoms: C_14  and  N_15 
REMARK    8  A    between atoms: N_15  and  C_18 
REMARK    9  A    between atoms: C_18  and  C_19 
ROOT
HETATM    1  C   UNL     1     -40.718  53.718 -53.083  1.00  0.00     0.073 A 
HETATM    2  C   UNL     1     -41.139  54.090 -51.799  1.00  0.00     0.093 A 
HETATM    3  S   UNL     1     -40.766  52.930 -50.598  1.00  0.00    -0.075 SA
HETATM    4  C   UNL     1     -40.104  51.919 -51.744  1.00  0.00    -0.008 A 
HETATM    5  C   UNL     1     -40.140  52.412 -53.020  1.00  0.00    -0.026 A 
HETATM    6  C   UNL     1     -39.562  51.414 -53.965  1.00  0.00     0.041 C 
HETATM    7  C   UNL     1     -39.505  50.115 -53.104  1.00  0.00     0.010 C 
HETATM    8  C   UNL     1     -39.502  50.571 -51.618  1.00  0.00     0.047 C 
ENDROOT
BRANCH   2   9
HETATM    9  N   UNL     1     -41.818  55.260 -51.481  1.00  0.00    -0.319 N 
HETATM   10  C   UNL     1     -43.117  55.375 -51.046  1.00  0.00     0.248 C 
HETATM   11  O   UNL     1     -43.919  54.487 -50.759  1.00  0.00    -0.271 OA
HETATM   12  H   UNL     1     -41.232  56.094 -51.572  1.00  0.00     0.169 HD
BRANCH  10  13
HETATM   13  C   UNL     1     -43.589  56.821 -50.882  1.00  0.00     0.335 C 
BRANCH  13  14
HETATM   14  N   UNL     1     -44.476  57.179 -52.053  1.00  0.00    -0.059 N 
HETATM   15  H   UNL     1     -43.871  57.059 -52.886  1.00  0.00     0.278 HD
HETATM   16  H   UNL     1     -45.179  56.440 -52.172  1.00  0.00     0.278 HD
BRANCH  14  17
HETATM   17  C   UNL     1     -45.109  58.529 -52.099  1.00  0.00     0.215 C 
HETATM   18  C   UNL     1     -45.311  59.049 -50.677  1.00  0.00     0.045 C 
BRANCH  17  19
HETATM   19  C   UNL     1     -44.394  59.452 -53.062  1.00  0.00    -0.028 A 
HETATM   20  C   UNL     1     -43.017  59.718 -52.986  1.00  0.00     0.009 A 
HETATM   21  C   UNL     1     -42.401  60.558 -53.918  1.00  0.00     0.001 A 
HETATM   22  C   UNL     1     -43.146  61.142 -54.937  1.00  0.00     0.000 A 
HETATM   23  C   UNL     1     -44.512  60.890 -55.030  1.00  0.00     0.001 A 
HETATM   24  C   UNL     1     -45.130  60.050 -54.103  1.00  0.00     0.009 A 
ENDBRANCH  17  19
ENDBRANCH  14  17
ENDBRANCH  13  14
ENDBRANCH  10  13
ENDBRANCH   2   9
BRANCH   1  25
HETATM   25  C   UNL     1     -40.900  54.620 -54.237  1.00  0.00     0.259 C 
HETATM   26  N   UNL     1     -42.214  54.919 -54.532  1.00  0.00    -0.323 N 
HETATM   27  H   UNL     1     -42.918  54.482 -53.960  1.00  0.00     0.169 HD
HETATM   28  O   UNL     1     -39.917  54.988 -54.879  1.00  0.00    -0.267 OA
BRANCH  26  29
HETATM   29  C   UNL     1     -42.718  55.668 -55.615  1.00  0.00     0.035 A 
HETATM   30  C   UNL     1     -43.066  57.017 -55.550  1.00  0.00     0.032 A 
HETATM   31  C   UNL     1     -43.508  57.696 -56.696  1.00  0.00     0.039 A 
HETATM   32  C   UNL     1     -43.604  57.030 -57.916  1.00  0.00     0.068 A 
HETATM   33  C   UNL     1     -43.296  55.673 -57.975  1.00  0.00     0.039 A 
HETATM   34  C   UNL     1     -42.853  54.997 -56.836  1.00  0.00     0.032 A 
BRANCH  32  35
HETATM   35  O   UNL     1     -43.994  57.582 -59.103  1.00  0.00    -0.352 OA
BRANCH  35  36
HETATM   36  C   UNL     1     -43.233  57.230 -60.257  1.00  0.00     0.171 C 
HETATM   37  C   UNL     1     -42.035  58.160 -60.327  1.00  0.00     0.034 C 
ENDBRANCH  35  36
ENDBRANCH  32  35
ENDBRANCH  26  29
ENDBRANCH   1  25
TORSDOF 9
ENDMDL
MODEL 9
REMARK VINA RESULT:      -7.3      2.604      6.179
REMARK  9 active torsions:
REMARK  status: ('A' for Active; 'I' for Inactive)
REMARK    1  A    between atoms: C_2  and  O_3 
REMARK    2  A    between atoms: O_3  and  C_4 
REMARK    3  A    between atoms: C_7  and  N_8 
REMARK       I    between atoms: N_8  and  C_9 
REMARK    4  A    between atoms: C_9  and  C_10 
REMARK    5  A    between atoms: C_11  and  N_12 
REMARK       I    between atoms: N_12  and  C_13 
REMARK    6  A    between atoms: C_13  and  C_14 
REMARK    7  A    between atoms: C_14  and  N_15 
REMARK    8  A    between atoms: N_15  and  C_18 
REMARK    9  A    between atoms: C_18  and  C_19 
ROOT
HETATM    1  C   UNL     1     -43.847  57.610 -56.739  1.00  0.00     0.073 A 
HETATM    2  C   UNL     1     -42.908  56.629 -57.088  1.00  0.00     0.093 A 
HETATM    3  S   UNL     1     -43.154  55.978 -58.650  1.00  0.00    -0.075 SA
HETATM    4  C   UNL     1     -44.508  56.926 -58.860  1.00  0.00    -0.008 A 
HETATM    5  C   UNL     1     -44.799  57.736 -57.797  1.00  0.00    -0.026 A 
HETATM    6  C   UNL     1     -46.046  58.507 -58.074  1.00  0.00     0.041 C 
HETATM    7  C   UNL     1     -46.641  57.768 -59.312  1.00  0.00     0.010 C 
HETATM    8  C   UNL     1     -45.457  57.025 -59.993  1.00  0.00     0.047 C 
ENDROOT
BRANCH   2   9
HETATM    9  N   UNL     1     -41.877  56.176 -56.275  1.00  0.00    -0.319 N 
HETATM   10  C   UNL     1     -41.870  55.045 -55.494  1.00  0.00     0.248 C 
HETATM   11  O   UNL     1     -42.716  54.155 -55.412  1.00  0.00    -0.271 OA
HETATM   12  H   UNL     1     -41.046  56.772 -56.322  1.00  0.00     0.169 HD
BRANCH  10  13
HETATM   13  C   UNL     1     -40.610  54.889 -54.641  1.00  0.00     0.335 C 
BRANCH  13  14
HETATM   14  N   UNL     1     -40.149  53.451 -54.713  1.00  0.00    -0.059 N 
HETATM   15  H   UNL     1     -40.445  53.126 -55.651  1.00  0.00     0.278 HD
HETATM   16  H   UNL     1     -39.124  53.437 -54.778  1.00  0.00     0.278 HD
BRANCH  14  17
HETATM   17  C   UNL     1     -40.630  52.480 -53.686  1.00  0.00     0.215 C 
HETATM   18  C   UNL     1     -39.776  51.214 -53.739  1.00  0.00     0.045 C 
BRANCH  17  19
HETATM   19  C   UNL     1     -40.790  53.132 -52.329  1.00  0.00    -0.028 A 
HETATM   20  C   UNL     1     -39.747  53.216 -51.394  1.00  0.00     0.009 A 
HETATM   21  C   UNL     1     -39.942  53.854 -50.164  1.00  0.00     0.001 A 
HETATM   22  C   UNL     1     -41.176  54.415 -49.853  1.00  0.00     0.000 A 
HETATM   23  C   UNL     1     -42.222  54.344 -50.769  1.00  0.00     0.001 A 
HETATM   24  C   UNL     1     -42.030  53.711 -51.997  1.00  0.00     0.009 A 
ENDBRANCH  17  19
ENDBRANCH  14  17
ENDBRANCH  13  14
ENDBRANCH  10  13
ENDBRANCH   2   9
BRANCH   1  25
HETATM   25  C   UNL     1     -43.758  58.328 -55.452  1.00  0.00     0.259 C 
HETATM   26  N   UNL     1     -44.861  58.188 -54.637  1.00  0.00    -0.323 N 
HETATM   27  H   UNL     1     -45.626  57.640 -54.999  1.00  0.00     0.169 HD
HETATM   28  O   UNL     1     -42.774  59.029 -55.217  1.00  0.00    -0.267 OA
BRANCH  26  29
HETATM   29  C   UNL     1     -45.120  58.815 -53.402  1.00  0.00     0.035 A 
HETATM   30  C   UNL     1     -45.667  60.091 -53.261  1.00  0.00     0.032 A 
HETATM   31  C   UNL     1     -45.942  60.613 -51.988  1.00  0.00     0.039 A 
HETATM   32  C   UNL     1     -45.673  59.862 -50.845  1.00  0.00     0.068 A 
HETATM   33  C   UNL     1     -45.090  58.605 -50.982  1.00  0.00     0.039 A 
HETATM   34  C   UNL     1     -44.818  58.082 -52.248  1.00  0.00     0.032 A 
BRANCH  32  35
HETATM   35  O   UNL     1     -45.917  60.245 -49.557  1.00  0.00    -0.352 OA
BRANCH  35  36
HETATM   36  C   UNL     1     -44.937  61.078 -48.939  1.00  0.00     0.171 C 
HETATM   37  C   UNL     1     -45.207  61.085 -47.445  1.00  0.00     0.034 C 
ENDBRANCH  35  36
ENDBRANCH  32  35
ENDBRANCH  26  29
ENDBRANCH   1  25
TORSDOF 9
ENDMDL
MODEL 10
REMARK VINA RESULT:      -7.3      2.370      6.718
REMARK  9 active torsions:
REMARK  status: ('A' for Active; 'I' for Inactive)
REMARK    1  A    between atoms: C_2  and  O_3 
REMARK    2  A    between atoms: O_3  and  C_4 
REMARK    3  A    between atoms: C_7  and  N_8 
REMARK       I    between atoms: N_8  and  C_9 
REMARK    4  A    between atoms: C_9  and  C_10 
REMARK    5  A    between atoms: C_11  and  N_12 
REMARK       I    between atoms: N_12  and  C_13 
REMARK    6  A    between atoms: C_13  and  C_14 
REMARK    7  A    between atoms: C_14  and  N_15 
REMARK    8  A    between atoms: N_15  and  C_18 
REMARK    9  A    between atoms: C_18  and  C_19 
ROOT
HETATM    1  C   UNL     1     -42.276  59.651 -53.935  1.00  0.00     0.073 A 
HETATM    2  C   UNL     1     -41.664  58.746 -53.058  1.00  0.00     0.093 A 
HETATM    3  S   UNL     1     -41.746  59.226 -51.418  1.00  0.00    -0.075 SA
HETATM    4  C   UNL     1     -42.528  60.633 -51.843  1.00  0.00    -0.008 A 
HETATM    5  C   UNL     1     -42.747  60.774 -53.186  1.00  0.00    -0.026 A 
HETATM    6  C   UNL     1     -43.413  62.081 -53.457  1.00  0.00     0.041 C 
HETATM    7  C   UNL     1     -43.234  62.846 -52.110  1.00  0.00     0.010 C 
HETATM    8  C   UNL     1     -43.009  61.765 -51.015  1.00  0.00     0.047 C 
ENDROOT
BRANCH   2   9
HETATM    9  N   UNL     1     -41.019  57.573 -53.432  1.00  0.00    -0.319 N 
HETATM   10  C   UNL     1     -41.604  56.372 -53.761  1.00  0.00     0.248 C 
HETATM   11  O   UNL     1     -42.798  56.100 -53.884  1.00  0.00    -0.271 OA
HETATM   12  H   UNL     1     -40.002  57.678 -53.478  1.00  0.00     0.169 HD
BRANCH  10  13
HETATM   13  C   UNL     1     -40.601  55.249 -54.030  1.00  0.00     0.335 C 
BRANCH  13  14
HETATM   14  N   UNL     1     -41.344  53.932 -54.064  1.00  0.00    -0.059 N 
HETATM   15  H   UNL     1     -42.344  54.193 -53.984  1.00  0.00     0.278 HD
HETATM   16  H   UNL     1     -41.283  53.544 -55.013  1.00  0.00     0.278 HD
BRANCH  14  17
HETATM   17  C   UNL     1     -41.027  52.892 -53.042  1.00  0.00     0.215 C 
HETATM   18  C   UNL     1     -39.815  52.080 -53.496  1.00  0.00     0.045 C 
BRANCH  17  19
HETATM   19  C   UNL     1     -40.966  53.476 -51.647  1.00  0.00    -0.028 A 
HETATM   20  C   UNL     1     -39.777  53.561 -50.905  1.00  0.00     0.009 A 
HETATM   21  C   UNL     1     -39.772  54.135 -49.630  1.00  0.00     0.001 A 
HETATM   22  C   UNL     1     -40.948  54.632 -49.080  1.00  0.00     0.000 A 
HETATM   23  C   UNL     1     -42.137  54.559 -49.800  1.00  0.00     0.001 A 
HETATM   24  C   UNL     1     -42.146  53.989 -51.074  1.00  0.00     0.009 A 
ENDBRANCH  17  19
ENDBRANCH  14  17
ENDBRANCH  13  14
ENDBRANCH  10  13
ENDBRANCH   2   9
BRANCH   1  25
HETATM   25  C   UNL     1     -42.356  59.375 -55.383  1.00  0.00     0.259 C 
HETATM   26  N   UNL     1     -43.309  58.445 -55.740  1.00  0.00    -0.323 N 
HETATM   27  H   UNL     1     -43.837  58.026 -54.991  1.00  0.00     0.169 HD
HETATM   28  O   UNL     1     -41.561  59.920 -56.148  1.00  0.00    -0.267 OA
BRANCH  26  29
HETATM   29  C   UNL     1     -43.567  57.903 -57.015  1.00  0.00     0.035 A 
HETATM   30  C   UNL     1     -44.562  58.358 -57.881  1.00  0.00     0.032 A 
HETATM   31  C   UNL     1     -44.710  57.793 -59.157  1.00  0.00     0.039 A 
HETATM   32  C   UNL     1     -43.864  56.769 -59.577  1.00  0.00     0.068 A 
HETATM   33  C   UNL     1     -42.897  56.285 -58.699  1.00  0.00     0.039 A 
HETATM   34  C   UNL     1     -42.746  56.848 -57.430  1.00  0.00     0.032 A 
BRANCH  32  35
HETATM   35  O   UNL     1     -43.889  56.156 -60.798  1.00  0.00    -0.352 OA
BRANCH  35  36
HETATM   36  C   UNL     1     -45.002  55.304 -61.065  1.00  0.00     0.171 C 
HETATM   37  C   UNL     1     -45.029  54.223 -60.000  1.00  0.00     0.034 C 
ENDBRANCH  35  36
ENDBRANCH  32  35
ENDBRANCH  26  29
ENDBRANCH   1  25
TORSDOF 9
ENDMDL
