MODEL 1
REMARK VINA RESULT:      -8.2      0.000      0.000
REMARK  8 active torsions:
REMARK  status: ('A' for Active; 'I' for Inactive)
REMARK    1  A    between atoms: O_2  and  C_3 
REMARK    2  A    between atoms: C_4  and  N_5 
REMARK    3  A    between atoms: N_5  and  C_6 
REMARK    4  A    between atoms: C_6  and  N_7 
REMARK    5  A    between atoms: N_7  and  N_8 
REMARK       I    between atoms: N_8  and  C_9 
REMARK    6  A    between atoms: C_9  and  C_10 
REMARK    7  A    between atoms: N_13  and  C_15 
REMARK    8  A    between atoms: C_15  and  C_16 
ROOT
HETATM    1  N   UNL     1     -44.218  55.923 -53.357  1.00  0.00    -0.268 N 
HETATM    2  C   UNL     1     -43.792  56.662 -52.274  1.00  0.00     0.240 C 
HETATM    3  O   UNL     1     -43.612  57.876 -52.327  1.00  0.00    -0.271 OA
HETATM    4  H   UNL     1     -44.619  54.993 -53.284  1.00  0.00     0.190 HD
ENDROOT
BRANCH   1   5
HETATM    5  N   UNL     1     -44.440  56.599 -54.580  1.00  0.00    -0.274 N 
HETATM    6  H   UNL     1     -44.797  57.549 -54.466  1.00  0.00     0.189 HD
BRANCH   5   7
HETATM    7  C   UNL     1     -43.552  56.476 -55.632  1.00  0.00     0.191 C 
HETATM    8  S   UNL     1     -41.987  55.878 -55.533  1.00  0.00    -0.039 SA
BRANCH   7   9
HETATM    9  N   UNL     1     -43.982  56.936 -56.844  1.00  0.00    -0.330 N 
HETATM   10  H   UNL     1     -44.993  56.997 -56.949  1.00  0.00     0.168 HD
BRANCH   9  11
HETATM   11  C   UNL     1     -43.276  57.410 -57.972  1.00  0.00     0.068 A 
HETATM   12  C   UNL     1     -43.176  56.540 -59.080  1.00  0.00     0.095 A 
HETATM   13  C   UNL     1     -42.545  56.978 -60.247  1.00  0.00     0.039 A 
HETATM   14  C   UNL     1     -42.022  58.269 -60.320  1.00  0.00     0.003 A 
HETATM   15  C   UNL     1     -42.132  59.132 -59.232  1.00  0.00     0.002 A 
HETATM   16  C   UNL     1     -42.760  58.706 -58.061  1.00  0.00     0.032 A 
BRANCH  12  17
HETATM   17  O   UNL     1     -43.732  55.294 -58.908  1.00  0.00    -0.354 OA
HETATM   18  C   UNL     1     -44.491  54.777 -59.997  1.00  0.00     0.210 C 
ENDBRANCH  12  17
ENDBRANCH   9  11
ENDBRANCH   7   9
ENDBRANCH   5   7
ENDBRANCH   1   5
BRANCH   2  19
HETATM   19  C   UNL     1     -43.547  55.879 -50.979  1.00  0.00     0.082 C 
HETATM   20  C   UNL     1     -42.134  56.181 -50.457  1.00  0.00     0.042 C 
HETATM   21  C   UNL     1     -41.058  55.656 -51.407  1.00  0.00     0.236 C 
HETATM   22  N   UNL     1     -41.235  54.168 -51.630  1.00  0.00    -0.067 N 
HETATM   23  H   UNL     1     -41.001  53.704 -50.745  1.00  0.00     0.280 HD
HETATM   24  C   UNL     1     -42.629  53.761 -52.032  1.00  0.00     0.236 C 
HETATM   25  C   UNL     1     -43.682  54.362 -51.114  1.00  0.00     0.042 C 
BRANCH  22  26
HETATM   26  C   UNL     1     -40.252  53.633 -52.666  1.00  0.00     0.273 C 
BRANCH  26  27
HETATM   27  C   UNL     1     -40.010  52.152 -52.581  1.00  0.00    -0.033 A 
HETATM   28  C   UNL     1     -40.035  51.353 -53.733  1.00  0.00     0.009 A 
HETATM   29  C   UNL     1     -39.811  49.978 -53.639  1.00  0.00     0.001 A 
HETATM   30  C   UNL     1     -39.564  49.393 -52.399  1.00  0.00     0.000 A 
HETATM   31  C   UNL     1     -39.537  50.177 -51.250  1.00  0.00     0.001 A 
HETATM   32  C   UNL     1     -39.759  51.551 -51.337  1.00  0.00     0.009 A 
ENDBRANCH  26  27
ENDBRANCH  22  26
ENDBRANCH   2  19
TORSDOF 8
ENDMDL
MODEL 2
REMARK VINA RESULT:      -8.0      0.975      1.805
REMARK  8 active torsions:
REMARK  status: ('A' for Active; 'I' for Inactive)
REMARK    1  A    between atoms: O_2  and  C_3 
REMARK    2  A    between atoms: C_4  and  N_5 
REMARK    3  A    between atoms: N_5  and  C_6 
REMARK    4  A    between atoms: C_6  and  N_7 
REMARK    5  A    between atoms: N_7  and  N_8 
REMARK       I    between atoms: N_8  and  C_9 
REMARK    6  A    between atoms: C_9  and  C_10 
REMARK    7  A    between atoms: N_13  and  C_15 
REMARK    8  A    between atoms: C_15  and  C_16 
ROOT
HETATM    1  N   UNL     1     -44.343  55.927 -53.268  1.00  0.00    -0.268 N 
HETATM    2  C   UNL     1     -43.811  56.640 -52.215  1.00  0.00     0.240 C 
HETATM    3  O   UNL     1     -43.560  57.841 -52.284  1.00  0.00    -0.271 OA
HETATM    4  H   UNL     1     -44.795  55.023 -53.167  1.00  0.00     0.190 HD
ENDROOT
BRANCH   1   5
HETATM    5  N   UNL     1     -44.595  56.614 -54.478  1.00  0.00    -0.274 N 
HETATM    6  H   UNL     1     -45.030  57.528 -54.350  1.00  0.00     0.189 HD
BRANCH   5   7
HETATM    7  C   UNL     1     -43.679  56.589 -55.514  1.00  0.00     0.191 C 
HETATM    8  S   UNL     1     -42.070  56.131 -55.392  1.00  0.00    -0.039 SA
BRANCH   7   9
HETATM    9  N   UNL     1     -44.125  57.031 -56.727  1.00  0.00    -0.330 N 
HETATM   10  H   UNL     1     -45.102  57.317 -56.749  1.00  0.00     0.168 HD
BRANCH   9  11
HETATM   11  C   UNL     1     -43.459  57.227 -57.957  1.00  0.00     0.068 A 
HETATM   12  C   UNL     1     -42.909  58.505 -58.194  1.00  0.00     0.095 A 
HETATM   13  C   UNL     1     -42.182  58.739 -59.364  1.00  0.00     0.039 A 
HETATM   14  C   UNL     1     -41.998  57.712 -60.292  1.00  0.00     0.003 A 
HETATM   15  C   UNL     1     -42.529  56.448 -60.052  1.00  0.00     0.002 A 
HETATM   16  C   UNL     1     -43.256  56.203 -58.886  1.00  0.00     0.032 A 
BRANCH  12  17
HETATM   17  O   UNL     1     -43.140  59.442 -57.214  1.00  0.00    -0.354 OA
HETATM   18  C   UNL     1     -42.065  60.323 -56.905  1.00  0.00     0.210 C 
ENDBRANCH  12  17
ENDBRANCH   9  11
ENDBRANCH   7   9
ENDBRANCH   5   7
ENDBRANCH   1   5
BRANCH   2  19
HETATM   19  C   UNL     1     -43.539  55.844 -50.933  1.00  0.00     0.082 C 
HETATM   20  C   UNL     1     -42.117  56.147 -50.434  1.00  0.00     0.042 C 
HETATM   21  C   UNL     1     -41.057  55.636 -51.409  1.00  0.00     0.236 C 
HETATM   22  N   UNL     1     -41.233  54.149 -51.644  1.00  0.00    -0.067 N 
HETATM   23  H   UNL     1     -40.980  53.677 -50.768  1.00  0.00     0.280 HD
HETATM   24  C   UNL     1     -42.633  53.741 -52.023  1.00  0.00     0.236 C 
HETATM   25  C   UNL     1     -43.670  54.328 -51.080  1.00  0.00     0.042 C 
BRANCH  22  26
HETATM   26  C   UNL     1     -40.268  53.629 -52.703  1.00  0.00     0.273 C 
BRANCH  26  27
HETATM   27  C   UNL     1     -40.014  52.149 -52.636  1.00  0.00    -0.033 A 
HETATM   28  C   UNL     1     -40.026  51.364 -53.797  1.00  0.00     0.009 A 
HETATM   29  C   UNL     1     -39.792  49.990 -53.719  1.00  0.00     0.001 A 
HETATM   30  C   UNL     1     -39.548  49.391 -52.484  1.00  0.00     0.000 A 
HETATM   31  C   UNL     1     -39.535  50.162 -51.326  1.00  0.00     0.001 A 
HETATM   32  C   UNL     1     -39.766  51.534 -51.397  1.00  0.00     0.009 A 
ENDBRANCH  26  27
ENDBRANCH  22  26
ENDBRANCH   2  19
TORSDOF 8
ENDMDL
MODEL 3
REMARK VINA RESULT:      -7.9      2.516      3.555
REMARK  8 active torsions:
REMARK  status: ('A' for Active; 'I' for Inactive)
REMARK    1  A    between atoms: O_2  and  C_3 
REMARK    2  A    between atoms: C_4  and  N_5 
REMARK    3  A    between atoms: N_5  and  C_6 
REMARK    4  A    between atoms: C_6  and  N_7 
REMARK    5  A    between atoms: N_7  and  N_8 
REMARK       I    between atoms: N_8  and  C_9 
REMARK    6  A    between atoms: C_9  and  C_10 
REMARK    7  A    between atoms: N_13  and  C_15 
REMARK    8  A    between atoms: C_15  and  C_16 
ROOT
HETATM    1  N   UNL     1     -42.088  57.462 -56.733  1.00  0.00    -0.268 N 
HETATM    2  C   UNL     1     -42.779  56.328 -56.363  1.00  0.00     0.240 C 
HETATM    3  O   UNL     1     -43.194  55.507 -57.178  1.00  0.00    -0.271 OA
HETATM    4  H   UNL     1     -41.519  58.010 -56.096  1.00  0.00     0.190 HD
ENDROOT
BRANCH   1   5
HETATM    5  N   UNL     1     -41.865  57.687 -58.112  1.00  0.00    -0.274 N 
HETATM    6  H   UNL     1     -41.992  56.855 -58.690  1.00  0.00     0.189 HD
BRANCH   5   7
HETATM    7  C   UNL     1     -42.306  58.846 -58.724  1.00  0.00     0.191 C 
HETATM    8  S   UNL     1     -41.726  60.393 -58.431  1.00  0.00    -0.039 SA
BRANCH   7   9
HETATM    9  N   UNL     1     -43.342  58.710 -59.603  1.00  0.00    -0.330 N 
HETATM   10  H   UNL     1     -43.449  59.474 -60.267  1.00  0.00     0.168 HD
BRANCH   9  11
HETATM   11  C   UNL     1     -44.268  57.661 -59.806  1.00  0.00     0.068 A 
HETATM   12  C   UNL     1     -45.577  57.856 -59.316  1.00  0.00     0.095 A 
HETATM   13  C   UNL     1     -46.552  56.882 -59.545  1.00  0.00     0.039 A 
HETATM   14  C   UNL     1     -46.234  55.725 -60.258  1.00  0.00     0.003 A 
HETATM   15  C   UNL     1     -44.946  55.539 -60.752  1.00  0.00     0.002 A 
HETATM   16  C   UNL     1     -43.964  56.505 -60.531  1.00  0.00     0.032 A 
BRANCH  12  17
HETATM   17  O   UNL     1     -45.788  59.032 -58.636  1.00  0.00    -0.354 OA
HETATM   18  C   UNL     1     -46.755  59.923 -59.184  1.00  0.00     0.210 C 
ENDBRANCH  12  17
ENDBRANCH   9  11
ENDBRANCH   7   9
ENDBRANCH   5   7
ENDBRANCH   1   5
BRANCH   2  19
HETATM   19  C   UNL     1     -43.011  56.142 -54.859  1.00  0.00     0.082 C 
HETATM   20  C   UNL     1     -41.705  56.426 -54.100  1.00  0.00     0.042 C 
HETATM   21  C   UNL     1     -40.625  55.397 -54.431  1.00  0.00     0.236 C 
HETATM   22  N   UNL     1     -41.123  53.998 -54.126  1.00  0.00    -0.067 N 
HETATM   23  H   UNL     1     -41.200  53.925 -53.106  1.00  0.00     0.280 HD
HETATM   24  C   UNL     1     -42.461  53.669 -54.735  1.00  0.00     0.236 C 
HETATM   25  C   UNL     1     -43.493  54.749 -54.454  1.00  0.00     0.042 C 
BRANCH  22  26
HETATM   26  C   UNL     1     -40.116  52.937 -54.556  1.00  0.00     0.273 C 
BRANCH  26  27
HETATM   27  C   UNL     1     -39.919  51.831 -53.558  1.00  0.00    -0.033 A 
HETATM   28  C   UNL     1     -39.820  50.496 -53.975  1.00  0.00     0.009 A 
HETATM   29  C   UNL     1     -39.640  49.478 -53.036  1.00  0.00     0.001 A 
HETATM   30  C   UNL     1     -39.563  49.784 -51.679  1.00  0.00     0.000 A 
HETATM   31  C   UNL     1     -39.661  51.106 -51.255  1.00  0.00     0.001 A 
HETATM   32  C   UNL     1     -39.839  52.127 -52.187  1.00  0.00     0.009 A 
ENDBRANCH  26  27
ENDBRANCH  22  26
ENDBRANCH   2  19
TORSDOF 8
ENDMDL
MODEL 4
REMARK VINA RESULT:      -7.9      2.815      5.745
REMARK  8 active torsions:
REMARK  status: ('A' for Active; 'I' for Inactive)
REMARK    1  A    between atoms: O_2  and  C_3 
REMARK    2  A    between atoms: C_4  and  N_5 
REMARK    3  A    between atoms: N_5  and  C_6 
REMARK    4  A    between atoms: C_6  and  N_7 
REMARK    5  A    between atoms: N_7  and  N_8 
REMARK       I    between atoms: N_8  and  C_9 
REMARK    6  A    between atoms: C_9  and  C_10 
REMARK    7  A    between atoms: N_13  and  C_15 
REMARK    8  A    between atoms: C_15  and  C_16 
ROOT
HETATM    1  N   UNL     1     -44.500  56.939 -54.008  1.00  0.00    -0.268 N 
HETATM    2  C   UNL     1     -43.355  56.940 -54.777  1.00  0.00     0.240 C 
HETATM    3  O   UNL     1     -42.507  57.827 -54.706  1.00  0.00    -0.271 OA
HETATM    4  H   UNL     1     -45.075  56.117 -53.852  1.00  0.00     0.190 HD
ENDROOT
BRANCH   1   5
HETATM    5  N   UNL     1     -44.702  58.016 -53.113  1.00  0.00    -0.274 N 
HETATM    6  H   UNL     1     -45.301  58.754 -53.486  1.00  0.00     0.189 HD
BRANCH   5   7
HETATM    7  C   UNL     1     -44.895  57.792 -51.763  1.00  0.00     0.191 C 
HETATM    8  S   UNL     1     -45.482  58.907 -50.656  1.00  0.00    -0.039 SA
BRANCH   7   9
HETATM    9  N   UNL     1     -44.518  56.566 -51.293  1.00  0.00    -0.330 N 
HETATM   10  H   UNL     1     -45.244  55.853 -51.314  1.00  0.00     0.168 HD
BRANCH   9  11
HETATM   11  C   UNL     1     -43.272  56.079 -50.837  1.00  0.00     0.068 A 
HETATM   12  C   UNL     1     -42.169  56.956 -50.921  1.00  0.00     0.095 A 
HETATM   13  C   UNL     1     -40.927  56.552 -50.425  1.00  0.00     0.039 A 
HETATM   14  C   UNL     1     -40.779  55.292 -49.844  1.00  0.00     0.003 A 
HETATM   15  C   UNL     1     -41.870  54.433 -49.749  1.00  0.00     0.002 A 
HETATM   16  C   UNL     1     -43.115  54.825 -50.241  1.00  0.00     0.032 A 
BRANCH  12  17
HETATM   17  O   UNL     1     -42.424  58.176 -51.501  1.00  0.00    -0.354 OA
HETATM   18  C   UNL     1     -41.391  59.153 -51.414  1.00  0.00     0.210 C 
ENDBRANCH  12  17
ENDBRANCH   9  11
ENDBRANCH   7   9
ENDBRANCH   5   7
ENDBRANCH   1   5
BRANCH   2  19
HETATM   19  C   UNL     1     -43.194  55.761 -55.744  1.00  0.00     0.082 C 
HETATM   20  C   UNL     1     -43.698  54.474 -55.073  1.00  0.00     0.042 C 
HETATM   21  C   UNL     1     -42.829  54.085 -53.878  1.00  0.00     0.236 C 
HETATM   22  N   UNL     1     -41.385  53.928 -54.308  1.00  0.00    -0.067 N 
HETATM   23  H   UNL     1     -41.339  53.092 -54.902  1.00  0.00     0.280 HD
HETATM   24  C   UNL     1     -40.837  55.099 -55.081  1.00  0.00     0.236 C 
HETATM   25  C   UNL     1     -41.760  55.512 -56.215  1.00  0.00     0.042 C 
BRANCH  22  26
HETATM   26  C   UNL     1     -40.470  53.656 -53.118  1.00  0.00     0.273 C 
BRANCH  26  27
HETATM   27  C   UNL     1     -40.134  52.206 -52.915  1.00  0.00    -0.033 A 
HETATM   28  C   UNL     1     -40.167  51.304 -53.988  1.00  0.00     0.009 A 
HETATM   29  C   UNL     1     -39.855  49.958 -53.784  1.00  0.00     0.001 A 
HETATM   30  C   UNL     1     -39.513  49.504 -52.512  1.00  0.00     0.000 A 
HETATM   31  C   UNL     1     -39.479  50.391 -51.441  1.00  0.00     0.001 A 
HETATM   32  C   UNL     1     -39.788  51.736 -51.637  1.00  0.00     0.009 A 
ENDBRANCH  26  27
ENDBRANCH  22  26
ENDBRANCH   2  19
TORSDOF 8
ENDMDL
MODEL 5
REMARK VINA RESULT:      -7.8      2.586      3.525
REMARK  8 active torsions:
REMARK  status: ('A' for Active; 'I' for Inactive)
REMARK    1  A    between atoms: O_2  and  C_3 
REMARK    2  A    between atoms: C_4  and  N_5 
REMARK    3  A    between atoms: N_5  and  C_6 
REMARK    4  A    between atoms: C_6  and  N_7 
REMARK    5  A    between atoms: N_7  and  N_8 
REMARK       I    between atoms: N_8  and  C_9 
REMARK    6  A    between atoms: C_9  and  C_10 
REMARK    7  A    between atoms: N_13  and  C_15 
REMARK    8  A    between atoms: C_15  and  C_16 
ROOT
HETATM    1  N   UNL     1     -41.819  60.200 -54.653  1.00  0.00    -0.268 N 
HETATM    2  C   UNL     1     -42.327  59.828 -53.427  1.00  0.00     0.240 C 
HETATM    3  O   UNL     1     -43.527  59.872 -53.163  1.00  0.00    -0.271 OA
HETATM    4  H   UNL     1     -40.896  59.936 -54.985  1.00  0.00     0.190 HD
ENDROOT
BRANCH   1   5
HETATM    5  N   UNL     1     -42.724  60.660 -55.638  1.00  0.00    -0.274 N 
HETATM    6  H   UNL     1     -43.140  61.567 -55.423  1.00  0.00     0.189 HD
BRANCH   5   7
HETATM    7  C   UNL     1     -42.457  60.491 -56.984  1.00  0.00     0.191 C 
HETATM    8  S   UNL     1     -42.987  61.489 -58.224  1.00  0.00    -0.039 SA
BRANCH   7   9
HETATM    9  N   UNL     1     -41.743  59.378 -57.324  1.00  0.00    -0.330 N 
HETATM   10  H   UNL     1     -40.785  59.357 -56.979  1.00  0.00     0.168 HD
BRANCH   9  11
HETATM   11  C   UNL     1     -42.109  58.204 -58.020  1.00  0.00     0.068 A 
HETATM   12  C   UNL     1     -42.790  57.208 -57.288  1.00  0.00     0.095 A 
HETATM   13  C   UNL     1     -43.235  56.054 -57.939  1.00  0.00     0.039 A 
HETATM   14  C   UNL     1     -43.011  55.890 -59.306  1.00  0.00     0.003 A 
HETATM   15  C   UNL     1     -42.351  56.879 -60.031  1.00  0.00     0.002 A 
HETATM   16  C   UNL     1     -41.903  58.035 -59.392  1.00  0.00     0.032 A 
BRANCH  12  17
HETATM   17  O   UNL     1     -42.967  57.472 -55.950  1.00  0.00    -0.354 OA
HETATM   18  C   UNL     1     -44.285  57.310 -55.435  1.00  0.00     0.210 C 
ENDBRANCH  12  17
ENDBRANCH   9  11
ENDBRANCH   7   9
ENDBRANCH   5   7
ENDBRANCH   1   5
BRANCH   2  19
HETATM   19  C   UNL     1     -41.303  59.356 -52.389  1.00  0.00     0.082 C 
HETATM   20  C   UNL     1     -40.252  58.466 -53.073  1.00  0.00     0.042 C 
HETATM   21  C   UNL     1     -40.867  57.168 -53.594  1.00  0.00     0.236 C 
HETATM   22  N   UNL     1     -41.543  56.418 -52.464  1.00  0.00    -0.067 N 
HETATM   23  H   UNL     1     -40.800  56.082 -51.841  1.00  0.00     0.280 HD
HETATM   24  C   UNL     1     -42.508  57.247 -51.657  1.00  0.00     0.236 C 
HETATM   25  C   UNL     1     -41.893  58.567 -51.220  1.00  0.00     0.042 C 
BRANCH  22  26
HETATM   26  C   UNL     1     -42.270  55.176 -52.969  1.00  0.00     0.273 C 
BRANCH  26  27
HETATM   27  C   UNL     1     -41.410  53.947 -53.052  1.00  0.00    -0.033 A 
HETATM   28  C   UNL     1     -40.658  53.521 -51.948  1.00  0.00     0.009 A 
HETATM   29  C   UNL     1     -39.860  52.378 -52.040  1.00  0.00     0.001 A 
HETATM   30  C   UNL     1     -39.806  51.657 -53.231  1.00  0.00     0.000 A 
HETATM   31  C   UNL     1     -40.548  52.072 -54.333  1.00  0.00     0.001 A 
HETATM   32  C   UNL     1     -41.347  53.211 -54.247  1.00  0.00     0.009 A 
ENDBRANCH  26  27
ENDBRANCH  22  26
ENDBRANCH   2  19
TORSDOF 8
ENDMDL
MODEL 6
REMARK VINA RESULT:      -7.8      2.313      3.051
REMARK  8 active torsions:
REMARK  status: ('A' for Active; 'I' for Inactive)
REMARK    1  A    between atoms: O_2  and  C_3 
REMARK    2  A    between atoms: C_4  and  N_5 
REMARK    3  A    between atoms: N_5  and  C_6 
REMARK    4  A    between atoms: C_6  and  N_7 
REMARK    5  A    between atoms: N_7  and  N_8 
REMARK       I    between atoms: N_8  and  C_9 
REMARK    6  A    between atoms: C_9  and  C_10 
REMARK    7  A    between atoms: N_13  and  C_15 
REMARK    8  A    between atoms: C_15  and  C_16 
ROOT
HETATM    1  N   UNL     1     -42.925  56.479 -56.872  1.00  0.00    -0.268 N 
HETATM    2  C   UNL     1     -42.960  56.843 -55.543  1.00  0.00     0.240 C 
HETATM    3  O   UNL     1     -42.413  57.858 -55.118  1.00  0.00    -0.271 OA
HETATM    4  H   UNL     1     -43.566  55.812 -57.291  1.00  0.00     0.190 HD
ENDROOT
BRANCH   1   5
HETATM    5  N   UNL     1     -42.218  57.309 -57.773  1.00  0.00    -0.274 N 
HETATM    6  H   UNL     1     -41.277  56.976 -57.987  1.00  0.00     0.189 HD
BRANCH   5   7
HETATM    7  C   UNL     1     -42.852  57.882 -58.860  1.00  0.00     0.191 C 
HETATM    8  S   UNL     1     -42.119  58.329 -60.301  1.00  0.00    -0.039 SA
BRANCH   7   9
HETATM    9  N   UNL     1     -44.182  58.151 -58.711  1.00  0.00    -0.330 N 
HETATM   10  H   UNL     1     -44.428  58.661 -57.865  1.00  0.00     0.168 HD
BRANCH   9  11
HETATM   11  C   UNL     1     -45.289  57.905 -59.555  1.00  0.00     0.068 A 
HETATM   12  C   UNL     1     -45.660  56.558 -59.753  1.00  0.00     0.095 A 
HETATM   13  C   UNL     1     -46.785  56.257 -60.524  1.00  0.00     0.039 A 
HETATM   14  C   UNL     1     -47.541  57.284 -61.092  1.00  0.00     0.003 A 
HETATM   15  C   UNL     1     -47.183  58.614 -60.885  1.00  0.00     0.002 A 
HETATM   16  C   UNL     1     -46.062  58.926 -60.116  1.00  0.00     0.032 A 
BRANCH  12  17
HETATM   17  O   UNL     1     -44.854  55.625 -59.143  1.00  0.00    -0.354 OA
HETATM   18  C   UNL     1     -44.297  54.617 -59.980  1.00  0.00     0.210 C 
ENDBRANCH  12  17
ENDBRANCH   9  11
ENDBRANCH   7   9
ENDBRANCH   5   7
ENDBRANCH   1   5
BRANCH   2  19
HETATM   19  C   UNL     1     -43.723  55.900 -54.606  1.00  0.00     0.082 C 
HETATM   20  C   UNL     1     -43.181  56.048 -53.176  1.00  0.00     0.042 C 
HETATM   21  C   UNL     1     -41.732  55.572 -53.070  1.00  0.00     0.236 C 
HETATM   22  N   UNL     1     -41.618  54.134 -53.534  1.00  0.00    -0.067 N 
HETATM   23  H   UNL     1     -42.098  53.556 -52.835  1.00  0.00     0.280 HD
HETATM   24  C   UNL     1     -42.232  53.866 -54.884  1.00  0.00     0.236 C 
HETATM   25  C   UNL     1     -43.644  54.420 -54.984  1.00  0.00     0.042 C 
BRANCH  22  26
HETATM   26  C   UNL     1     -40.168  53.663 -53.555  1.00  0.00     0.273 C 
BRANCH  26  27
HETATM   27  C   UNL     1     -39.984  52.212 -53.211  1.00  0.00    -0.033 A 
HETATM   28  C   UNL     1     -40.090  51.221 -54.196  1.00  0.00     0.009 A 
HETATM   29  C   UNL     1     -39.919  49.876 -53.862  1.00  0.00     0.001 A 
HETATM   30  C   UNL     1     -39.646  49.512 -52.545  1.00  0.00     0.000 A 
HETATM   31  C   UNL     1     -39.539  50.489 -51.559  1.00  0.00     0.001 A 
HETATM   32  C   UNL     1     -39.707  51.833 -51.887  1.00  0.00     0.009 A 
ENDBRANCH  26  27
ENDBRANCH  22  26
ENDBRANCH   2  19
TORSDOF 8
ENDMDL
MODEL 7
REMARK VINA RESULT:      -7.7      4.101      6.924
REMARK  8 active torsions:
REMARK  status: ('A' for Active; 'I' for Inactive)
REMARK    1  A    between atoms: O_2  and  C_3 
REMARK    2  A    between atoms: C_4  and  N_5 
REMARK    3  A    between atoms: N_5  and  C_6 
REMARK    4  A    between atoms: C_6  and  N_7 
REMARK    5  A    between atoms: N_7  and  N_8 
REMARK       I    between atoms: N_8  and  C_9 
REMARK    6  A    between atoms: C_9  and  C_10 
REMARK    7  A    between atoms: N_13  and  C_15 
REMARK    8  A    between atoms: C_15  and  C_16 
ROOT
HETATM    1  N   UNL     1     -44.802  57.246 -52.377  1.00  0.00    -0.268 N 
HETATM    2  C   UNL     1     -43.530  57.383 -52.891  1.00  0.00     0.240 C 
HETATM    3  O   UNL     1     -42.648  58.021 -52.321  1.00  0.00    -0.271 OA
HETATM    4  H   UNL     1     -45.458  56.531 -52.677  1.00  0.00     0.190 HD
ENDROOT
BRANCH   1   5
HETATM    5  N   UNL     1     -45.096  57.880 -51.148  1.00  0.00    -0.274 N 
HETATM    6  H   UNL     1     -44.623  57.462 -50.345  1.00  0.00     0.189 HD
BRANCH   5   7
HETATM    7  C   UNL     1     -45.195  59.256 -51.063  1.00  0.00     0.191 C 
HETATM    8  S   UNL     1     -46.193  60.229 -51.997  1.00  0.00    -0.039 SA
BRANCH   7   9
HETATM    9  N   UNL     1     -44.359  59.869 -50.173  1.00  0.00    -0.330 N 
HETATM   10  H   UNL     1     -43.656  59.264 -49.753  1.00  0.00     0.168 HD
BRANCH   9  11
HETATM   11  C   UNL     1     -44.246  61.218 -49.768  1.00  0.00     0.068 A 
HETATM   12  C   UNL     1     -45.029  61.627 -48.667  1.00  0.00     0.095 A 
HETATM   13  C   UNL     1     -44.910  62.931 -48.181  1.00  0.00     0.039 A 
HETATM   14  C   UNL     1     -44.020  63.824 -48.779  1.00  0.00     0.003 A 
HETATM   15  C   UNL     1     -43.239  63.417 -49.857  1.00  0.00     0.002 A 
HETATM   16  C   UNL     1     -43.348  62.117 -50.350  1.00  0.00     0.032 A 
BRANCH  12  17
HETATM   17  O   UNL     1     -45.866  60.668 -48.145  1.00  0.00    -0.354 OA
HETATM   18  C   UNL     1     -45.828  60.485 -46.734  1.00  0.00     0.210 C 
ENDBRANCH  12  17
ENDBRANCH   9  11
ENDBRANCH   7   9
ENDBRANCH   5   7
ENDBRANCH   1   5
BRANCH   2  19
HETATM   19  C   UNL     1     -43.269  56.693 -54.235  1.00  0.00     0.082 C 
HETATM   20  C   UNL     1     -43.717  55.225 -54.154  1.00  0.00     0.042 C 
HETATM   21  C   UNL     1     -42.864  54.431 -53.166  1.00  0.00     0.236 C 
HETATM   22  N   UNL     1     -41.401  54.519 -53.548  1.00  0.00    -0.067 N 
HETATM   23  H   UNL     1     -41.287  53.990 -54.421  1.00  0.00     0.280 HD
HETATM   24  C   UNL     1     -40.899  55.922 -53.767  1.00  0.00     0.236 C 
HETATM   25  C   UNL     1     -41.810  56.712 -54.692  1.00  0.00     0.042 C 
BRANCH  22  26
HETATM   26  C   UNL     1     -40.508  53.836 -52.517  1.00  0.00     0.273 C 
BRANCH  26  27
HETATM   27  C   UNL     1     -40.202  52.396 -52.821  1.00  0.00    -0.033 A 
HETATM   28  C   UNL     1     -40.382  51.881 -54.111  1.00  0.00     0.009 A 
HETATM   29  C   UNL     1     -40.095  50.540 -54.379  1.00  0.00     0.001 A 
HETATM   30  C   UNL     1     -39.633  49.708 -53.362  1.00  0.00     0.000 A 
HETATM   31  C   UNL     1     -39.451  50.210 -52.077  1.00  0.00     0.001 A 
HETATM   32  C   UNL     1     -39.734  51.547 -51.804  1.00  0.00     0.009 A 
ENDBRANCH  26  27
ENDBRANCH  22  26
ENDBRANCH   2  19
TORSDOF 8
ENDMDL
MODEL 8
REMARK VINA RESULT:      -7.5      2.134      2.856
REMARK  8 active torsions:
REMARK  status: ('A' for Active; 'I' for Inactive)
REMARK    1  A    between atoms: O_2  and  C_3 
REMARK    2  A    between atoms: C_4  and  N_5 
REMARK    3  A    between atoms: N_5  and  C_6 
REMARK    4  A    between atoms: C_6  and  N_7 
REMARK    5  A    between atoms: N_7  and  N_8 
REMARK       I    between atoms: N_8  and  C_9 
REMARK    6  A    between atoms: C_9  and  C_10 
REMARK    7  A    between atoms: N_13  and  C_15 
REMARK    8  A    between atoms: C_15  and  C_16 
ROOT
HETATM    1  N   UNL     1     -45.087  58.511 -54.134  1.00  0.00    -0.268 N 
HETATM    2  C   UNL     1     -43.887  58.922 -53.595  1.00  0.00     0.240 C 
HETATM    3  O   UNL     1     -43.151  59.733 -54.152  1.00  0.00    -0.271 OA
HETATM    4  H   UNL     1     -45.822  58.060 -53.599  1.00  0.00     0.190 HD
ENDROOT
BRANCH   1   5
HETATM    5  N   UNL     1     -45.471  59.042 -55.388  1.00  0.00    -0.274 N 
HETATM    6  H   UNL     1     -45.053  59.950 -55.596  1.00  0.00     0.189 HD
BRANCH   5   7
HETATM    7  C   UNL     1     -45.583  58.229 -56.501  1.00  0.00     0.191 C 
HETATM    8  S   UNL     1     -46.908  58.145 -57.526  1.00  0.00    -0.039 SA
BRANCH   7   9
HETATM    9  N   UNL     1     -44.537  57.385 -56.742  1.00  0.00    -0.330 N 
HETATM   10  H   UNL     1     -44.329  56.730 -55.991  1.00  0.00     0.168 HD
BRANCH   9  11
HETATM   11  C   UNL     1     -43.717  57.209 -57.879  1.00  0.00     0.068 A 
HETATM   12  C   UNL     1     -42.812  58.247 -58.188  1.00  0.00     0.095 A 
HETATM   13  C   UNL     1     -41.931  58.099 -59.262  1.00  0.00     0.039 A 
HETATM   14  C   UNL     1     -41.944  56.930 -60.023  1.00  0.00     0.003 A 
HETATM   15  C   UNL     1     -42.828  55.900 -59.711  1.00  0.00     0.002 A 
HETATM   16  C   UNL     1     -43.711  56.036 -58.640  1.00  0.00     0.032 A 
BRANCH  12  17
HETATM   17  O   UNL     1     -42.875  59.351 -57.370  1.00  0.00    -0.354 OA
HETATM   18  C   UNL     1     -43.093  60.606 -58.006  1.00  0.00     0.210 C 
ENDBRANCH  12  17
ENDBRANCH   9  11
ENDBRANCH   7   9
ENDBRANCH   5   7
ENDBRANCH   1   5
BRANCH   2  19
HETATM   19  C   UNL     1     -43.508  58.302 -52.245  1.00  0.00     0.082 C 
HETATM   20  C   UNL     1     -41.983  58.353 -52.066  1.00  0.00     0.042 C 
HETATM   21  C   UNL     1     -41.267  57.468 -53.086  1.00  0.00     0.236 C 
HETATM   22  N   UNL     1     -41.766  56.041 -52.983  1.00  0.00    -0.067 N 
HETATM   23  H   UNL     1     -41.430  55.671 -52.087  1.00  0.00     0.280 HD
HETATM   24  C   UNL     1     -43.265  55.902 -53.029  1.00  0.00     0.236 C 
HETATM   25  C   UNL     1     -43.952  56.851 -52.060  1.00  0.00     0.042 C 
BRANCH  22  26
HETATM   26  C   UNL     1     -41.160  55.154 -54.066  1.00  0.00     0.273 C 
BRANCH  26  27
HETATM   27  C   UNL     1     -40.625  53.843 -53.563  1.00  0.00    -0.033 A 
HETATM   28  C   UNL     1     -40.337  52.797 -54.450  1.00  0.00     0.009 A 
HETATM   29  C   UNL     1     -39.843  51.582 -53.969  1.00  0.00     0.001 A 
HETATM   30  C   UNL     1     -39.638  51.403 -52.602  1.00  0.00     0.000 A 
HETATM   31  C   UNL     1     -39.921  52.436 -51.713  1.00  0.00     0.001 A 
HETATM   32  C   UNL     1     -40.413  53.651 -52.187  1.00  0.00     0.009 A 
ENDBRANCH  26  27
ENDBRANCH  22  26
ENDBRANCH   2  19
TORSDOF 8
ENDMDL
MODEL 9
REMARK VINA RESULT:      -7.4      2.920      3.629
REMARK  8 active torsions:
REMARK  status: ('A' for Active; 'I' for Inactive)
REMARK    1  A    between atoms: O_2  and  C_3 
REMARK    2  A    between atoms: C_4  and  N_5 
REMARK    3  A    between atoms: N_5  and  C_6 
REMARK    4  A    between atoms: C_6  and  N_7 
REMARK    5  A    between atoms: N_7  and  N_8 
REMARK       I    between atoms: N_8  and  C_9 
REMARK    6  A    between atoms: C_9  and  C_10 
REMARK    7  A    between atoms: N_13  and  C_15 
REMARK    8  A    between atoms: C_15  and  C_16 
ROOT
HETATM    1  N   UNL     1     -42.014  60.345 -54.401  1.00  0.00    -0.268 N 
HETATM    2  C   UNL     1     -42.368  59.937 -53.133  1.00  0.00     0.240 C 
HETATM    3  O   UNL     1     -43.528  59.963 -52.725  1.00  0.00    -0.271 OA
HETATM    4  H   UNL     1     -41.137  60.098 -54.849  1.00  0.00     0.190 HD
ENDROOT
BRANCH   1   5
HETATM    5  N   UNL     1     -43.034  60.824 -55.256  1.00  0.00    -0.274 N 
HETATM    6  H   UNL     1     -43.885  61.102 -54.766  1.00  0.00     0.189 HD
BRANCH   5   7
HETATM    7  C   UNL     1     -42.735  61.641 -56.331  1.00  0.00     0.191 C 
HETATM    8  S   UNL     1     -43.527  63.064 -56.733  1.00  0.00    -0.039 SA
BRANCH   7   9
HETATM    9  N   UNL     1     -41.740  61.209 -57.161  1.00  0.00    -0.330 N 
HETATM   10  H   UNL     1     -40.794  61.410 -56.842  1.00  0.00     0.168 HD
BRANCH   9  11
HETATM   11  C   UNL     1     -41.777  60.469 -58.364  1.00  0.00     0.068 A 
HETATM   12  C   UNL     1     -41.954  59.072 -58.255  1.00  0.00     0.095 A 
HETATM   13  C   UNL     1     -42.063  58.298 -59.413  1.00  0.00     0.039 A 
HETATM   14  C   UNL     1     -42.003  58.902 -60.669  1.00  0.00     0.003 A 
HETATM   15  C   UNL     1     -41.842  60.281 -60.776  1.00  0.00     0.002 A 
HETATM   16  C   UNL     1     -41.732  61.064 -59.627  1.00  0.00     0.032 A 
BRANCH  12  17
HETATM   17  O   UNL     1     -42.010  58.580 -56.973  1.00  0.00    -0.354 OA
HETATM   18  C   UNL     1     -42.813  57.422 -56.767  1.00  0.00     0.210 C 
ENDBRANCH  12  17
ENDBRANCH   9  11
ENDBRANCH   7   9
ENDBRANCH   5   7
ENDBRANCH   1   5
BRANCH   2  19
HETATM   19  C   UNL     1     -41.224  59.445 -52.239  1.00  0.00     0.082 C 
HETATM   20  C   UNL     1     -40.235  58.621 -53.079  1.00  0.00     0.042 C 
HETATM   21  C   UNL     1     -40.873  57.332 -53.594  1.00  0.00     0.236 C 
HETATM   22  N   UNL     1     -41.401  56.509 -52.437  1.00  0.00    -0.067 N 
HETATM   23  H   UNL     1     -40.585  56.165 -51.918  1.00  0.00     0.280 HD
HETATM   24  C   UNL     1     -42.289  57.270 -51.488  1.00  0.00     0.236 C 
HETATM   25  C   UNL     1     -41.661  58.585 -51.054  1.00  0.00     0.042 C 
BRANCH  22  26
HETATM   26  C   UNL     1     -42.150  55.272 -52.921  1.00  0.00     0.273 C 
BRANCH  26  27
HETATM   27  C   UNL     1     -41.303  54.034 -53.017  1.00  0.00    -0.033 A 
HETATM   28  C   UNL     1     -41.145  53.365 -54.239  1.00  0.00     0.009 A 
HETATM   29  C   UNL     1     -40.357  52.214 -54.313  1.00  0.00     0.001 A 
HETATM   30  C   UNL     1     -39.726  51.724 -53.171  1.00  0.00     0.000 A 
HETATM   31  C   UNL     1     -39.877  52.381 -51.954  1.00  0.00     0.001 A 
HETATM   32  C   UNL     1     -40.661  53.531 -51.874  1.00  0.00     0.009 A 
ENDBRANCH  26  27
ENDBRANCH  22  26
ENDBRANCH   2  19
TORSDOF 8
ENDMDL
MODEL 10
REMARK VINA RESULT:      -7.3      3.264      9.930
REMARK  8 active torsions:
REMARK  status: ('A' for Active; 'I' for Inactive)
REMARK    1  A    between atoms: O_2  and  C_3 
REMARK    2  A    between atoms: C_4  and  N_5 
REMARK    3  A    between atoms: N_5  and  C_6 
REMARK    4  A    between atoms: C_6  and  N_7 
REMARK    5  A    between atoms: N_7  and  N_8 
REMARK       I    between atoms: N_8  and  C_9 
REMARK    6  A    between atoms: C_9  and  C_10 
REMARK    7  A    between atoms: N_13  and  C_15 
REMARK    8  A    between atoms: C_15  and  C_16 
ROOT
HETATM    1  N   UNL     1     -43.361  55.225 -57.051  1.00  0.00    -0.268 N 
HETATM    2  C   UNL     1     -43.326  56.364 -57.826  1.00  0.00     0.240 C 
HETATM    3  O   UNL     1     -43.525  57.487 -57.367  1.00  0.00    -0.271 OA
HETATM    4  H   UNL     1     -42.954  54.338 -57.332  1.00  0.00     0.190 HD
ENDROOT
BRANCH   1   5
HETATM    5  N   UNL     1     -43.651  55.364 -55.674  1.00  0.00    -0.274 N 
HETATM    6  H   UNL     1     -44.510  54.894 -55.385  1.00  0.00     0.189 HD
BRANCH   5   7
HETATM    7  C   UNL     1     -42.648  55.294 -54.725  1.00  0.00     0.191 C 
HETATM    8  S   UNL     1     -41.418  56.415 -54.511  1.00  0.00    -0.039 SA
BRANCH   7   9
HETATM    9  N   UNL     1     -42.641  54.181 -53.934  1.00  0.00    -0.330 N 
HETATM   10  H   UNL     1     -43.560  53.824 -53.681  1.00  0.00     0.168 HD
BRANCH   9  11
HETATM   11  C   UNL     1     -41.581  53.385 -53.445  1.00  0.00     0.068 A 
HETATM   12  C   UNL     1     -41.256  53.514 -52.077  1.00  0.00     0.095 A 
HETATM   13  C   UNL     1     -40.261  52.705 -51.524  1.00  0.00     0.039 A 
HETATM   14  C   UNL     1     -39.594  51.771 -52.318  1.00  0.00     0.003 A 
HETATM   15  C   UNL     1     -39.923  51.634 -53.664  1.00  0.00     0.002 A 
HETATM   16  C   UNL     1     -40.916  52.436 -54.227  1.00  0.00     0.032 A 
BRANCH  12  17
HETATM   17  O   UNL     1     -41.978  54.456 -51.383  1.00  0.00    -0.354 OA
HETATM   18  C   UNL     1     -41.249  55.288 -50.487  1.00  0.00     0.210 C 
ENDBRANCH  12  17
ENDBRANCH   9  11
ENDBRANCH   7   9
ENDBRANCH   5   7
ENDBRANCH   1   5
BRANCH   2  19
HETATM   19  C   UNL     1     -43.026  56.156 -59.315  1.00  0.00     0.082 C 
HETATM   20  C   UNL     1     -43.432  57.414 -60.101  1.00  0.00     0.042 C 
HETATM   21  C   UNL     1     -44.943  57.637 -60.063  1.00  0.00     0.236 C 
HETATM   22  N   UNL     1     -45.667  56.419 -60.599  1.00  0.00    -0.067 N 
HETATM   23  H   UNL     1     -45.471  56.374 -61.605  1.00  0.00     0.280 HD
HETATM   24  C   UNL     1     -45.246  55.118 -59.968  1.00  0.00     0.236 C 
HETATM   25  C   UNL     1     -43.734  54.959 -59.950  1.00  0.00     0.042 C 
BRANCH  22  26
HETATM   26  C   UNL     1     -47.180  56.560 -60.466  1.00  0.00     0.273 C 
BRANCH  26  27
HETATM   27  C   UNL     1     -47.818  57.407 -61.530  1.00  0.00    -0.033 A 
HETATM   28  C   UNL     1     -48.399  56.820 -62.663  1.00  0.00     0.009 A 
HETATM   29  C   UNL     1     -48.987  57.620 -63.646  1.00  0.00     0.001 A 
HETATM   30  C   UNL     1     -48.995  59.006 -63.507  1.00  0.00     0.000 A 
HETATM   31  C   UNL     1     -48.420  59.598 -62.386  1.00  0.00     0.001 A 
HETATM   32  C   UNL     1     -47.833  58.806 -61.401  1.00  0.00     0.009 A 
ENDBRANCH  26  27
ENDBRANCH  22  26
ENDBRANCH   2  19
TORSDOF 8
ENDMDL
