MODEL 1
REMARK VINA RESULT:      -8.4      0.000      0.000
REMARK  8 active torsions:
REMARK  status: ('A' for Active; 'I' for Inactive)
REMARK    1  A    between atoms: C_2  and  C_3 
REMARK    2  A    between atoms: C_4  and  N_5 
REMARK       I    between atoms: N_5  and  C_6 
REMARK    3  A    between atoms: C_6  and  C_7 
REMARK    4  A    between atoms: C_7  and  N_8 
REMARK    5  A    between atoms: C_11  and  C_12 
REMARK       I    between atoms: C_12  and  N_13 
REMARK    6  A    between atoms: N_13  and  C_14 
REMARK    7  A    between atoms: C_15  and  O_16 
REMARK    8  A    between atoms: C_24  and  N_25 
ROOT
HETATM    1  N   UNL     1     -41.926  57.268 -51.907  1.00  0.00    -0.252 N 
HETATM    2  N   UNL     1     -40.939  58.069 -52.350  1.00  0.00     0.007 NA
HETATM    3  N   UNL     1     -41.235  58.419 -53.595  1.00  0.00    -0.151 NA
HETATM    4  C   UNL     1     -42.440  57.843 -53.933  1.00  0.00     0.181 A 
HETATM    5  C   UNL     1     -42.925  57.142 -52.842  1.00  0.00     0.130 A 
ENDROOT
BRANCH   1   6
HETATM    6  C   UNL     1     -41.809  56.585 -50.639  1.00  0.00     0.251 C 
BRANCH   6   7
HETATM    7  C   UNL     1     -41.443  55.119 -50.783  1.00  0.00     0.241 C 
HETATM    8  N   UNL     1     -40.987  54.741 -52.039  1.00  0.00    -0.325 N 
HETATM    9  H   UNL     1     -40.935  55.474 -52.742  1.00  0.00     0.169 HD
HETATM   10  O   UNL     1     -41.652  54.358 -49.839  1.00  0.00    -0.271 OA
BRANCH   8  11
HETATM   11  C   UNL     1     -40.530  53.466 -52.460  1.00  0.00     0.041 A 
HETATM   12  C   UNL     1     -40.632  53.111 -53.828  1.00  0.00    -0.032 A 
HETATM   13  C   UNL     1     -40.152  51.854 -54.252  1.00  0.00     0.009 A 
HETATM   14  C   UNL     1     -39.594  50.955 -53.349  1.00  0.00     0.001 A 
HETATM   15  C   UNL     1     -39.504  51.299 -52.008  1.00  0.00     0.002 A 
HETATM   16  C   UNL     1     -39.966  52.544 -51.569  1.00  0.00     0.030 A 
BRANCH  12  17
HETATM   17  C   UNL     1     -41.191  54.026 -54.897  1.00  0.00     0.036 C 
HETATM   18  C   UNL     1     -42.702  53.900 -55.020  1.00  0.00     0.010 C 
ENDBRANCH  12  17
ENDBRANCH   8  11
ENDBRANCH   6   7
ENDBRANCH   1   6
BRANCH   5  19
HETATM   19  N   UNL     1     -44.034  56.376 -52.656  1.00  0.00    -0.285 NA
HETATM   20  H   UNL     1     -43.850  55.366 -52.566  1.00  0.00     0.125 HD
HETATM   21  H   UNL     1     -44.844  56.511 -53.263  1.00  0.00     0.125 HD
ENDBRANCH   5  19
BRANCH   4  22
HETATM   22  C   UNL     1     -43.049  57.948 -55.254  1.00  0.00     0.279 C 
HETATM   23  N   UNL     1     -42.341  57.267 -56.220  1.00  0.00    -0.319 N 
HETATM   24  H   UNL     1     -41.466  56.834 -55.928  1.00  0.00     0.169 HD
HETATM   25  O   UNL     1     -44.088  58.579 -55.423  1.00  0.00    -0.265 OA
BRANCH  23  26
HETATM   26  C   UNL     1     -42.674  57.057 -57.575  1.00  0.00     0.069 A 
HETATM   27  C   UNL     1     -42.234  58.026 -58.500  1.00  0.00     0.095 A 
HETATM   28  C   UNL     1     -42.501  57.857 -59.860  1.00  0.00     0.039 A 
HETATM   29  C   UNL     1     -43.209  56.736 -60.304  1.00  0.00     0.009 A 
HETATM   30  C   UNL     1     -43.668  55.780 -59.394  1.00  0.00    -0.060 A 
HETATM   31  C   UNL     1     -44.391  54.555 -59.871  1.00  0.00     0.048 C 
HETATM   32  C   UNL     1     -43.385  55.943 -58.030  1.00  0.00     0.039 A 
BRANCH  27  33
HETATM   33  O   UNL     1     -41.542  59.086 -57.960  1.00  0.00    -0.354 OA
HETATM   34  C   UNL     1     -42.032  60.390 -58.250  1.00  0.00     0.210 C 
ENDBRANCH  27  33
ENDBRANCH  23  26
ENDBRANCH   4  22
TORSDOF 8
ENDMDL
MODEL 2
REMARK VINA RESULT:      -8.1      1.134      2.372
REMARK  8 active torsions:
REMARK  status: ('A' for Active; 'I' for Inactive)
REMARK    1  A    between atoms: C_2  and  C_3 
REMARK    2  A    between atoms: C_4  and  N_5 
REMARK       I    between atoms: N_5  and  C_6 
REMARK    3  A    between atoms: C_6  and  C_7 
REMARK    4  A    between atoms: C_7  and  N_8 
REMARK    5  A    between atoms: C_11  and  C_12 
REMARK       I    between atoms: C_12  and  N_13 
REMARK    6  A    between atoms: N_13  and  C_14 
REMARK    7  A    between atoms: C_15  and  O_16 
REMARK    8  A    between atoms: C_24  and  N_25 
ROOT
HETATM    1  N   UNL     1     -42.562  57.032 -52.327  1.00  0.00    -0.252 N 
HETATM    2  N   UNL     1     -41.351  57.569 -52.564  1.00  0.00     0.007 NA
HETATM    3  N   UNL     1     -41.401  58.167 -53.748  1.00  0.00    -0.151 NA
HETATM    4  C   UNL     1     -42.674  58.020 -54.254  1.00  0.00     0.181 A 
HETATM    5  C   UNL     1     -43.449  57.338 -53.332  1.00  0.00     0.130 A 
ENDROOT
BRANCH   1   6
HETATM    6  C   UNL     1     -42.776  56.167 -51.190  1.00  0.00     0.251 C 
BRANCH   6   7
HETATM    7  C   UNL     1     -42.499  54.705 -51.492  1.00  0.00     0.241 C 
HETATM    8  N   UNL     1     -41.205  54.419 -51.907  1.00  0.00    -0.325 N 
HETATM    9  H   UNL     1     -40.563  55.206 -51.966  1.00  0.00     0.169 HD
HETATM   10  O   UNL     1     -43.429  53.901 -51.443  1.00  0.00    -0.271 OA
BRANCH   8  11
HETATM   11  C   UNL     1     -40.641  53.154 -52.211  1.00  0.00     0.041 A 
HETATM   12  C   UNL     1     -40.585  52.727 -53.561  1.00  0.00    -0.032 A 
HETATM   13  C   UNL     1     -39.999  51.481 -53.867  1.00  0.00     0.009 A 
HETATM   14  C   UNL     1     -39.487  50.661 -52.867  1.00  0.00     0.001 A 
HETATM   15  C   UNL     1     -39.551  51.075 -51.544  1.00  0.00     0.002 A 
HETATM   16  C   UNL     1     -40.121  52.311 -51.221  1.00  0.00     0.030 A 
BRANCH  12  17
HETATM   17  C   UNL     1     -41.081  53.556 -54.728  1.00  0.00     0.036 C 
HETATM   18  C   UNL     1     -40.128  54.693 -55.065  1.00  0.00     0.010 C 
ENDBRANCH  12  17
ENDBRANCH   8  11
ENDBRANCH   6   7
ENDBRANCH   1   6
BRANCH   5  19
HETATM   19  N   UNL     1     -44.739  56.906 -53.349  1.00  0.00    -0.285 NA
HETATM   20  H   UNL     1     -45.355  57.413 -54.001  1.00  0.00     0.125 HD
HETATM   21  H   UNL     1     -45.234  56.771 -52.467  1.00  0.00     0.125 HD
ENDBRANCH   5  19
BRANCH   4  22
HETATM   22  C   UNL     1     -43.082  58.488 -55.573  1.00  0.00     0.279 C 
HETATM   23  N   UNL     1     -42.039  58.516 -56.473  1.00  0.00    -0.319 N 
HETATM   24  H   UNL     1     -41.117  58.276 -56.113  1.00  0.00     0.169 HD
HETATM   25  O   UNL     1     -44.248  58.798 -55.801  1.00  0.00    -0.265 OA
BRANCH  23  26
HETATM   26  C   UNL     1     -42.072  58.807 -57.853  1.00  0.00     0.069 A 
HETATM   27  C   UNL     1     -42.351  57.737 -58.727  1.00  0.00     0.095 A 
HETATM   28  C   UNL     1     -42.434  57.969 -60.102  1.00  0.00     0.039 A 
HETATM   29  C   UNL     1     -42.233  59.254 -60.612  1.00  0.00     0.009 A 
HETATM   30  C   UNL     1     -41.936  60.319 -59.757  1.00  0.00    -0.060 A 
HETATM   31  C   UNL     1     -41.762  61.708 -60.296  1.00  0.00     0.048 C 
HETATM   32  C   UNL     1     -41.869  60.088 -58.375  1.00  0.00     0.039 A 
BRANCH  27  33
HETATM   33  O   UNL     1     -42.537  56.514 -58.123  1.00  0.00    -0.354 OA
HETATM   34  C   UNL     1     -43.599  55.707 -58.616  1.00  0.00     0.210 C 
ENDBRANCH  27  33
ENDBRANCH  23  26
ENDBRANCH   4  22
TORSDOF 8
ENDMDL
MODEL 3
REMARK VINA RESULT:      -8.1      2.038      7.596
REMARK  8 active torsions:
REMARK  status: ('A' for Active; 'I' for Inactive)
REMARK    1  A    between atoms: C_2  and  C_3 
REMARK    2  A    between atoms: C_4  and  N_5 
REMARK       I    between atoms: N_5  and  C_6 
REMARK    3  A    between atoms: C_6  and  C_7 
REMARK    4  A    between atoms: C_7  and  N_8 
REMARK    5  A    between atoms: C_11  and  C_12 
REMARK       I    between atoms: C_12  and  N_13 
REMARK    6  A    between atoms: N_13  and  C_14 
REMARK    7  A    between atoms: C_15  and  O_16 
REMARK    8  A    between atoms: C_24  and  N_25 
ROOT
HETATM    1  N   UNL     1     -44.085  58.366 -55.150  1.00  0.00    -0.252 N 
HETATM    2  N   UNL     1     -44.870  57.361 -54.718  1.00  0.00     0.007 NA
HETATM    3  N   UNL     1     -44.079  56.418 -54.223  1.00  0.00    -0.151 NA
HETATM    4  C   UNL     1     -42.774  56.848 -54.327  1.00  0.00     0.181 A 
HETATM    5  C   UNL     1     -42.762  58.120 -54.872  1.00  0.00     0.130 A 
ENDROOT
BRANCH   1   6
HETATM    6  C   UNL     1     -44.644  59.470 -55.896  1.00  0.00     0.251 C 
BRANCH   6   7
HETATM    7  C   UNL     1     -45.065  59.085 -57.304  1.00  0.00     0.241 C 
HETATM    8  N   UNL     1     -45.004  57.728 -57.591  1.00  0.00    -0.325 N 
HETATM    9  H   UNL     1     -44.691  57.119 -56.841  1.00  0.00     0.169 HD
HETATM   10  O   UNL     1     -45.338  59.976 -58.107  1.00  0.00    -0.271 OA
BRANCH   8  11
HETATM   11  C   UNL     1     -45.376  57.068 -58.791  1.00  0.00     0.041 A 
HETATM   12  C   UNL     1     -44.390  56.373 -59.533  1.00  0.00    -0.032 A 
HETATM   13  C   UNL     1     -44.764  55.693 -60.711  1.00  0.00     0.009 A 
HETATM   14  C   UNL     1     -46.080  55.705 -61.161  1.00  0.00     0.001 A 
HETATM   15  C   UNL     1     -47.044  56.394 -60.440  1.00  0.00     0.002 A 
HETATM   16  C   UNL     1     -46.694  57.067 -59.264  1.00  0.00     0.030 A 
BRANCH  12  17
HETATM   17  C   UNL     1     -42.938  56.270 -59.115  1.00  0.00     0.036 C 
HETATM   18  C   UNL     1     -42.027  57.097 -60.011  1.00  0.00     0.010 C 
ENDBRANCH  12  17
ENDBRANCH   8  11
ENDBRANCH   6   7
ENDBRANCH   1   6
BRANCH   5  19
HETATM   19  N   UNL     1     -41.755  58.968 -55.215  1.00  0.00    -0.285 NA
HETATM   20  H   UNL     1     -40.868  58.809 -54.716  1.00  0.00     0.125 HD
HETATM   21  H   UNL     1     -41.936  59.972 -55.253  1.00  0.00     0.125 HD
ENDBRANCH   5  19
BRANCH   4  22
HETATM   22  C   UNL     1     -41.620  56.041 -53.948  1.00  0.00     0.279 C 
HETATM   23  N   UNL     1     -41.976  54.805 -53.454  1.00  0.00    -0.319 N 
HETATM   24  H   UNL     1     -42.973  54.622 -53.351  1.00  0.00     0.169 HD
HETATM   25  O   UNL     1     -40.477  56.466 -54.090  1.00  0.00    -0.265 OA
BRANCH  23  26
HETATM   26  C   UNL     1     -41.142  53.727 -53.089  1.00  0.00     0.069 A 
HETATM   27  C   UNL     1     -40.604  53.747 -51.786  1.00  0.00     0.095 A 
HETATM   28  C   UNL     1     -39.801  52.690 -51.353  1.00  0.00     0.039 A 
HETATM   29  C   UNL     1     -39.522  51.621 -52.209  1.00  0.00     0.009 A 
HETATM   30  C   UNL     1     -40.033  51.601 -53.510  1.00  0.00    -0.060 A 
HETATM   31  C   UNL     1     -39.772  50.435 -54.417  1.00  0.00     0.048 C 
HETATM   32  C   UNL     1     -40.853  52.655 -53.938  1.00  0.00     0.039 A 
BRANCH  27  33
HETATM   33  O   UNL     1     -40.943  54.841 -51.024  1.00  0.00    -0.354 OA
HETATM   34  C   UNL     1     -40.696  54.754 -49.625  1.00  0.00     0.210 C 
ENDBRANCH  27  33
ENDBRANCH  23  26
ENDBRANCH   4  22
TORSDOF 8
ENDMDL
MODEL 4
REMARK VINA RESULT:      -8.1      2.431      3.337
REMARK  8 active torsions:
REMARK  status: ('A' for Active; 'I' for Inactive)
REMARK    1  A    between atoms: C_2  and  C_3 
REMARK    2  A    between atoms: C_4  and  N_5 
REMARK       I    between atoms: N_5  and  C_6 
REMARK    3  A    between atoms: C_6  and  C_7 
REMARK    4  A    between atoms: C_7  and  N_8 
REMARK    5  A    between atoms: C_11  and  C_12 
REMARK       I    between atoms: C_12  and  N_13 
REMARK    6  A    between atoms: N_13  and  C_14 
REMARK    7  A    between atoms: C_15  and  O_16 
REMARK    8  A    between atoms: C_24  and  N_25 
ROOT
HETATM    1  N   UNL     1     -43.031  57.004 -53.432  1.00  0.00    -0.252 N 
HETATM    2  N   UNL     1     -41.895  57.679 -53.690  1.00  0.00     0.007 NA
HETATM    3  N   UNL     1     -41.946  58.083 -54.953  1.00  0.00    -0.151 NA
HETATM    4  C   UNL     1     -43.145  57.672 -55.492  1.00  0.00     0.181 A 
HETATM    5  C   UNL     1     -43.879  57.023 -54.514  1.00  0.00     0.130 A 
ENDROOT
BRANCH   1   6
HETATM    6  C   UNL     1     -43.200  56.293 -52.186  1.00  0.00     0.251 C 
BRANCH   6   7
HETATM    7  C   UNL     1     -42.785  54.834 -52.272  1.00  0.00     0.241 C 
HETATM    8  N   UNL     1     -41.543  54.603 -52.847  1.00  0.00    -0.325 N 
HETATM    9  H   UNL     1     -41.024  55.423 -53.152  1.00  0.00     0.169 HD
HETATM   10  O   UNL     1     -43.586  53.967 -51.924  1.00  0.00    -0.271 OA
BRANCH   8  11
HETATM   11  C   UNL     1     -40.872  53.365 -53.019  1.00  0.00     0.041 A 
HETATM   12  C   UNL     1     -40.024  52.888 -51.989  1.00  0.00    -0.032 A 
HETATM   13  C   UNL     1     -39.379  51.644 -52.147  1.00  0.00     0.009 A 
HETATM   14  C   UNL     1     -39.551  50.885 -53.301  1.00  0.00     0.001 A 
HETATM   15  C   UNL     1     -40.374  51.357 -54.313  1.00  0.00     0.002 A 
HETATM   16  C   UNL     1     -41.029  52.584 -54.171  1.00  0.00     0.030 A 
BRANCH  12  17
HETATM   17  C   UNL     1     -39.794  53.618 -50.682  1.00  0.00     0.036 C 
HETATM   18  C   UNL     1     -40.516  52.950 -49.522  1.00  0.00     0.010 C 
ENDBRANCH  12  17
ENDBRANCH   8  11
ENDBRANCH   6   7
ENDBRANCH   1   6
BRANCH   5  19
HETATM   19  N   UNL     1     -45.090  56.403 -54.527  1.00  0.00    -0.285 NA
HETATM   20  H   UNL     1     -45.049  55.379 -54.626  1.00  0.00     0.125 HD
HETATM   21  H   UNL     1     -45.830  56.763 -55.130  1.00  0.00     0.125 HD
ENDBRANCH   5  19
BRANCH   4  22
HETATM   22  C   UNL     1     -43.521  57.875 -56.886  1.00  0.00     0.279 C 
HETATM   23  N   UNL     1     -44.837  57.549 -57.133  1.00  0.00    -0.319 N 
HETATM   24  H   UNL     1     -45.366  57.155 -56.357  1.00  0.00     0.169 HD
HETATM   25  O   UNL     1     -42.712  58.305 -57.703  1.00  0.00    -0.265 OA
BRANCH  23  26
HETATM   26  C   UNL     1     -45.577  57.712 -58.324  1.00  0.00     0.069 A 
HETATM   27  C   UNL     1     -45.385  56.746 -59.333  1.00  0.00     0.095 A 
HETATM   28  C   UNL     1     -46.116  56.831 -60.520  1.00  0.00     0.039 A 
HETATM   29  C   UNL     1     -47.028  57.873 -60.713  1.00  0.00     0.009 A 
HETATM   30  C   UNL     1     -47.210  58.848 -59.727  1.00  0.00    -0.060 A 
HETATM   31  C   UNL     1     -48.218  59.943 -59.912  1.00  0.00     0.048 C 
HETATM   32  C   UNL     1     -46.488  58.752 -58.529  1.00  0.00     0.039 A 
BRANCH  27  33
HETATM   33  O   UNL     1     -44.471  55.760 -59.042  1.00  0.00    -0.354 OA
HETATM   34  C   UNL     1     -44.613  54.525 -59.732  1.00  0.00     0.210 C 
ENDBRANCH  27  33
ENDBRANCH  23  26
ENDBRANCH   4  22
TORSDOF 8
ENDMDL
MODEL 5
REMARK VINA RESULT:      -8.1      2.453      3.068
REMARK  8 active torsions:
REMARK  status: ('A' for Active; 'I' for Inactive)
REMARK    1  A    between atoms: C_2  and  C_3 
REMARK    2  A    between atoms: C_4  and  N_5 
REMARK       I    between atoms: N_5  and  C_6 
REMARK    3  A    between atoms: C_6  and  C_7 
REMARK    4  A    between atoms: C_7  and  N_8 
REMARK    5  A    between atoms: C_11  and  C_12 
REMARK       I    between atoms: C_12  and  N_13 
REMARK    6  A    between atoms: N_13  and  C_14 
REMARK    7  A    between atoms: C_15  and  O_16 
REMARK    8  A    between atoms: C_24  and  N_25 
ROOT
HETATM    1  N   UNL     1     -43.125  56.903 -53.529  1.00  0.00    -0.252 N 
HETATM    2  N   UNL     1     -42.015  57.573 -53.890  1.00  0.00     0.007 NA
HETATM    3  N   UNL     1     -42.133  57.882 -55.175  1.00  0.00    -0.151 NA
HETATM    4  C   UNL     1     -43.349  57.415 -55.624  1.00  0.00     0.181 A 
HETATM    5  C   UNL     1     -44.023  56.829 -54.567  1.00  0.00     0.130 A 
ENDROOT
BRANCH   1   6
HETATM    6  C   UNL     1     -43.222  56.282 -52.228  1.00  0.00     0.251 C 
BRANCH   6   7
HETATM    7  C   UNL     1     -42.777  54.830 -52.225  1.00  0.00     0.241 C 
HETATM    8  N   UNL     1     -41.589  54.572 -52.896  1.00  0.00    -0.325 N 
HETATM    9  H   UNL     1     -41.124  55.371 -53.320  1.00  0.00     0.169 HD
HETATM   10  O   UNL     1     -43.517  53.983 -51.727  1.00  0.00    -0.271 OA
BRANCH   8  11
HETATM   11  C   UNL     1     -40.904  53.336 -53.022  1.00  0.00     0.041 A 
HETATM   12  C   UNL     1     -40.056  52.904 -51.973  1.00  0.00    -0.032 A 
HETATM   13  C   UNL     1     -39.396  51.663 -52.086  1.00  0.00     0.009 A 
HETATM   14  C   UNL     1     -39.554  50.864 -53.214  1.00  0.00     0.001 A 
HETATM   15  C   UNL     1     -40.376  51.292 -54.246  1.00  0.00     0.002 A 
HETATM   16  C   UNL     1     -41.046  52.516 -54.149  1.00  0.00     0.030 A 
BRANCH  12  17
HETATM   17  C   UNL     1     -39.840  53.680 -50.690  1.00  0.00     0.036 C 
HETATM   18  C   UNL     1     -40.541  53.029 -49.507  1.00  0.00     0.010 C 
ENDBRANCH  12  17
ENDBRANCH   8  11
ENDBRANCH   6   7
ENDBRANCH   1   6
BRANCH   5  19
HETATM   19  N   UNL     1     -45.222  56.192 -54.476  1.00  0.00    -0.285 NA
HETATM   20  H   UNL     1     -45.871  56.381 -55.253  1.00  0.00     0.125 HD
HETATM   21  H   UNL     1     -45.741  56.224 -53.598  1.00  0.00     0.125 HD
ENDBRANCH   5  19
BRANCH   4  22
HETATM   22  C   UNL     1     -43.794  57.509 -57.009  1.00  0.00     0.279 C 
HETATM   23  N   UNL     1     -45.124  57.854 -57.117  1.00  0.00    -0.319 N 
HETATM   24  H   UNL     1     -45.647  57.939 -56.247  1.00  0.00     0.169 HD
HETATM   25  O   UNL     1     -43.018  57.305 -57.938  1.00  0.00    -0.265 OA
BRANCH  23  26
HETATM   26  C   UNL     1     -45.870  58.138 -58.280  1.00  0.00     0.069 A 
HETATM   27  C   UNL     1     -46.130  59.495 -58.559  1.00  0.00     0.095 A 
HETATM   28  C   UNL     1     -46.831  59.843 -59.715  1.00  0.00     0.039 A 
HETATM   29  C   UNL     1     -47.283  58.850 -60.590  1.00  0.00     0.009 A 
HETATM   30  C   UNL     1     -47.050  57.500 -60.313  1.00  0.00    -0.060 A 
HETATM   31  C   UNL     1     -47.496  56.435 -61.270  1.00  0.00     0.048 C 
HETATM   32  C   UNL     1     -46.331  57.153 -59.160  1.00  0.00     0.039 A 
BRANCH  27  33
HETATM   33  O   UNL     1     -45.637  60.392 -57.639  1.00  0.00    -0.354 OA
HETATM   34  C   UNL     1     -44.574  61.236 -58.065  1.00  0.00     0.210 C 
ENDBRANCH  27  33
ENDBRANCH  23  26
ENDBRANCH   4  22
TORSDOF 8
ENDMDL
MODEL 6
REMARK VINA RESULT:      -7.9      1.698      7.614
REMARK  8 active torsions:
REMARK  status: ('A' for Active; 'I' for Inactive)
REMARK    1  A    between atoms: C_2  and  C_3 
REMARK    2  A    between atoms: C_4  and  N_5 
REMARK       I    between atoms: N_5  and  C_6 
REMARK    3  A    between atoms: C_6  and  C_7 
REMARK    4  A    between atoms: C_7  and  N_8 
REMARK    5  A    between atoms: C_11  and  C_12 
REMARK       I    between atoms: C_12  and  N_13 
REMARK    6  A    between atoms: N_13  and  C_14 
REMARK    7  A    between atoms: C_15  and  O_16 
REMARK    8  A    between atoms: C_24  and  N_25 
ROOT
HETATM    1  N   UNL     1     -43.226  58.243 -54.451  1.00  0.00    -0.252 N 
HETATM    2  N   UNL     1     -41.952  58.439 -54.064  1.00  0.00     0.007 NA
HETATM    3  N   UNL     1     -41.476  57.273 -53.646  1.00  0.00    -0.151 NA
HETATM    4  C   UNL     1     -42.462  56.323 -53.792  1.00  0.00     0.181 A 
HETATM    5  C   UNL     1     -43.578  56.917 -54.358  1.00  0.00     0.130 A 
ENDROOT
BRANCH   1   6
HETATM    6  C   UNL     1     -44.072  59.361 -54.801  1.00  0.00     0.251 C 
BRANCH   6   7
HETATM    7  C   UNL     1     -43.991  59.733 -56.271  1.00  0.00     0.241 C 
HETATM    8  N   UNL     1     -42.830  59.334 -56.921  1.00  0.00    -0.325 N 
HETATM    9  H   UNL     1     -42.147  58.830 -56.362  1.00  0.00     0.169 HD
HETATM   10  O   UNL     1     -44.885  60.422 -56.760  1.00  0.00    -0.271 OA
BRANCH   8  11
HETATM   11  C   UNL     1     -42.492  59.494 -58.290  1.00  0.00     0.041 A 
HETATM   12  C   UNL     1     -42.491  58.360 -59.139  1.00  0.00    -0.032 A 
HETATM   13  C   UNL     1     -42.182  58.522 -60.506  1.00  0.00     0.009 A 
HETATM   14  C   UNL     1     -41.867  59.772 -61.029  1.00  0.00     0.001 A 
HETATM   15  C   UNL     1     -41.859  60.880 -60.195  1.00  0.00     0.002 A 
HETATM   16  C   UNL     1     -42.171  60.741 -58.839  1.00  0.00     0.030 A 
BRANCH  12  17
HETATM   17  C   UNL     1     -42.850  56.962 -58.679  1.00  0.00     0.036 C 
HETATM   18  C   UNL     1     -44.255  56.565 -59.109  1.00  0.00     0.010 C 
ENDBRANCH  12  17
ENDBRANCH   8  11
ENDBRANCH   6   7
ENDBRANCH   1   6
BRANCH   5  19
HETATM   19  N   UNL     1     -44.815  56.446 -54.672  1.00  0.00    -0.285 NA
HETATM   20  H   UNL     1     -45.276  56.934 -55.454  1.00  0.00     0.125 HD
HETATM   21  H   UNL     1     -45.498  56.297 -53.929  1.00  0.00     0.125 HD
ENDBRANCH   5  19
BRANCH   4  22
HETATM   22  C   UNL     1     -42.324  54.936 -53.367  1.00  0.00     0.279 C 
HETATM   23  N   UNL     1     -41.039  54.460 -53.518  1.00  0.00    -0.319 N 
HETATM   24  H   UNL     1     -40.366  55.088 -53.955  1.00  0.00     0.169 HD
HETATM   25  O   UNL     1     -43.282  54.312 -52.919  1.00  0.00    -0.265 OA
BRANCH  23  26
HETATM   26  C   UNL     1     -40.507  53.215 -53.122  1.00  0.00     0.069 A 
HETATM   27  C   UNL     1     -40.160  53.070 -51.763  1.00  0.00     0.095 A 
HETATM   28  C   UNL     1     -39.664  51.849 -51.302  1.00  0.00     0.039 A 
HETATM   29  C   UNL     1     -39.501  50.777 -52.183  1.00  0.00     0.009 A 
HETATM   30  C   UNL     1     -39.823  50.915 -53.537  1.00  0.00    -0.060 A 
HETATM   31  C   UNL     1     -39.691  49.754 -54.477  1.00  0.00     0.048 C 
HETATM   32  C   UNL     1     -40.337  52.136 -53.996  1.00  0.00     0.039 A 
BRANCH  27  33
HETATM   33  O   UNL     1     -40.363  54.183 -50.980  1.00  0.00    -0.354 OA
HETATM   34  C   UNL     1     -39.727  54.201 -49.708  1.00  0.00     0.210 C 
ENDBRANCH  27  33
ENDBRANCH  23  26
ENDBRANCH   4  22
TORSDOF 8
ENDMDL
MODEL 7
REMARK VINA RESULT:      -7.9      2.494      8.639
REMARK  8 active torsions:
REMARK  status: ('A' for Active; 'I' for Inactive)
REMARK    1  A    between atoms: C_2  and  C_3 
REMARK    2  A    between atoms: C_4  and  N_5 
REMARK       I    between atoms: N_5  and  C_6 
REMARK    3  A    between atoms: C_6  and  C_7 
REMARK    4  A    between atoms: C_7  and  N_8 
REMARK    5  A    between atoms: C_11  and  C_12 
REMARK       I    between atoms: C_12  and  N_13 
REMARK    6  A    between atoms: N_13  and  C_14 
REMARK    7  A    between atoms: C_15  and  O_16 
REMARK    8  A    between atoms: C_24  and  N_25 
ROOT
HETATM    1  N   UNL     1     -43.252  57.565 -57.542  1.00  0.00    -0.252 N 
HETATM    2  N   UNL     1     -42.554  58.152 -56.552  1.00  0.00     0.007 NA
HETATM    3  N   UNL     1     -42.146  57.196 -55.727  1.00  0.00    -0.151 NA
HETATM    4  C   UNL     1     -42.577  55.985 -56.220  1.00  0.00     0.181 A 
HETATM    5  C   UNL     1     -43.246  56.197 -57.414  1.00  0.00     0.130 A 
ENDROOT
BRANCH   1   6
HETATM    6  C   UNL     1     -43.973  58.360 -58.509  1.00  0.00     0.251 C 
BRANCH   6   7
HETATM    7  C   UNL     1     -43.421  59.768 -58.653  1.00  0.00     0.241 C 
HETATM    8  N   UNL     1     -42.162  59.856 -59.233  1.00  0.00    -0.325 N 
HETATM    9  H   UNL     1     -41.729  58.979 -59.512  1.00  0.00     0.169 HD
HETATM   10  O   UNL     1     -44.058  60.708 -58.180  1.00  0.00    -0.271 OA
BRANCH   8  11
HETATM   11  C   UNL     1     -41.417  61.023 -59.540  1.00  0.00     0.041 A 
HETATM   12  C   UNL     1     -41.362  61.477 -60.880  1.00  0.00    -0.032 A 
HETATM   13  C   UNL     1     -40.644  62.654 -61.182  1.00  0.00     0.009 A 
HETATM   14  C   UNL     1     -39.981  63.367 -60.188  1.00  0.00     0.001 A 
HETATM   15  C   UNL     1     -40.027  62.916 -58.877  1.00  0.00     0.002 A 
HETATM   16  C   UNL     1     -40.741  61.757 -58.557  1.00  0.00     0.030 A 
BRANCH  12  17
HETATM   17  C   UNL     1     -42.074  60.796 -62.031  1.00  0.00     0.036 C 
HETATM   18  C   UNL     1     -42.858  61.784 -62.881  1.00  0.00     0.010 C 
ENDBRANCH  12  17
ENDBRANCH   8  11
ENDBRANCH   6   7
ENDBRANCH   1   6
BRANCH   5  19
HETATM   19  N   UNL     1     -43.890  55.361 -58.272  1.00  0.00    -0.285 NA
HETATM   20  H   UNL     1     -44.918  55.417 -58.240  1.00  0.00     0.125 HD
HETATM   21  H   UNL     1     -43.615  54.379 -58.315  1.00  0.00     0.125 HD
ENDBRANCH   5  19
BRANCH   4  22
HETATM   22  C   UNL     1     -42.375  54.712 -55.538  1.00  0.00     0.279 C 
HETATM   23  N   UNL     1     -41.153  54.636 -54.906  1.00  0.00    -0.319 N 
HETATM   24  H   UNL     1     -40.521  55.425 -55.035  1.00  0.00     0.169 HD
HETATM   25  O   UNL     1     -43.243  53.844 -55.549  1.00  0.00    -0.265 OA
BRANCH  23  26
HETATM   26  C   UNL     1     -40.654  53.616 -54.070  1.00  0.00     0.069 A 
HETATM   27  C   UNL     1     -40.599  53.891 -52.688  1.00  0.00     0.095 A 
HETATM   28  C   UNL     1     -40.150  52.908 -51.803  1.00  0.00     0.039 A 
HETATM   29  C   UNL     1     -39.747  51.659 -52.284  1.00  0.00     0.009 A 
HETATM   30  C   UNL     1     -39.778  51.382 -53.654  1.00  0.00    -0.060 A 
HETATM   31  C   UNL     1     -39.386  50.029 -54.170  1.00  0.00     0.048 C 
HETATM   32  C   UNL     1     -40.245  52.365 -54.540  1.00  0.00     0.039 A 
BRANCH  27  33
HETATM   33  O   UNL     1     -41.023  55.147 -52.318  1.00  0.00    -0.354 OA
HETATM   34  C   UNL     1     -41.166  55.395 -50.925  1.00  0.00     0.210 C 
ENDBRANCH  27  33
ENDBRANCH  23  26
ENDBRANCH   4  22
TORSDOF 8
ENDMDL
MODEL 8
REMARK VINA RESULT:      -7.9      2.914      7.355
REMARK  8 active torsions:
REMARK  status: ('A' for Active; 'I' for Inactive)
REMARK    1  A    between atoms: C_2  and  C_3 
REMARK    2  A    between atoms: C_4  and  N_5 
REMARK       I    between atoms: N_5  and  C_6 
REMARK    3  A    between atoms: C_6  and  C_7 
REMARK    4  A    between atoms: C_7  and  N_8 
REMARK    5  A    between atoms: C_11  and  C_12 
REMARK       I    between atoms: C_12  and  N_13 
REMARK    6  A    between atoms: N_13  and  C_14 
REMARK    7  A    between atoms: C_15  and  O_16 
REMARK    8  A    between atoms: C_24  and  N_25 
ROOT
HETATM    1  N   UNL     1     -44.095  57.362 -55.310  1.00  0.00    -0.252 N 
HETATM    2  N   UNL     1     -43.308  57.728 -56.339  1.00  0.00     0.007 NA
HETATM    3  N   UNL     1     -42.179  57.036 -56.247  1.00  0.00    -0.151 NA
HETATM    4  C   UNL     1     -42.268  56.206 -55.151  1.00  0.00     0.181 A 
HETATM    5  C   UNL     1     -43.513  56.363 -54.567  1.00  0.00     0.130 A 
ENDROOT
BRANCH   1   6
HETATM    6  C   UNL     1     -45.328  58.064 -55.039  1.00  0.00     0.251 C 
BRANCH   6   7
HETATM    7  C   UNL     1     -45.160  59.205 -54.051  1.00  0.00     0.241 C 
HETATM    8  N   UNL     1     -44.910  58.824 -52.739  1.00  0.00    -0.325 N 
HETATM    9  H   UNL     1     -44.859  57.824 -52.560  1.00  0.00     0.169 HD
HETATM   10  O   UNL     1     -45.339  60.359 -54.439  1.00  0.00    -0.271 OA
BRANCH   8  11
HETATM   11  C   UNL     1     -44.663  59.654 -51.616  1.00  0.00     0.041 A 
HETATM   12  C   UNL     1     -43.327  59.975 -51.273  1.00  0.00    -0.032 A 
HETATM   13  C   UNL     1     -43.081  60.823 -50.173  1.00  0.00     0.009 A 
HETATM   14  C   UNL     1     -44.127  61.337 -49.413  1.00  0.00     0.001 A 
HETATM   15  C   UNL     1     -45.436  61.014 -49.743  1.00  0.00     0.002 A 
HETATM   16  C   UNL     1     -45.700  60.182 -50.836  1.00  0.00     0.030 A 
BRANCH  12  17
HETATM   17  C   UNL     1     -42.119  59.496 -52.051  1.00  0.00     0.036 C 
HETATM   18  C   UNL     1     -41.649  58.125 -51.586  1.00  0.00     0.010 C 
ENDBRANCH  12  17
ENDBRANCH   8  11
ENDBRANCH   6   7
ENDBRANCH   1   6
BRANCH   5  19
HETATM   19  N   UNL     1     -44.089  55.820 -53.460  1.00  0.00    -0.285 NA
HETATM   20  H   UNL     1     -43.503  55.846 -52.613  1.00  0.00     0.125 HD
HETATM   21  H   UNL     1     -44.534  54.904 -53.526  1.00  0.00     0.125 HD
ENDBRANCH   5  19
BRANCH   4  22
HETATM   22  C   UNL     1     -41.183  55.346 -54.694  1.00  0.00     0.279 C 
HETATM   23  N   UNL     1     -41.628  54.292 -53.927  1.00  0.00    -0.319 N 
HETATM   24  H   UNL     1     -42.624  54.266 -53.718  1.00  0.00     0.169 HD
HETATM   25  O   UNL     1     -40.017  55.580 -55.002  1.00  0.00    -0.265 OA
BRANCH  23  26
HETATM   26  C   UNL     1     -40.891  53.208 -53.404  1.00  0.00     0.069 A 
HETATM   27  C   UNL     1     -40.516  53.286 -52.047  1.00  0.00     0.095 A 
HETATM   28  C   UNL     1     -39.817  52.228 -51.460  1.00  0.00     0.039 A 
HETATM   29  C   UNL     1     -39.481  51.101 -52.216  1.00  0.00     0.009 A 
HETATM   30  C   UNL     1     -39.830  51.023 -53.567  1.00  0.00    -0.060 A 
HETATM   31  C   UNL     1     -39.508  49.797 -54.370  1.00  0.00     0.048 C 
HETATM   32  C   UNL     1     -40.546  52.078 -54.151  1.00  0.00     0.039 A 
BRANCH  27  33
HETATM   33  O   UNL     1     -40.899  54.434 -51.392  1.00  0.00    -0.354 OA
HETATM   34  C   UNL     1     -41.846  54.291 -50.340  1.00  0.00     0.210 C 
ENDBRANCH  27  33
ENDBRANCH  23  26
ENDBRANCH   4  22
TORSDOF 8
ENDMDL
MODEL 9
REMARK VINA RESULT:      -7.7      1.789      2.593
REMARK  8 active torsions:
REMARK  status: ('A' for Active; 'I' for Inactive)
REMARK    1  A    between atoms: C_2  and  C_3 
REMARK    2  A    between atoms: C_4  and  N_5 
REMARK       I    between atoms: N_5  and  C_6 
REMARK    3  A    between atoms: C_6  and  C_7 
REMARK    4  A    between atoms: C_7  and  N_8 
REMARK    5  A    between atoms: C_11  and  C_12 
REMARK       I    between atoms: C_12  and  N_13 
REMARK    6  A    between atoms: N_13  and  C_14 
REMARK    7  A    between atoms: C_15  and  O_16 
REMARK    8  A    between atoms: C_24  and  N_25 
ROOT
HETATM    1  N   UNL     1     -41.492  56.837 -51.161  1.00  0.00    -0.252 N 
HETATM    2  N   UNL     1     -40.547  57.788 -51.040  1.00  0.00     0.007 NA
HETATM    3  N   UNL     1     -40.635  58.578 -52.103  1.00  0.00    -0.151 NA
HETATM    4  C   UNL     1     -41.668  58.126 -52.895  1.00  0.00     0.181 A 
HETATM    5  C   UNL     1     -42.264  57.039 -52.280  1.00  0.00     0.130 A 
ENDROOT
BRANCH   1   6
HETATM    6  C   UNL     1     -41.540  55.724 -50.241  1.00  0.00     0.251 C 
BRANCH   6   7
HETATM    7  C   UNL     1     -41.641  54.378 -50.938  1.00  0.00     0.241 C 
HETATM    8  N   UNL     1     -40.486  53.956 -51.584  1.00  0.00    -0.325 N 
HETATM    9  H   UNL     1     -39.683  54.576 -51.528  1.00  0.00     0.169 HD
HETATM   10  O   UNL     1     -42.729  53.804 -50.968  1.00  0.00    -0.271 OA
BRANCH   8  11
HETATM   11  C   UNL     1     -40.263  52.736 -52.272  1.00  0.00     0.041 A 
HETATM   12  C   UNL     1     -40.613  52.639 -53.641  1.00  0.00    -0.032 A 
HETATM   13  C   UNL     1     -40.366  51.435 -54.333  1.00  0.00     0.009 A 
HETATM   14  C   UNL     1     -39.795  50.340 -53.691  1.00  0.00     0.001 A 
HETATM   15  C   UNL     1     -39.461  50.432 -52.348  1.00  0.00     0.002 A 
HETATM   16  C   UNL     1     -39.691  51.620 -51.647  1.00  0.00     0.030 A 
BRANCH  12  17
HETATM   17  C   UNL     1     -41.208  53.779 -54.441  1.00  0.00     0.036 C 
HETATM   18  C   UNL     1     -40.134  54.665 -55.054  1.00  0.00     0.010 C 
ENDBRANCH  12  17
ENDBRANCH   8  11
ENDBRANCH   6   7
ENDBRANCH   1   6
BRANCH   5  19
HETATM   19  N   UNL     1     -43.282  56.214 -52.647  1.00  0.00    -0.285 NA
HETATM   20  H   UNL     1     -43.225  55.864 -53.614  1.00  0.00     0.125 HD
HETATM   21  H   UNL     1     -44.245  56.489 -52.451  1.00  0.00     0.125 HD
ENDBRANCH   5  19
BRANCH   4  22
HETATM   22  C   UNL     1     -42.014  58.706 -54.187  1.00  0.00     0.279 C 
HETATM   23  N   UNL     1     -43.160  58.162 -54.723  1.00  0.00    -0.319 N 
HETATM   24  H   UNL     1     -43.589  57.396 -54.207  1.00  0.00     0.169 HD
HETATM   25  O   UNL     1     -41.326  59.591 -54.688  1.00  0.00    -0.265 OA
BRANCH  23  26
HETATM   26  C   UNL     1     -43.852  58.539 -55.894  1.00  0.00     0.069 A 
HETATM   27  C   UNL     1     -43.589  57.795 -57.062  1.00  0.00     0.095 A 
HETATM   28  C   UNL     1     -44.270  58.096 -58.243  1.00  0.00     0.039 A 
HETATM   29  C   UNL     1     -45.202  59.137 -58.272  1.00  0.00     0.009 A 
HETATM   30  C   UNL     1     -45.456  59.895 -57.126  1.00  0.00    -0.060 A 
HETATM   31  C   UNL     1     -46.487  60.985 -57.143  1.00  0.00     0.048 C 
HETATM   32  C   UNL     1     -44.784  59.581 -55.936  1.00  0.00     0.039 A 
BRANCH  27  33
HETATM   33  O   UNL     1     -42.659  56.790 -56.924  1.00  0.00    -0.354 OA
HETATM   34  C   UNL     1     -43.010  55.511 -57.438  1.00  0.00     0.210 C 
ENDBRANCH  27  33
ENDBRANCH  23  26
ENDBRANCH   4  22
TORSDOF 8
ENDMDL
MODEL 10
REMARK VINA RESULT:      -7.4      4.331      8.580
REMARK  8 active torsions:
REMARK  status: ('A' for Active; 'I' for Inactive)
REMARK    1  A    between atoms: C_2  and  C_3 
REMARK    2  A    between atoms: C_4  and  N_5 
REMARK       I    between atoms: N_5  and  C_6 
REMARK    3  A    between atoms: C_6  and  C_7 
REMARK    4  A    between atoms: C_7  and  N_8 
REMARK    5  A    between atoms: C_11  and  C_12 
REMARK       I    between atoms: C_12  and  N_13 
REMARK    6  A    between atoms: N_13  and  C_14 
REMARK    7  A    between atoms: C_15  and  O_16 
REMARK    8  A    between atoms: C_24  and  N_25 
ROOT
HETATM    1  N   UNL     1     -44.379  58.426 -52.646  1.00  0.00    -0.252 N 
HETATM    2  N   UNL     1     -43.482  58.434 -53.650  1.00  0.00     0.007 NA
HETATM    3  N   UNL     1     -42.879  57.251 -53.658  1.00  0.00    -0.151 NA
HETATM    4  C   UNL     1     -43.423  56.480 -52.654  1.00  0.00     0.181 A 
HETATM    5  C   UNL     1     -44.425  57.200 -52.027  1.00  0.00     0.130 A 
ENDROOT
BRANCH   1   6
HETATM    6  C   UNL     1     -45.078  59.634 -52.273  1.00  0.00     0.251 C 
BRANCH   6   7
HETATM    7  C   UNL     1     -44.280  60.517 -51.329  1.00  0.00     0.241 C 
HETATM    8  N   UNL     1     -44.821  61.774 -51.092  1.00  0.00    -0.325 N 
HETATM    9  H   UNL     1     -45.697  61.987 -51.562  1.00  0.00     0.169 HD
HETATM   10  O   UNL     1     -43.192  60.117 -50.917  1.00  0.00    -0.271 OA
BRANCH   8  11
HETATM   11  C   UNL     1     -44.335  62.790 -50.230  1.00  0.00     0.041 A 
HETATM   12  C   UNL     1     -44.932  62.962 -48.956  1.00  0.00    -0.032 A 
HETATM   13  C   UNL     1     -44.431  63.953 -48.087  1.00  0.00     0.009 A 
HETATM   14  C   UNL     1     -43.371  64.772 -48.464  1.00  0.00     0.001 A 
HETATM   15  C   UNL     1     -42.793  64.610 -49.715  1.00  0.00     0.002 A 
HETATM   16  C   UNL     1     -43.270  63.626 -50.588  1.00  0.00     0.030 A 
BRANCH  12  17
HETATM   17  C   UNL     1     -46.067  62.105 -48.436  1.00  0.00     0.036 C 
HETATM   18  C   UNL     1     -45.564  60.958 -47.571  1.00  0.00     0.010 C 
ENDBRANCH  12  17
ENDBRANCH   8  11
ENDBRANCH   6   7
ENDBRANCH   1   6
BRANCH   5  19
HETATM   19  N   UNL     1     -45.236  56.925 -50.969  1.00  0.00    -0.285 NA
HETATM   20  H   UNL     1     -44.919  56.147 -50.373  1.00  0.00     0.125 HD
HETATM   21  H   UNL     1     -46.242  56.836 -51.120  1.00  0.00     0.125 HD
ENDBRANCH   5  19
BRANCH   4  22
HETATM   22  C   UNL     1     -42.957  55.140 -52.316  1.00  0.00     0.279 C 
HETATM   23  N   UNL     1     -41.734  54.846 -52.878  1.00  0.00    -0.319 N 
HETATM   24  H   UNL     1     -41.333  55.548 -53.498  1.00  0.00     0.169 HD
HETATM   25  O   UNL     1     -43.622  54.403 -51.593  1.00  0.00    -0.265 OA
BRANCH  23  26
HETATM   26  C   UNL     1     -40.930  53.702 -52.691  1.00  0.00     0.069 A 
HETATM   27  C   UNL     1     -40.251  53.591 -51.460  1.00  0.00     0.095 A 
HETATM   28  C   UNL     1     -39.469  52.464 -51.200  1.00  0.00     0.039 A 
HETATM   29  C   UNL     1     -39.350  51.453 -52.158  1.00  0.00     0.009 A 
HETATM   30  C   UNL     1     -40.003  51.562 -53.390  1.00  0.00    -0.060 A 
HETATM   31  C   UNL     1     -39.913  50.460 -54.403  1.00  0.00     0.048 C 
HETATM   32  C   UNL     1     -40.801  52.687 -53.643  1.00  0.00     0.039 A 
BRANCH  27  33
HETATM   33  O   UNL     1     -40.438  54.637 -50.586  1.00  0.00    -0.354 OA
HETATM   34  C   UNL     1     -40.881  54.310 -49.274  1.00  0.00     0.210 C 
ENDBRANCH  27  33
ENDBRANCH  23  26
ENDBRANCH   4  22
TORSDOF 8
ENDMDL
