MODEL 1
REMARK VINA RESULT:      -7.2      0.000      0.000
REMARK  2 active torsions:
REMARK  status: ('A' for Active; 'I' for Inactive)
REMARK    1  A    between atoms: C_3  and  N_4 
REMARK       I    between atoms: N_4  and  C_5 
REMARK       I    between atoms: C_5  and  N_6 
REMARK    2  A    between atoms: N_6  and  C_7 
ROOT
HETATM    1  N   UNL     1     -42.300  53.984 -54.177  1.00  0.00    -0.307 N 
HETATM    2  C   UNL     1     -42.006  54.984 -55.073  1.00  0.00     0.321 C 
HETATM    3  N   UNL     1     -43.058  55.162 -55.955  1.00  0.00    -0.338 N 
HETATM    4  O   UNL     1     -40.968  55.625 -55.169  1.00  0.00    -0.247 OA
HETATM    5  H   UNL     1     -42.914  53.280 -54.562  1.00  0.00     0.170 HD
HETATM    6  H   UNL     1     -43.969  54.914 -55.587  1.00  0.00     0.164 HD
ENDROOT
BRANCH   3   7
HETATM    7  C   UNL     1     -43.011  56.115 -57.063  1.00  0.00     0.090 C 
HETATM    8  C   UNL     1     -43.364  55.449 -58.404  1.00  0.00     0.058 C 
HETATM    9  C   UNL     1     -43.702  56.418 -59.538  1.00  0.00     0.190 C 
HETATM   10  N   UNL     1     -44.732  57.390 -59.019  1.00  0.00    -0.066 N 
HETATM   11  C   UNL     1     -42.501  57.174 -60.120  1.00  0.00     0.033 C 
HETATM   12  H   UNL     1     -45.459  56.817 -58.554  1.00  0.00     0.280 HD
HETATM   13  C   UNL     1     -45.489  58.130 -60.090  1.00  0.00     0.270 C 
HETATM   14  C   UNL     1     -44.150  58.272 -57.942  1.00  0.00     0.190 C 
HETATM   15  C   UNL     1     -43.820  57.384 -56.742  1.00  0.00     0.058 C 
HETATM   16  C   UNL     1     -42.963  59.070 -58.492  1.00  0.00     0.033 C 
HETATM   17  C   UNL     1     -41.905  58.236 -59.203  1.00  0.00     0.004 C 
ENDBRANCH   3   7
BRANCH   1  18
HETATM   18  C   UNL     1     -41.500  53.553 -53.091  1.00  0.00     0.059 A 
HETATM   19  C   UNL     1     -40.542  52.531 -53.117  1.00  0.00    -0.032 A 
HETATM   20  C   UNL     1     -40.147  51.755 -54.339  1.00  0.00     0.050 C 
HETATM   21  C   UNL     1     -39.867  52.224 -51.920  1.00  0.00     0.028 A 
HETATM   22  C   UNL     1     -40.119  52.966 -50.777  1.00  0.00     0.117 A 
HETATM   23  N   UNL     1     -40.989  53.990 -50.738  1.00  0.00    -0.271 NA
HETATM   24  C   UNL     1     -41.648  54.258 -51.888  1.00  0.00     0.146 A 
ENDBRANCH   1  18
TORSDOF 2
ENDMDL
MODEL 2
REMARK VINA RESULT:      -7.1      1.609      2.747
REMARK  2 active torsions:
REMARK  status: ('A' for Active; 'I' for Inactive)
REMARK    1  A    between atoms: C_3  and  N_4 
REMARK       I    between atoms: N_4  and  C_5 
REMARK       I    between atoms: C_5  and  N_6 
REMARK    2  A    between atoms: N_6  and  C_7 
ROOT
HETATM    1  N   UNL     1     -41.013  55.082 -55.275  1.00  0.00    -0.307 N 
HETATM    2  C   UNL     1     -42.158  55.114 -56.035  1.00  0.00     0.321 C 
HETATM    3  N   UNL     1     -42.065  56.100 -57.002  1.00  0.00    -0.338 N 
HETATM    4  O   UNL     1     -43.170  54.439 -55.897  1.00  0.00    -0.247 OA
HETATM    5  H   UNL     1     -40.566  55.985 -55.202  1.00  0.00     0.170 HD
HETATM    6  H   UNL     1     -41.121  56.313 -57.304  1.00  0.00     0.164 HD
ENDROOT
BRANCH   3   7
HETATM    7  C   UNL     1     -43.158  56.413 -57.923  1.00  0.00     0.090 C 
HETATM    8  C   UNL     1     -43.962  57.638 -57.455  1.00  0.00     0.058 C 
HETATM    9  C   UNL     1     -44.870  58.259 -58.518  1.00  0.00     0.190 C 
HETATM   10  N   UNL     1     -44.039  58.477 -59.760  1.00  0.00    -0.066 N 
HETATM   11  C   UNL     1     -46.123  57.442 -58.853  1.00  0.00     0.033 C 
HETATM   12  H   UNL     1     -43.169  58.941 -59.444  1.00  0.00     0.280 HD
HETATM   13  C   UNL     1     -44.631  59.452 -60.743  1.00  0.00     0.270 C 
HETATM   14  C   UNL     1     -43.612  57.162 -60.363  1.00  0.00     0.190 C 
HETATM   15  C   UNL     1     -42.658  56.487 -59.377  1.00  0.00     0.058 C 
HETATM   16  C   UNL     1     -44.838  56.326 -60.741  1.00  0.00     0.033 C 
HETATM   17  C   UNL     1     -45.864  56.154 -59.627  1.00  0.00     0.004 C 
ENDBRANCH   3   7
BRANCH   1  18
HETATM   18  C   UNL     1     -40.710  54.176 -54.230  1.00  0.00     0.059 A 
HETATM   19  C   UNL     1     -40.899  54.393 -52.859  1.00  0.00    -0.032 A 
HETATM   20  C   UNL     1     -41.530  55.617 -52.262  1.00  0.00     0.050 C 
HETATM   21  C   UNL     1     -40.504  53.379 -51.966  1.00  0.00     0.028 A 
HETATM   22  C   UNL     1     -40.000  52.185 -52.458  1.00  0.00     0.117 A 
HETATM   23  N   UNL     1     -39.863  51.926 -53.770  1.00  0.00    -0.271 NA
HETATM   24  C   UNL     1     -40.223  52.919 -54.615  1.00  0.00     0.146 A 
ENDBRANCH   1  18
TORSDOF 2
ENDMDL
MODEL 3
REMARK VINA RESULT:      -7.1      2.348      3.765
REMARK  2 active torsions:
REMARK  status: ('A' for Active; 'I' for Inactive)
REMARK    1  A    between atoms: C_3  and  N_4 
REMARK       I    between atoms: N_4  and  C_5 
REMARK       I    between atoms: C_5  and  N_6 
REMARK    2  A    between atoms: N_6  and  C_7 
ROOT
HETATM    1  N   UNL     1     -40.139  53.170 -54.221  1.00  0.00    -0.307 N 
HETATM    2  C   UNL     1     -41.232  53.999 -54.132  1.00  0.00     0.321 C 
HETATM    3  N   UNL     1     -41.090  55.073 -54.994  1.00  0.00    -0.338 N 
HETATM    4  O   UNL     1     -42.195  53.894 -53.385  1.00  0.00    -0.247 OA
HETATM    5  H   UNL     1     -39.292  53.663 -54.468  1.00  0.00     0.170 HD
HETATM    6  H   UNL     1     -40.523  54.890 -55.813  1.00  0.00     0.164 HD
ENDROOT
BRANCH   3   7
HETATM    7  C   UNL     1     -42.068  56.158 -55.075  1.00  0.00     0.090 C 
HETATM    8  C   UNL     1     -41.653  57.364 -54.214  1.00  0.00     0.058 C 
HETATM    9  C   UNL     1     -42.399  58.664 -54.519  1.00  0.00     0.190 C 
HETATM   10  N   UNL     1     -42.333  58.891 -56.010  1.00  0.00    -0.066 N 
HETATM   11  C   UNL     1     -43.855  58.698 -54.039  1.00  0.00     0.033 C 
HETATM   12  H   UNL     1     -41.343  58.754 -56.277  1.00  0.00     0.280 HD
HETATM   13  C   UNL     1     -42.629  60.304 -56.439  1.00  0.00     0.270 C 
HETATM   14  C   UNL     1     -43.113  57.835 -56.754  1.00  0.00     0.190 C 
HETATM   15  C   UNL     1     -42.405  56.497 -56.538  1.00  0.00     0.058 C 
HETATM   16  C   UNL     1     -44.583  57.857 -56.324  1.00  0.00     0.033 C 
HETATM   17  C   UNL     1     -44.811  57.803 -54.818  1.00  0.00     0.004 C 
ENDBRANCH   3   7
BRANCH   1  18
HETATM   18  C   UNL     1     -39.943  51.943 -53.542  1.00  0.00     0.059 A 
HETATM   19  C   UNL     1     -39.719  51.780 -52.168  1.00  0.00    -0.032 A 
HETATM   20  C   UNL     1     -39.715  52.891 -51.160  1.00  0.00     0.050 C 
HETATM   21  C   UNL     1     -39.514  50.475 -51.680  1.00  0.00     0.028 A 
HETATM   22  C   UNL     1     -39.597  49.395 -52.545  1.00  0.00     0.117 A 
HETATM   23  N   UNL     1     -39.869  49.518 -53.856  1.00  0.00    -0.271 NA
HETATM   24  C   UNL     1     -40.039  50.778 -54.315  1.00  0.00     0.146 A 
ENDBRANCH   1  18
TORSDOF 2
ENDMDL
MODEL 4
REMARK VINA RESULT:      -6.8      1.418      2.273
REMARK  2 active torsions:
REMARK  status: ('A' for Active; 'I' for Inactive)
REMARK    1  A    between atoms: C_3  and  N_4 
REMARK       I    between atoms: N_4  and  C_5 
REMARK       I    between atoms: C_5  and  N_6 
REMARK    2  A    between atoms: N_6  and  C_7 
ROOT
HETATM    1  N   UNL     1     -41.176  55.322 -54.948  1.00  0.00    -0.307 N 
HETATM    2  C   UNL     1     -42.349  55.511 -55.639  1.00  0.00     0.321 C 
HETATM    3  N   UNL     1     -42.089  56.036 -56.893  1.00  0.00    -0.338 N 
HETATM    4  O   UNL     1     -43.492  55.317 -55.244  1.00  0.00    -0.247 OA
HETATM    5  H   UNL     1     -40.456  55.982 -55.210  1.00  0.00     0.170 HD
HETATM    6  H   UNL     1     -41.183  55.794 -57.276  1.00  0.00     0.164 HD
ENDROOT
BRANCH   3   7
HETATM    7  C   UNL     1     -43.147  56.402 -57.834  1.00  0.00     0.090 C 
HETATM    8  C   UNL     1     -43.826  57.725 -57.440  1.00  0.00     0.058 C 
HETATM    9  C   UNL     1     -44.670  58.371 -58.540  1.00  0.00     0.190 C 
HETATM   10  N   UNL     1     -43.824  58.436 -59.788  1.00  0.00    -0.066 N 
HETATM   11  C   UNL     1     -45.999  57.663 -58.833  1.00  0.00     0.033 C 
HETATM   12  H   UNL     1     -42.913  58.829 -59.496  1.00  0.00     0.280 HD
HETATM   13  C   UNL     1     -44.319  59.407 -60.827  1.00  0.00     0.270 C 
HETATM   14  C   UNL     1     -43.529  57.053 -60.314  1.00  0.00     0.190 C 
HETATM   15  C   UNL     1     -42.645  56.344 -59.288  1.00  0.00     0.058 C 
HETATM   16  C   UNL     1     -44.833  56.321 -60.649  1.00  0.00     0.033 C 
HETATM   17  C   UNL     1     -45.869  56.315 -59.531  1.00  0.00     0.004 C 
ENDBRANCH   3   7
BRANCH   1  18
HETATM   18  C   UNL     1     -41.028  54.752 -53.661  1.00  0.00     0.059 A 
HETATM   19  C   UNL     1     -40.633  53.439 -53.372  1.00  0.00    -0.032 A 
HETATM   20  C   UNL     1     -40.230  52.418 -54.396  1.00  0.00     0.050 C 
HETATM   21  C   UNL     1     -40.574  53.045 -52.022  1.00  0.00     0.028 A 
HETATM   22  C   UNL     1     -40.845  53.967 -51.023  1.00  0.00     0.117 A 
HETATM   23  N   UNL     1     -41.168  55.249 -51.269  1.00  0.00    -0.271 NA
HETATM   24  C   UNL     1     -41.245  55.606 -52.571  1.00  0.00     0.146 A 
ENDBRANCH   1  18
TORSDOF 2
ENDMDL
MODEL 5
REMARK VINA RESULT:      -6.8     14.952     16.837
REMARK  2 active torsions:
REMARK  status: ('A' for Active; 'I' for Inactive)
REMARK    1  A    between atoms: C_3  and  N_4 
REMARK       I    between atoms: N_4  and  C_5 
REMARK       I    between atoms: C_5  and  N_6 
REMARK    2  A    between atoms: N_6  and  C_7 
ROOT
HETATM    1  N   UNL     1     -33.799  41.142 -52.518  1.00  0.00    -0.307 N 
HETATM    2  C   UNL     1     -34.544  40.515 -53.488  1.00  0.00     0.321 C 
HETATM    3  N   UNL     1     -34.855  41.403 -54.503  1.00  0.00    -0.338 N 
HETATM    4  O   UNL     1     -34.953  39.361 -53.491  1.00  0.00    -0.247 OA
HETATM    5  H   UNL     1     -34.007  42.129 -52.440  1.00  0.00     0.170 HD
HETATM    6  H   UNL     1     -34.187  42.154 -54.631  1.00  0.00     0.164 HD
ENDROOT
BRANCH   3   7
HETATM    7  C   UNL     1     -35.692  41.038 -55.646  1.00  0.00     0.090 C 
HETATM    8  C   UNL     1     -36.908  41.970 -55.780  1.00  0.00     0.058 C 
HETATM    9  C   UNL     1     -37.624  41.908 -57.131  1.00  0.00     0.190 C 
HETATM   10  N   UNL     1     -36.581  42.061 -58.210  1.00  0.00    -0.066 N 
HETATM   11  C   UNL     1     -38.450  40.637 -57.365  1.00  0.00     0.033 C 
HETATM   12  H   UNL     1     -36.002  42.874 -57.935  1.00  0.00     0.280 HD
HETATM   13  C   UNL     1     -37.129  42.450 -59.557  1.00  0.00     0.270 C 
HETATM   14  C   UNL     1     -35.647  40.877 -58.233  1.00  0.00     0.190 C 
HETATM   15  C   UNL     1     -34.852  40.886 -56.927  1.00  0.00     0.058 C 
HETATM   16  C   UNL     1     -36.430  39.586 -58.496  1.00  0.00     0.033 C 
HETATM   17  C   UNL     1     -37.631  39.369 -57.583  1.00  0.00     0.004 C 
ENDBRANCH   3   7
BRANCH   1  18
HETATM   18  C   UNL     1     -33.245  40.553 -51.355  1.00  0.00     0.059 A 
HETATM   19  C   UNL     1     -33.955  40.073 -50.247  1.00  0.00    -0.032 A 
HETATM   20  C   UNL     1     -35.451  40.040 -50.132  1.00  0.00     0.050 C 
HETATM   21  C   UNL     1     -33.221  39.547 -49.166  1.00  0.00     0.028 A 
HETATM   22  C   UNL     1     -31.840  39.464 -49.247  1.00  0.00     0.117 A 
HETATM   23  N   UNL     1     -31.137  39.862 -50.322  1.00  0.00    -0.271 NA
HETATM   24  C   UNL     1     -31.853  40.387 -51.342  1.00  0.00     0.146 A 
ENDBRANCH   1  18
TORSDOF 2
ENDMDL
MODEL 6
REMARK VINA RESULT:      -6.8      4.372      5.470
REMARK  2 active torsions:
REMARK  status: ('A' for Active; 'I' for Inactive)
REMARK    1  A    between atoms: C_3  and  N_4 
REMARK       I    between atoms: N_4  and  C_5 
REMARK       I    between atoms: C_5  and  N_6 
REMARK    2  A    between atoms: N_6  and  C_7 
ROOT
HETATM    1  N   UNL     1     -40.241  53.491 -51.860  1.00  0.00    -0.307 N 
HETATM    2  C   UNL     1     -41.299  54.255 -52.290  1.00  0.00     0.321 C 
HETATM    3  N   UNL     1     -41.144  55.567 -51.874  1.00  0.00    -0.338 N 
HETATM    4  O   UNL     1     -42.291  53.886 -52.904  1.00  0.00    -0.247 OA
HETATM    5  H   UNL     1     -39.841  53.826 -50.994  1.00  0.00     0.170 HD
HETATM    6  H   UNL     1     -40.183  55.862 -51.749  1.00  0.00     0.164 HD
ENDROOT
BRANCH   3   7
HETATM    7  C   UNL     1     -42.144  56.602 -52.129  1.00  0.00     0.090 C 
HETATM    8  C   UNL     1     -43.225  56.631 -51.035  1.00  0.00     0.058 C 
HETATM    9  C   UNL     1     -44.086  57.895 -51.010  1.00  0.00     0.190 C 
HETATM   10  N   UNL     1     -43.157  59.084 -51.020  1.00  0.00    -0.066 N 
HETATM   11  C   UNL     1     -45.103  58.005 -52.153  1.00  0.00     0.033 C 
HETATM   12  H   UNL     1     -42.442  58.895 -50.294  1.00  0.00     0.280 HD
HETATM   13  C   UNL     1     -43.789  60.375 -50.572  1.00  0.00     0.270 C 
HETATM   14  C   UNL     1     -42.407  59.174 -52.326  1.00  0.00     0.190 C 
HETATM   15  C   UNL     1     -41.480  57.961 -52.415  1.00  0.00     0.058 C 
HETATM   16  C   UNL     1     -43.388  59.316 -53.494  1.00  0.00     0.033 C 
HETATM   17  C   UNL     1     -44.499  58.275 -53.527  1.00  0.00     0.004 C 
ENDBRANCH   3   7
BRANCH   1  18
HETATM   18  C   UNL     1     -40.013  52.120 -52.135  1.00  0.00     0.059 A 
HETATM   19  C   UNL     1     -39.879  51.537 -53.401  1.00  0.00    -0.032 A 
HETATM   20  C   UNL     1     -39.886  52.289 -54.699  1.00  0.00     0.050 C 
HETATM   21  C   UNL     1     -39.687  50.143 -53.473  1.00  0.00     0.028 A 
HETATM   22  C   UNL     1     -39.579  49.403 -52.307  1.00  0.00     0.117 A 
HETATM   23  N   UNL     1     -39.644  49.944 -51.078  1.00  0.00    -0.271 NA
HETATM   24  C   UNL     1     -39.853  51.279 -51.025  1.00  0.00     0.146 A 
ENDBRANCH   1  18
TORSDOF 2
ENDMDL
MODEL 7
REMARK VINA RESULT:      -6.6      2.240      3.133
REMARK  2 active torsions:
REMARK  status: ('A' for Active; 'I' for Inactive)
REMARK    1  A    between atoms: C_3  and  N_4 
REMARK       I    between atoms: N_4  and  C_5 
REMARK       I    between atoms: C_5  and  N_6 
REMARK    2  A    between atoms: N_6  and  C_7 
ROOT
HETATM    1  N   UNL     1     -39.713  52.797 -53.827  1.00  0.00    -0.307 N 
HETATM    2  C   UNL     1     -40.736  53.686 -54.055  1.00  0.00     0.321 C 
HETATM    3  N   UNL     1     -40.360  54.616 -55.008  1.00  0.00    -0.338 N 
HETATM    4  O   UNL     1     -41.823  53.738 -53.494  1.00  0.00    -0.247 OA
HETATM    5  H   UNL     1     -38.799  53.206 -53.972  1.00  0.00     0.170 HD
HETATM    6  H   UNL     1     -39.671  54.289 -55.674  1.00  0.00     0.164 HD
ENDROOT
BRANCH   3   7
HETATM    7  C   UNL     1     -41.221  55.727 -55.413  1.00  0.00     0.090 C 
HETATM    8  C   UNL     1     -42.507  55.231 -56.095  1.00  0.00     0.058 C 
HETATM    9  C   UNL     1     -43.620  56.274 -56.214  1.00  0.00     0.190 C 
HETATM   10  N   UNL     1     -43.817  56.891 -54.851  1.00  0.00    -0.066 N 
HETATM   11  C   UNL     1     -43.370  57.367 -57.261  1.00  0.00     0.033 C 
HETATM   12  H   UNL     1     -43.878  56.101 -54.185  1.00  0.00     0.280 HD
HETATM   13  C   UNL     1     -45.129  57.610 -54.676  1.00  0.00     0.270 C 
HETATM   14  C   UNL     1     -42.606  57.690 -54.437  1.00  0.00     0.190 C 
HETATM   15  C   UNL     1     -41.446  56.711 -54.251  1.00  0.00     0.058 C 
HETATM   16  C   UNL     1     -42.339  58.813 -55.444  1.00  0.00     0.033 C 
HETATM   17  C   UNL     1     -42.278  58.367 -56.900  1.00  0.00     0.004 C 
ENDBRANCH   3   7
BRANCH   1  18
HETATM   18  C   UNL     1     -39.737  51.673 -52.967  1.00  0.00     0.059 A 
HETATM   19  C   UNL     1     -39.696  50.327 -53.355  1.00  0.00    -0.032 A 
HETATM   20  C   UNL     1     -39.549  49.845 -54.768  1.00  0.00     0.050 C 
HETATM   21  C   UNL     1     -39.763  49.344 -52.349  1.00  0.00     0.028 A 
HETATM   22  C   UNL     1     -39.806  49.723 -51.017  1.00  0.00     0.117 A 
HETATM   23  N   UNL     1     -39.787  51.005 -50.613  1.00  0.00    -0.271 NA
HETATM   24  C   UNL     1     -39.748  51.939 -51.590  1.00  0.00     0.146 A 
ENDBRANCH   1  18
TORSDOF 2
ENDMDL
MODEL 8
REMARK VINA RESULT:      -6.6      2.663      4.166
REMARK  2 active torsions:
REMARK  status: ('A' for Active; 'I' for Inactive)
REMARK    1  A    between atoms: C_3  and  N_4 
REMARK       I    between atoms: N_4  and  C_5 
REMARK       I    between atoms: C_5  and  N_6 
REMARK    2  A    between atoms: N_6  and  C_7 
ROOT
HETATM    1  N   UNL     1     -40.041  53.357 -52.658  1.00  0.00    -0.307 N 
HETATM    2  C   UNL     1     -41.178  53.981 -53.112  1.00  0.00     0.321 C 
HETATM    3  N   UNL     1     -40.892  55.282 -53.490  1.00  0.00    -0.338 N 
HETATM    4  O   UNL     1     -42.316  53.532 -53.153  1.00  0.00    -0.247 OA
HETATM    5  H   UNL     1     -39.384  53.997 -52.234  1.00  0.00     0.170 HD
HETATM    6  H   UNL     1     -39.940  55.436 -53.800  1.00  0.00     0.164 HD
ENDROOT
BRANCH   3   7
HETATM    7  C   UNL     1     -41.917  56.215 -53.956  1.00  0.00     0.090 C 
HETATM    8  C   UNL     1     -41.893  57.532 -53.162  1.00  0.00     0.058 C 
HETATM    9  C   UNL     1     -42.658  58.690 -53.806  1.00  0.00     0.190 C 
HETATM   10  N   UNL     1     -42.199  58.801 -55.239  1.00  0.00    -0.066 N 
HETATM   11  C   UNL     1     -44.185  58.567 -53.744  1.00  0.00     0.033 C 
HETATM   12  H   UNL     1     -41.165  58.778 -55.212  1.00  0.00     0.280 HD
HETATM   13  C   UNL     1     -42.511  60.121 -55.893  1.00  0.00     0.270 C 
HETATM   14  C   UNL     1     -42.620  57.592 -56.038  1.00  0.00     0.190 C 
HETATM   15  C   UNL     1     -41.862  56.384 -55.486  1.00  0.00     0.058 C 
HETATM   16  C   UNL     1     -44.145  57.450 -56.026  1.00  0.00     0.033 C 
HETATM   17  C   UNL     1     -44.781  57.489 -54.642  1.00  0.00     0.004 C 
ENDBRANCH   3   7
BRANCH   1  18
HETATM   18  C   UNL     1     -39.919  52.009 -52.240  1.00  0.00     0.059 A 
HETATM   19  C   UNL     1     -40.035  51.531 -50.928  1.00  0.00    -0.032 A 
HETATM   20  C   UNL     1     -40.382  52.372 -49.735  1.00  0.00     0.050 C 
HETATM   21  C   UNL     1     -39.849  50.153 -50.705  1.00  0.00     0.028 A 
HETATM   22  C   UNL     1     -39.618  49.307 -51.777  1.00  0.00     0.117 A 
HETATM   23  N   UNL     1     -39.561  49.729 -53.053  1.00  0.00    -0.271 NA
HETATM   24  C   UNL     1     -39.716  51.058 -53.249  1.00  0.00     0.146 A 
ENDBRANCH   1  18
TORSDOF 2
ENDMDL
MODEL 9
REMARK VINA RESULT:      -6.3      3.892      5.116
REMARK  2 active torsions:
REMARK  status: ('A' for Active; 'I' for Inactive)
REMARK    1  A    between atoms: C_3  and  N_4 
REMARK       I    between atoms: N_4  and  C_5 
REMARK       I    between atoms: C_5  and  N_6 
REMARK    2  A    between atoms: N_6  and  C_7 
ROOT
HETATM    1  N   UNL     1     -40.174  53.478 -51.576  1.00  0.00    -0.307 N 
HETATM    2  C   UNL     1     -41.132  54.364 -52.008  1.00  0.00     0.321 C 
HETATM    3  N   UNL     1     -40.961  55.593 -51.393  1.00  0.00    -0.338 N 
HETATM    4  O   UNL     1     -42.061  54.150 -52.777  1.00  0.00    -0.247 OA
HETATM    5  H   UNL     1     -39.865  53.664 -50.632  1.00  0.00     0.170 HD
HETATM    6  H   UNL     1     -40.009  55.803 -51.119  1.00  0.00     0.164 HD
ENDROOT
BRANCH   3   7
HETATM    7  C   UNL     1     -41.869  56.719 -51.608  1.00  0.00     0.090 C 
HETATM    8  C   UNL     1     -41.554  57.464 -52.916  1.00  0.00     0.058 C 
HETATM    9  C   UNL     1     -42.657  58.403 -53.408  1.00  0.00     0.190 C 
HETATM   10  N   UNL     1     -43.951  57.627 -53.412  1.00  0.00    -0.066 N 
HETATM   11  C   UNL     1     -42.813  59.695 -52.596  1.00  0.00     0.033 C 
HETATM   12  H   UNL     1     -43.746  56.730 -53.886  1.00  0.00     0.280 HD
HETATM   13  C   UNL     1     -45.041  58.236 -54.253  1.00  0.00     0.270 C 
HETATM   14  C   UNL     1     -44.372  57.268 -52.008  1.00  0.00     0.190 C 
HETATM   15  C   UNL     1     -43.339  56.288 -51.450  1.00  0.00     0.058 C 
HETATM   16  C   UNL     1     -44.569  58.535 -51.170  1.00  0.00     0.033 C 
HETATM   17  C   UNL     1     -43.398  59.511 -51.200  1.00  0.00     0.004 C 
ENDBRANCH   3   7
BRANCH   1  18
HETATM   18  C   UNL     1     -39.986  52.146 -52.017  1.00  0.00     0.059 A 
HETATM   19  C   UNL     1     -39.897  51.715 -53.347  1.00  0.00    -0.032 A 
HETATM   20  C   UNL     1     -39.919  52.617 -54.547  1.00  0.00     0.050 C 
HETATM   21  C   UNL     1     -39.739  50.337 -53.589  1.00  0.00     0.028 A 
HETATM   22  C   UNL     1     -39.619  49.460 -52.523  1.00  0.00     0.117 A 
HETATM   23  N   UNL     1     -39.641  49.853 -51.237  1.00  0.00    -0.271 NA
HETATM   24  C   UNL     1     -39.817  51.176 -51.020  1.00  0.00     0.146 A 
ENDBRANCH   1  18
TORSDOF 2
ENDMDL
MODEL 10
REMARK VINA RESULT:      -6.3      3.507      4.301
REMARK  2 active torsions:
REMARK  status: ('A' for Active; 'I' for Inactive)
REMARK    1  A    between atoms: C_3  and  N_4 
REMARK       I    between atoms: N_4  and  C_5 
REMARK       I    between atoms: C_5  and  N_6 
REMARK    2  A    between atoms: N_6  and  C_7 
ROOT
HETATM    1  N   UNL     1     -42.232  57.833 -53.370  1.00  0.00    -0.307 N 
HETATM    2  C   UNL     1     -42.248  58.135 -54.711  1.00  0.00     0.321 C 
HETATM    3  N   UNL     1     -42.944  57.165 -55.412  1.00  0.00    -0.338 N 
HETATM    4  O   UNL     1     -41.702  59.074 -55.275  1.00  0.00    -0.247 OA
HETATM    5  H   UNL     1     -42.266  56.839 -53.191  1.00  0.00     0.170 HD
HETATM    6  H   UNL     1     -43.663  56.689 -54.881  1.00  0.00     0.164 HD
ENDROOT
BRANCH   3   7
HETATM    7  C   UNL     1     -43.076  57.183 -56.869  1.00  0.00     0.090 C 
HETATM    8  C   UNL     1     -42.943  55.773 -57.470  1.00  0.00     0.058 C 
HETATM    9  C   UNL     1     -43.430  55.637 -58.913  1.00  0.00     0.190 C 
HETATM   10  N   UNL     1     -44.814  56.234 -58.988  1.00  0.00    -0.066 N 
HETATM   11  C   UNL     1     -42.516  56.278 -59.965  1.00  0.00     0.033 C 
HETATM   12  H   UNL     1     -45.342  55.833 -58.193  1.00  0.00     0.280 HD
HETATM   13  C   UNL     1     -45.609  55.815 -60.196  1.00  0.00     0.270 C 
HETATM   14  C   UNL     1     -44.775  57.724 -58.752  1.00  0.00     0.190 C 
HETATM   15  C   UNL     1     -44.336  57.953 -57.305  1.00  0.00     0.058 C 
HETATM   16  C   UNL     1     -43.894  58.407 -59.803  1.00  0.00     0.033 C 
HETATM   17  C   UNL     1     -42.505  57.802 -59.965  1.00  0.00     0.004 C 
ENDBRANCH   3   7
BRANCH   1  18
HETATM   18  C   UNL     1     -41.671  58.611 -52.328  1.00  0.00     0.059 A 
HETATM   19  C   UNL     1     -42.375  59.318 -51.345  1.00  0.00    -0.032 A 
HETATM   20  C   UNL     1     -43.868  59.314 -51.187  1.00  0.00     0.050 C 
HETATM   21  C   UNL     1     -41.637  60.065 -50.407  1.00  0.00     0.028 A 
HETATM   22  C   UNL     1     -40.252  60.036 -50.441  1.00  0.00     0.117 A 
HETATM   23  N   UNL     1     -39.549  59.320 -51.336  1.00  0.00    -0.271 NA
HETATM   24  C   UNL     1     -40.272  58.628 -52.246  1.00  0.00     0.146 A 
ENDBRANCH   1  18
TORSDOF 2
ENDMDL
