MODEL 1
REMARK VINA RESULT:      -8.0      0.000      0.000
REMARK  6 active torsions:
REMARK  status: ('A' for Active; 'I' for Inactive)
REMARK    1  A    between atoms: C_2  and  N_3 
REMARK    2  A    between atoms: C_5  and  C_6 
REMARK    3  A    between atoms: C_6  and  N_7 
REMARK       I    between atoms: N_7  and  C_8 
REMARK    4  A    between atoms: C_8  and  C_9 
REMARK    5  A    between atoms: C_9  and  C_10 
REMARK    6  A    between atoms: C_11  and  C_12 
ROOT
HETATM    1  C   UNL     1     -41.416  56.105 -52.501  1.00  0.00     0.006 C 
HETATM    2  C   UNL     1     -41.183  54.803 -51.920  1.00  0.00     0.096 C 
HETATM    3  N   UNL     1     -41.503  54.836 -50.614  1.00  0.00    -0.173 NA
HETATM    4  N   UNL     1     -42.075  56.019 -50.407  1.00  0.00    -0.282 N 
HETATM    5  H   UNL     1     -42.474  56.203 -49.491  1.00  0.00     0.189 HD
HETATM    6  C   UNL     1     -42.026  56.840 -51.492  1.00  0.00     0.033 C 
HETATM    7  C   UNL     1     -42.605  58.205 -51.447  1.00  0.00     0.070 C 
ENDROOT
BRANCH   1   8
HETATM    8  C   UNL     1     -41.130  56.616 -53.876  1.00  0.00     0.146 C 
BRANCH   8   9
HETATM    9  C   UNL     1     -42.251  56.229 -54.834  1.00  0.00     0.222 C 
HETATM   10  N   UNL     1     -41.864  55.655 -56.024  1.00  0.00    -0.359 N 
HETATM   11  H   UNL     1     -40.875  55.658 -56.254  1.00  0.00     0.162 HD
HETATM   12  O   UNL     1     -43.449  56.325 -54.562  1.00  0.00    -0.273 OA
BRANCH  10  13
HETATM   13  C   UNL     1     -42.814  55.289 -57.069  1.00  0.00     0.155 C 
BRANCH  13  14
HETATM   14  C   UNL     1     -43.101  56.371 -58.145  1.00  0.00     0.206 C 
HETATM   15  N   UNL     1     -44.566  56.806 -58.142  1.00  0.00    -0.066 N 
HETATM   16  H   UNL     1     -45.077  56.133 -57.532  1.00  0.00     0.280 HD
HETATM   17  C   UNL     1     -45.113  56.604 -59.536  1.00  0.00     0.235 C 
HETATM   18  C   UNL     1     -44.204  55.554 -60.136  1.00  0.00     0.030 C 
HETATM   19  C   UNL     1     -42.841  55.910 -59.580  1.00  0.00     0.036 C 
BRANCH  15  20
HETATM   20  C   UNL     1     -44.813  58.157 -57.541  1.00  0.00     0.231 C 
HETATM   21  C   UNL     1     -43.506  58.896 -57.324  1.00  0.00     0.034 C 
ENDBRANCH  15  20
ENDBRANCH  13  14
ENDBRANCH  10  13
ENDBRANCH   8   9
ENDBRANCH   1   8
BRANCH   2  22
HETATM   22  C   UNL     1     -40.679  53.528 -52.480  1.00  0.00    -0.005 A 
HETATM   23  C   UNL     1     -40.969  53.074 -53.773  1.00  0.00     0.017 A 
HETATM   24  C   UNL     1     -40.463  51.854 -54.244  1.00  0.00     0.043 A 
HETATM   25  C   UNL     1     -39.669  51.069 -53.423  1.00  0.00     0.116 A 
HETATM   26  F   UNL     1     -39.191  49.905 -53.880  1.00  0.00    -0.206 F 
HETATM   27  C   UNL     1     -39.368  51.480 -52.135  1.00  0.00     0.043 A 
HETATM   28  C   UNL     1     -39.869  52.699 -51.671  1.00  0.00     0.017 A 
ENDBRANCH   2  22
TORSDOF 6
ENDMDL
MODEL 2
REMARK VINA RESULT:      -8.0      2.748      5.418
REMARK  6 active torsions:
REMARK  status: ('A' for Active; 'I' for Inactive)
REMARK    1  A    between atoms: C_2  and  N_3 
REMARK    2  A    between atoms: C_5  and  C_6 
REMARK    3  A    between atoms: C_6  and  N_7 
REMARK       I    between atoms: N_7  and  C_8 
REMARK    4  A    between atoms: C_8  and  C_9 
REMARK    5  A    between atoms: C_9  and  C_10 
REMARK    6  A    between atoms: C_11  and  C_12 
ROOT
HETATM    1  C   UNL     1     -42.025  54.352 -54.068  1.00  0.00     0.006 C 
HETATM    2  C   UNL     1     -40.845  53.519 -54.080  1.00  0.00     0.096 C 
HETATM    3  N   UNL     1     -40.076  53.852 -55.132  1.00  0.00    -0.173 NA
HETATM    4  N   UNL     1     -40.626  54.944 -55.655  1.00  0.00    -0.282 N 
HETATM    5  H   UNL     1     -40.135  55.410 -56.414  1.00  0.00     0.189 HD
HETATM    6  C   UNL     1     -41.815  55.278 -55.084  1.00  0.00     0.033 C 
HETATM    7  C   UNL     1     -42.581  56.462 -55.543  1.00  0.00     0.070 C 
ENDROOT
BRANCH   1   8
HETATM    8  C   UNL     1     -43.226  54.318 -53.179  1.00  0.00     0.146 C 
BRANCH   8   9
HETATM    9  C   UNL     1     -43.140  55.414 -52.123  1.00  0.00     0.222 C 
HETATM   10  N   UNL     1     -44.073  56.422 -52.216  1.00  0.00    -0.359 N 
HETATM   11  H   UNL     1     -44.655  56.457 -53.047  1.00  0.00     0.162 HD
HETATM   12  O   UNL     1     -42.356  55.391 -51.174  1.00  0.00    -0.273 OA
BRANCH  10  13
HETATM   13  C   UNL     1     -44.082  57.573 -51.319  1.00  0.00     0.155 C 
BRANCH  13  14
HETATM   14  C   UNL     1     -43.169  58.764 -51.721  1.00  0.00     0.206 C 
HETATM   15  N   UNL     1     -41.965  58.900 -50.792  1.00  0.00    -0.066 N 
HETATM   16  H   UNL     1     -42.136  58.265 -49.984  1.00  0.00     0.280 HD
HETATM   17  C   UNL     1     -41.970  60.302 -50.229  1.00  0.00     0.235 C 
HETATM   18  C   UNL     1     -43.413  60.738 -50.347  1.00  0.00     0.030 C 
HETATM   19  C   UNL     1     -43.858  60.128 -51.660  1.00  0.00     0.036 C 
BRANCH  15  20
HETATM   20  C   UNL     1     -40.664  58.448 -51.387  1.00  0.00     0.231 C 
HETATM   21  C   UNL     1     -40.742  58.436 -52.902  1.00  0.00     0.034 C 
ENDBRANCH  15  20
ENDBRANCH  13  14
ENDBRANCH  10  13
ENDBRANCH   8   9
ENDBRANCH   1   8
BRANCH   2  22
HETATM   22  C   UNL     1     -40.376  52.428 -53.194  1.00  0.00    -0.005 A 
HETATM   23  C   UNL     1     -40.019  51.153 -53.648  1.00  0.00     0.017 A 
HETATM   24  C   UNL     1     -39.585  50.160 -52.758  1.00  0.00     0.043 A 
HETATM   25  C   UNL     1     -39.513  50.430 -51.400  1.00  0.00     0.116 A 
HETATM   26  F   UNL     1     -39.098  49.478 -50.557  1.00  0.00    -0.206 F 
HETATM   27  C   UNL     1     -39.866  51.677 -50.912  1.00  0.00     0.043 A 
HETATM   28  C   UNL     1     -40.293  52.666 -51.804  1.00  0.00     0.017 A 
ENDBRANCH   2  22
TORSDOF 6
ENDMDL
MODEL 3
REMARK VINA RESULT:      -7.5      2.522      4.730
REMARK  6 active torsions:
REMARK  status: ('A' for Active; 'I' for Inactive)
REMARK    1  A    between atoms: C_2  and  N_3 
REMARK    2  A    between atoms: C_5  and  C_6 
REMARK    3  A    between atoms: C_6  and  N_7 
REMARK       I    between atoms: N_7  and  C_8 
REMARK    4  A    between atoms: C_8  and  C_9 
REMARK    5  A    between atoms: C_9  and  C_10 
REMARK    6  A    between atoms: C_11  and  C_12 
ROOT
HETATM    1  C   UNL     1     -42.458  54.683 -54.224  1.00  0.00     0.006 C 
HETATM    2  C   UNL     1     -41.260  53.891 -54.375  1.00  0.00     0.096 C 
HETATM    3  N   UNL     1     -40.653  54.219 -55.529  1.00  0.00    -0.173 NA
HETATM    4  N   UNL     1     -41.309  55.276 -56.000  1.00  0.00    -0.282 N 
HETATM    5  H   UNL     1     -40.943  55.736 -56.829  1.00  0.00     0.189 HD
HETATM    6  C   UNL     1     -42.423  55.586 -55.281  1.00  0.00     0.033 C 
HETATM    7  C   UNL     1     -43.289  56.728 -55.662  1.00  0.00     0.070 C 
ENDROOT
BRANCH   1   8
HETATM    8  C   UNL     1     -43.527  54.633 -53.180  1.00  0.00     0.146 C 
BRANCH   8   9
HETATM    9  C   UNL     1     -43.251  55.657 -52.085  1.00  0.00     0.222 C 
HETATM   10  N   UNL     1     -43.847  56.888 -52.239  1.00  0.00    -0.359 N 
HETATM   11  H   UNL     1     -44.302  57.089 -53.124  1.00  0.00     0.162 HD
HETATM   12  O   UNL     1     -42.613  55.410 -51.061  1.00  0.00    -0.273 OA
BRANCH  10  13
HETATM   13  C   UNL     1     -43.629  57.992 -51.310  1.00  0.00     0.155 C 
BRANCH  13  14
HETATM   14  C   UNL     1     -42.606  59.073 -51.756  1.00  0.00     0.206 C 
HETATM   15  N   UNL     1     -42.731  59.400 -53.242  1.00  0.00    -0.066 N 
HETATM   16  H   UNL     1     -43.360  58.679 -53.656  1.00  0.00     0.280 HD
HETATM   17  C   UNL     1     -41.377  59.188 -53.879  1.00  0.00     0.235 C 
HETATM   18  C   UNL     1     -40.683  58.220 -52.947  1.00  0.00     0.030 C 
HETATM   19  C   UNL     1     -41.144  58.662 -51.574  1.00  0.00     0.036 C 
BRANCH  15  20
HETATM   20  C   UNL     1     -43.384  60.717 -53.538  1.00  0.00     0.231 C 
HETATM   21  C   UNL     1     -43.378  61.607 -52.309  1.00  0.00     0.034 C 
ENDBRANCH  15  20
ENDBRANCH  13  14
ENDBRANCH  10  13
ENDBRANCH   8   9
ENDBRANCH   1   8
BRANCH   2  22
HETATM   22  C   UNL     1     -40.635  52.844 -53.534  1.00  0.00    -0.005 A 
HETATM   23  C   UNL     1     -40.276  51.575 -54.006  1.00  0.00     0.017 A 
HETATM   24  C   UNL     1     -39.689  50.625 -53.158  1.00  0.00     0.043 A 
HETATM   25  C   UNL     1     -39.464  50.930 -51.825  1.00  0.00     0.116 A 
HETATM   26  F   UNL     1     -38.904  50.018 -51.022  1.00  0.00    -0.206 F 
HETATM   27  C   UNL     1     -39.813  52.171 -51.319  1.00  0.00     0.043 A 
HETATM   28  C   UNL     1     -40.393  53.118 -52.169  1.00  0.00     0.017 A 
ENDBRANCH   2  22
TORSDOF 6
ENDMDL
MODEL 4
REMARK VINA RESULT:      -7.5      2.587      5.016
REMARK  6 active torsions:
REMARK  status: ('A' for Active; 'I' for Inactive)
REMARK    1  A    between atoms: C_2  and  N_3 
REMARK    2  A    between atoms: C_5  and  C_6 
REMARK    3  A    between atoms: C_6  and  N_7 
REMARK       I    between atoms: N_7  and  C_8 
REMARK    4  A    between atoms: C_8  and  C_9 
REMARK    5  A    between atoms: C_9  and  C_10 
REMARK    6  A    between atoms: C_11  and  C_12 
ROOT
HETATM    1  C   UNL     1     -41.900  56.068 -54.243  1.00  0.00     0.006 C 
HETATM    2  C   UNL     1     -42.192  54.759 -53.706  1.00  0.00     0.096 C 
HETATM    3  N   UNL     1     -43.507  54.508 -53.840  1.00  0.00    -0.173 NA
HETATM    4  N   UNL     1     -43.996  55.503 -54.575  1.00  0.00    -0.282 N 
HETATM    5  H   UNL     1     -44.968  55.447 -54.868  1.00  0.00     0.189 HD
HETATM    6  C   UNL     1     -43.091  56.488 -54.823  1.00  0.00     0.033 C 
HETATM    7  C   UNL     1     -43.458  57.685 -55.620  1.00  0.00     0.070 C 
ENDROOT
BRANCH   1   8
HETATM    8  C   UNL     1     -40.626  56.850 -54.247  1.00  0.00     0.146 C 
BRANCH   8   9
HETATM    9  C   UNL     1     -40.715  58.020 -53.275  1.00  0.00     0.222 C 
HETATM   10  N   UNL     1     -41.169  57.727 -52.009  1.00  0.00    -0.359 N 
HETATM   11  H   UNL     1     -41.550  56.800 -51.843  1.00  0.00     0.162 HD
HETATM   12  O   UNL     1     -40.329  59.160 -53.537  1.00  0.00    -0.273 OA
BRANCH  10  13
HETATM   13  C   UNL     1     -41.370  58.748 -50.986  1.00  0.00     0.155 C 
BRANCH  13  14
HETATM   14  C   UNL     1     -42.776  59.406 -50.940  1.00  0.00     0.206 C 
HETATM   15  N   UNL     1     -43.755  58.732 -51.899  1.00  0.00    -0.066 N 
HETATM   16  H   UNL     1     -43.193  58.095 -52.503  1.00  0.00     0.280 HD
HETATM   17  C   UNL     1     -44.311  59.795 -52.818  1.00  0.00     0.235 C 
HETATM   18  C   UNL     1     -43.265  60.887 -52.788  1.00  0.00     0.030 C 
HETATM   19  C   UNL     1     -42.790  60.879 -51.349  1.00  0.00     0.036 C 
BRANCH  15  20
HETATM   20  C   UNL     1     -44.775  57.855 -51.235  1.00  0.00     0.231 C 
HETATM   21  C   UNL     1     -44.190  56.490 -50.926  1.00  0.00     0.034 C 
ENDBRANCH  15  20
ENDBRANCH  13  14
ENDBRANCH  10  13
ENDBRANCH   8   9
ENDBRANCH   1   8
BRANCH   2  22
HETATM   22  C   UNL     1     -41.348  53.721 -53.070  1.00  0.00    -0.005 A 
HETATM   23  C   UNL     1     -41.116  53.641 -51.692  1.00  0.00     0.017 A 
HETATM   24  C   UNL     1     -40.304  52.635 -51.150  1.00  0.00     0.043 A 
HETATM   25  C   UNL     1     -39.703  51.704 -51.984  1.00  0.00     0.116 A 
HETATM   26  F   UNL     1     -38.928  50.747 -51.460  1.00  0.00    -0.206 F 
HETATM   27  C   UNL     1     -39.901  51.757 -53.354  1.00  0.00     0.043 A 
HETATM   28  C   UNL     1     -40.718  52.758 -53.889  1.00  0.00     0.017 A 
ENDBRANCH   2  22
TORSDOF 6
ENDMDL
MODEL 5
REMARK VINA RESULT:      -7.4      1.700      2.171
REMARK  6 active torsions:
REMARK  status: ('A' for Active; 'I' for Inactive)
REMARK    1  A    between atoms: C_2  and  N_3 
REMARK    2  A    between atoms: C_5  and  C_6 
REMARK    3  A    between atoms: C_6  and  N_7 
REMARK       I    between atoms: N_7  and  C_8 
REMARK    4  A    between atoms: C_8  and  C_9 
REMARK    5  A    between atoms: C_9  and  C_10 
REMARK    6  A    between atoms: C_11  and  C_12 
ROOT
HETATM    1  C   UNL     1     -42.783  56.041 -54.046  1.00  0.00     0.006 C 
HETATM    2  C   UNL     1     -42.531  55.198 -52.901  1.00  0.00     0.096 C 
HETATM    3  N   UNL     1     -43.365  55.542 -51.904  1.00  0.00    -0.173 NA
HETATM    4  N   UNL     1     -44.219  56.418 -52.427  1.00  0.00    -0.282 N 
HETATM    5  H   UNL     1     -44.994  56.732 -51.850  1.00  0.00     0.189 HD
HETATM    6  C   UNL     1     -43.906  56.784 -53.700  1.00  0.00     0.033 C 
HETATM    7  C   UNL     1     -44.738  57.761 -54.443  1.00  0.00     0.070 C 
ENDROOT
BRANCH   1   8
HETATM    8  C   UNL     1     -42.071  56.132 -55.357  1.00  0.00     0.146 C 
BRANCH   8   9
HETATM    9  C   UNL     1     -42.785  55.295 -56.412  1.00  0.00     0.222 C 
HETATM   10  N   UNL     1     -42.769  55.792 -57.696  1.00  0.00    -0.359 N 
HETATM   11  H   UNL     1     -42.421  56.735 -57.837  1.00  0.00     0.162 HD
HETATM   12  O   UNL     1     -43.282  54.190 -56.190  1.00  0.00    -0.273 OA
BRANCH  10  13
HETATM   13  C   UNL     1     -43.461  55.139 -58.802  1.00  0.00     0.155 C 
BRANCH  13  14
HETATM   14  C   UNL     1     -43.892  56.057 -59.979  1.00  0.00     0.206 C 
HETATM   15  N   UNL     1     -44.569  57.335 -59.489  1.00  0.00    -0.066 N 
HETATM   16  H   UNL     1     -44.751  57.207 -58.471  1.00  0.00     0.280 HD
HETATM   17  C   UNL     1     -45.927  57.422 -60.147  1.00  0.00     0.235 C 
HETATM   18  C   UNL     1     -46.250  55.989 -60.507  1.00  0.00     0.030 C 
HETATM   19  C   UNL     1     -44.910  55.421 -60.926  1.00  0.00     0.036 C 
BRANCH  15  20
HETATM   20  C   UNL     1     -43.722  58.568 -59.592  1.00  0.00     0.231 C 
HETATM   21  C   UNL     1     -42.454  58.284 -60.374  1.00  0.00     0.034 C 
ENDBRANCH  15  20
ENDBRANCH  13  14
ENDBRANCH  10  13
ENDBRANCH   8   9
ENDBRANCH   1   8
BRANCH   2  22
HETATM   22  C   UNL     1     -41.569  54.099 -52.654  1.00  0.00    -0.005 A 
HETATM   23  C   UNL     1     -41.089  53.243 -53.653  1.00  0.00     0.017 A 
HETATM   24  C   UNL     1     -40.180  52.218 -53.356  1.00  0.00     0.043 A 
HETATM   25  C   UNL     1     -39.750  52.030 -52.051  1.00  0.00     0.116 A 
HETATM   26  F   UNL     1     -38.883  51.048 -51.774  1.00  0.00    -0.206 F 
HETATM   27  C   UNL     1     -40.209  52.850 -51.034  1.00  0.00     0.043 A 
HETATM   28  C   UNL     1     -41.110  53.876 -51.337  1.00  0.00     0.017 A 
ENDBRANCH   2  22
TORSDOF 6
ENDMDL
MODEL 6
REMARK VINA RESULT:      -7.3     14.805     17.527
REMARK  6 active torsions:
REMARK  status: ('A' for Active; 'I' for Inactive)
REMARK    1  A    between atoms: C_2  and  N_3 
REMARK    2  A    between atoms: C_5  and  C_6 
REMARK    3  A    between atoms: C_6  and  N_7 
REMARK       I    between atoms: N_7  and  C_8 
REMARK    4  A    between atoms: C_8  and  C_9 
REMARK    5  A    between atoms: C_9  and  C_10 
REMARK    6  A    between atoms: C_11  and  C_12 
ROOT
HETATM    1  C   UNL     1     -35.922  41.698 -55.353  1.00  0.00     0.006 C 
HETATM    2  C   UNL     1     -37.049  41.241 -56.132  1.00  0.00     0.096 C 
HETATM    3  N   UNL     1     -38.101  41.041 -55.319  1.00  0.00    -0.173 NA
HETATM    4  N   UNL     1     -37.737  41.512 -54.129  1.00  0.00    -0.282 N 
HETATM    5  H   UNL     1     -38.435  41.536 -53.391  1.00  0.00     0.189 HD
HETATM    6  C   UNL     1     -36.431  41.891 -54.073  1.00  0.00     0.033 C 
HETATM    7  C   UNL     1     -35.841  42.431 -52.824  1.00  0.00     0.070 C 
ENDROOT
BRANCH   1   8
HETATM    8  C   UNL     1     -34.508  41.963 -55.758  1.00  0.00     0.146 C 
BRANCH   8   9
HETATM    9  C   UNL     1     -33.612  40.796 -55.362  1.00  0.00     0.222 C 
HETATM   10  N   UNL     1     -32.981  40.899 -54.142  1.00  0.00    -0.359 N 
HETATM   11  H   UNL     1     -33.031  41.788 -53.655  1.00  0.00     0.162 HD
HETATM   12  O   UNL     1     -33.499  39.762 -56.023  1.00  0.00    -0.273 OA
BRANCH  10  13
HETATM   13  C   UNL     1     -32.044  39.895 -53.652  1.00  0.00     0.155 C 
BRANCH  13  14
HETATM   14  C   UNL     1     -32.487  39.098 -52.395  1.00  0.00     0.206 C 
HETATM   15  N   UNL     1     -33.987  39.224 -52.137  1.00  0.00    -0.066 N 
HETATM   16  H   UNL     1     -34.337  39.975 -52.769  1.00  0.00     0.280 HD
HETATM   17  C   UNL     1     -34.174  39.742 -50.730  1.00  0.00     0.235 C 
HETATM   18  C   UNL     1     -32.870  40.443 -50.423  1.00  0.00     0.030 C 
HETATM   19  C   UNL     1     -31.833  39.567 -51.094  1.00  0.00     0.036 C 
BRANCH  15  20
HETATM   20  C   UNL     1     -34.784  38.003 -52.487  1.00  0.00     0.231 C 
HETATM   21  C   UNL     1     -35.688  38.274 -53.675  1.00  0.00     0.034 C 
ENDBRANCH  15  20
ENDBRANCH  13  14
ENDBRANCH  10  13
ENDBRANCH   8   9
ENDBRANCH   1   8
BRANCH   2  22
HETATM   22  C   UNL     1     -37.226  40.966 -57.577  1.00  0.00    -0.005 A 
HETATM   23  C   UNL     1     -37.071  41.931 -58.580  1.00  0.00     0.017 A 
HETATM   24  C   UNL     1     -37.255  41.609 -59.932  1.00  0.00     0.043 A 
HETATM   25  C   UNL     1     -37.610  40.319 -60.296  1.00  0.00     0.116 A 
HETATM   26  F   UNL     1     -37.786  40.020 -61.588  1.00  0.00    -0.206 F 
HETATM   27  C   UNL     1     -37.782  39.340 -59.332  1.00  0.00     0.043 A 
HETATM   28  C   UNL     1     -37.590  39.663 -57.985  1.00  0.00     0.017 A 
ENDBRANCH   2  22
TORSDOF 6
ENDMDL
MODEL 7
REMARK VINA RESULT:      -7.3      2.626      5.342
REMARK  6 active torsions:
REMARK  status: ('A' for Active; 'I' for Inactive)
REMARK    1  A    between atoms: C_2  and  N_3 
REMARK    2  A    between atoms: C_5  and  C_6 
REMARK    3  A    between atoms: C_6  and  N_7 
REMARK       I    between atoms: N_7  and  C_8 
REMARK    4  A    between atoms: C_8  and  C_9 
REMARK    5  A    between atoms: C_9  and  C_10 
REMARK    6  A    between atoms: C_11  and  C_12 
ROOT
HETATM    1  C   UNL     1     -42.231  56.203 -54.354  1.00  0.00     0.006 C 
HETATM    2  C   UNL     1     -42.428  54.865 -53.847  1.00  0.00     0.096 C 
HETATM    3  N   UNL     1     -43.734  54.553 -53.912  1.00  0.00    -0.173 NA
HETATM    4  N   UNL     1     -44.314  55.544 -54.583  1.00  0.00    -0.282 N 
HETATM    5  H   UNL     1     -45.298  55.449 -54.820  1.00  0.00     0.189 HD
HETATM    6  C   UNL     1     -43.474  56.581 -54.850  1.00  0.00     0.033 C 
HETATM    7  C   UNL     1     -43.945  57.782 -55.582  1.00  0.00     0.070 C 
ENDROOT
BRANCH   1   8
HETATM    8  C   UNL     1     -40.999  57.047 -54.405  1.00  0.00     0.146 C 
BRANCH   8   9
HETATM    9  C   UNL     1     -41.094  58.191 -53.402  1.00  0.00     0.222 C 
HETATM   10  N   UNL     1     -41.837  57.947 -52.270  1.00  0.00    -0.359 N 
HETATM   11  H   UNL     1     -42.388  57.095 -52.237  1.00  0.00     0.162 HD
HETATM   12  O   UNL     1     -40.484  59.256 -53.517  1.00  0.00    -0.273 OA
BRANCH  10  13
HETATM   13  C   UNL     1     -42.074  58.961 -51.248  1.00  0.00     0.155 C 
BRANCH  13  14
HETATM   14  C   UNL     1     -43.366  59.809 -51.409  1.00  0.00     0.206 C 
HETATM   15  N   UNL     1     -44.021  60.113 -50.063  1.00  0.00    -0.066 N 
HETATM   16  H   UNL     1     -43.541  59.517 -49.355  1.00  0.00     0.280 HD
HETATM   17  C   UNL     1     -45.449  59.623 -50.121  1.00  0.00     0.235 C 
HETATM   18  C   UNL     1     -45.428  58.565 -51.201  1.00  0.00     0.030 C 
HETATM   19  C   UNL     1     -44.464  59.127 -52.225  1.00  0.00     0.036 C 
BRANCH  15  20
HETATM   20  C   UNL     1     -43.841  61.523 -49.586  1.00  0.00     0.231 C 
HETATM   21  C   UNL     1     -43.317  62.405 -50.704  1.00  0.00     0.034 C 
ENDBRANCH  15  20
ENDBRANCH  13  14
ENDBRANCH  10  13
ENDBRANCH   8   9
ENDBRANCH   1   8
BRANCH   2  22
HETATM   22  C   UNL     1     -41.498  53.851 -53.297  1.00  0.00    -0.005 A 
HETATM   23  C   UNL     1     -40.839  52.893 -54.077  1.00  0.00     0.017 A 
HETATM   24  C   UNL     1     -39.972  51.957 -53.496  1.00  0.00     0.043 A 
HETATM   25  C   UNL     1     -39.763  51.962 -52.125  1.00  0.00     0.116 A 
HETATM   26  F   UNL     1     -38.934  51.064 -51.579  1.00  0.00    -0.206 F 
HETATM   27  C   UNL     1     -40.404  52.888 -51.320  1.00  0.00     0.043 A 
HETATM   28  C   UNL     1     -41.263  53.824 -51.904  1.00  0.00     0.017 A 
ENDBRANCH   2  22
TORSDOF 6
ENDMDL
MODEL 8
REMARK VINA RESULT:      -7.0      1.479      2.449
REMARK  6 active torsions:
REMARK  status: ('A' for Active; 'I' for Inactive)
REMARK    1  A    between atoms: C_2  and  N_3 
REMARK    2  A    between atoms: C_5  and  C_6 
REMARK    3  A    between atoms: C_6  and  N_7 
REMARK       I    between atoms: N_7  and  C_8 
REMARK    4  A    between atoms: C_8  and  C_9 
REMARK    5  A    between atoms: C_9  and  C_10 
REMARK    6  A    between atoms: C_11  and  C_12 
ROOT
HETATM    1  C   UNL     1     -41.380  55.714 -52.766  1.00  0.00     0.006 C 
HETATM    2  C   UNL     1     -41.177  54.436 -52.124  1.00  0.00     0.096 C 
HETATM    3  N   UNL     1     -41.546  54.523 -50.834  1.00  0.00    -0.173 NA
HETATM    4  N   UNL     1     -42.119  55.716 -50.697  1.00  0.00    -0.282 N 
HETATM    5  H   UNL     1     -42.551  55.939 -49.805  1.00  0.00     0.189 HD
HETATM    6  C   UNL     1     -42.023  56.493 -51.810  1.00  0.00     0.033 C 
HETATM    7  C   UNL     1     -42.595  57.861 -51.843  1.00  0.00     0.070 C 
ENDROOT
BRANCH   1   8
HETATM    8  C   UNL     1     -41.038  56.169 -54.148  1.00  0.00     0.146 C 
BRANCH   8   9
HETATM    9  C   UNL     1     -42.260  56.082 -55.056  1.00  0.00     0.222 C 
HETATM   10  N   UNL     1     -42.531  57.195 -55.819  1.00  0.00    -0.359 N 
HETATM   11  H   UNL     1     -42.004  58.042 -55.629  1.00  0.00     0.162 HD
HETATM   12  O   UNL     1     -42.939  55.064 -55.196  1.00  0.00    -0.273 OA
BRANCH  10  13
HETATM   13  C   UNL     1     -43.699  57.290 -56.688  1.00  0.00     0.155 C 
BRANCH  13  14
HETATM   14  C   UNL     1     -44.960  57.955 -56.073  1.00  0.00     0.206 C 
HETATM   15  N   UNL     1     -45.717  58.800 -57.096  1.00  0.00    -0.066 N 
HETATM   16  H   UNL     1     -45.101  58.882 -57.932  1.00  0.00     0.280 HD
HETATM   17  C   UNL     1     -45.848  60.198 -56.537  1.00  0.00     0.235 C 
HETATM   18  C   UNL     1     -44.714  60.301 -55.543  1.00  0.00     0.030 C 
HETATM   19  C   UNL     1     -44.661  58.919 -54.924  1.00  0.00     0.036 C 
BRANCH  15  20
HETATM   20  C   UNL     1     -46.990  58.183 -57.595  1.00  0.00     0.231 C 
HETATM   21  C   UNL     1     -46.770  57.512 -58.938  1.00  0.00     0.034 C 
ENDBRANCH  15  20
ENDBRANCH  13  14
ENDBRANCH  10  13
ENDBRANCH   8   9
ENDBRANCH   1   8
BRANCH   2  22
HETATM   22  C   UNL     1     -40.659  53.137 -52.613  1.00  0.00    -0.005 A 
HETATM   23  C   UNL     1     -40.842  52.665 -53.918  1.00  0.00     0.017 A 
HETATM   24  C   UNL     1     -40.329  51.424 -54.320  1.00  0.00     0.043 A 
HETATM   25  C   UNL     1     -39.636  50.634 -53.415  1.00  0.00     0.116 A 
HETATM   26  F   UNL     1     -39.151  49.450 -53.805  1.00  0.00    -0.206 F 
HETATM   27  C   UNL     1     -39.443  51.063 -52.112  1.00  0.00     0.043 A 
HETATM   28  C   UNL     1     -39.950  52.304 -51.718  1.00  0.00     0.017 A 
ENDBRANCH   2  22
TORSDOF 6
ENDMDL
MODEL 9
REMARK VINA RESULT:      -6.9     14.768     17.740
REMARK  6 active torsions:
REMARK  status: ('A' for Active; 'I' for Inactive)
REMARK    1  A    between atoms: C_2  and  N_3 
REMARK    2  A    between atoms: C_5  and  C_6 
REMARK    3  A    between atoms: C_6  and  N_7 
REMARK       I    between atoms: N_7  and  C_8 
REMARK    4  A    between atoms: C_8  and  C_9 
REMARK    5  A    between atoms: C_9  and  C_10 
REMARK    6  A    between atoms: C_11  and  C_12 
ROOT
HETATM    1  C   UNL     1     -35.354  41.083 -57.417  1.00  0.00     0.006 C 
HETATM    2  C   UNL     1     -34.681  39.807 -57.352  1.00  0.00     0.096 C 
HETATM    3  N   UNL     1     -35.253  38.959 -58.226  1.00  0.00    -0.173 NA
HETATM    4  N   UNL     1     -36.111  39.688 -58.935  1.00  0.00    -0.282 N 
HETATM    5  H   UNL     1     -36.583  39.243 -59.718  1.00  0.00     0.189 HD
HETATM    6  C   UNL     1     -36.243  40.963 -58.479  1.00  0.00     0.033 C 
HETATM    7  C   UNL     1     -37.163  41.922 -59.137  1.00  0.00     0.070 C 
ENDROOT
BRANCH   1   8
HETATM    8  C   UNL     1     -35.171  42.316 -56.592  1.00  0.00     0.146 C 
BRANCH   8   9
HETATM    9  C   UNL     1     -35.975  42.218 -55.300  1.00  0.00     0.222 C 
HETATM   10  N   UNL     1     -35.279  42.430 -54.132  1.00  0.00    -0.359 N 
HETATM   11  H   UNL     1     -34.267  42.491 -54.186  1.00  0.00     0.162 HD
HETATM   12  O   UNL     1     -37.195  42.049 -55.263  1.00  0.00    -0.273 OA
BRANCH  10  13
HETATM   13  C   UNL     1     -35.893  42.308 -52.815  1.00  0.00     0.155 C 
BRANCH  13  14
HETATM   14  C   UNL     1     -35.645  40.972 -52.062  1.00  0.00     0.206 C 
HETATM   15  N   UNL     1     -34.233  40.439 -52.294  1.00  0.00    -0.066 N 
HETATM   16  H   UNL     1     -33.819  41.011 -53.060  1.00  0.00     0.280 HD
HETATM   17  C   UNL     1     -34.350  39.035 -52.837  1.00  0.00     0.235 C 
HETATM   18  C   UNL     1     -35.732  38.995 -53.450  1.00  0.00     0.030 C 
HETATM   19  C   UNL     1     -36.563  39.830 -52.499  1.00  0.00     0.036 C 
BRANCH  15  20
HETATM   20  C   UNL     1     -33.306  40.604 -51.127  1.00  0.00     0.231 C 
HETATM   21  C   UNL     1     -31.878  40.277 -51.524  1.00  0.00     0.034 C 
ENDBRANCH  15  20
ENDBRANCH  13  14
ENDBRANCH  10  13
ENDBRANCH   8   9
ENDBRANCH   1   8
BRANCH   2  22
HETATM   22  C   UNL     1     -33.550  39.306 -56.537  1.00  0.00    -0.005 A 
HETATM   23  C   UNL     1     -32.562  40.129 -55.984  1.00  0.00     0.017 A 
HETATM   24  C   UNL     1     -31.514  39.594 -55.223  1.00  0.00     0.043 A 
HETATM   25  C   UNL     1     -31.436  38.225 -55.016  1.00  0.00     0.116 A 
HETATM   26  F   UNL     1     -30.431  37.721 -54.290  1.00  0.00    -0.206 F 
HETATM   27  C   UNL     1     -32.389  37.378 -55.555  1.00  0.00     0.043 A 
HETATM   28  C   UNL     1     -33.436  37.916 -56.308  1.00  0.00     0.017 A 
ENDBRANCH   2  22
TORSDOF 6
ENDMDL
MODEL 10
REMARK VINA RESULT:      -6.9      1.653      2.239
REMARK  6 active torsions:
REMARK  status: ('A' for Active; 'I' for Inactive)
REMARK    1  A    between atoms: C_2  and  N_3 
REMARK    2  A    between atoms: C_5  and  C_6 
REMARK    3  A    between atoms: C_6  and  N_7 
REMARK       I    between atoms: N_7  and  C_8 
REMARK    4  A    between atoms: C_8  and  C_9 
REMARK    5  A    between atoms: C_9  and  C_10 
REMARK    6  A    between atoms: C_11  and  C_12 
ROOT
HETATM    1  C   UNL     1     -42.922  56.962 -53.743  1.00  0.00     0.006 C 
HETATM    2  C   UNL     1     -41.734  56.343 -53.202  1.00  0.00     0.096 C 
HETATM    3  N   UNL     1     -41.082  57.231 -52.431  1.00  0.00    -0.173 NA
HETATM    4  N   UNL     1     -41.884  58.288 -52.331  1.00  0.00    -0.282 N 
HETATM    5  H   UNL     1     -41.607  59.041 -51.708  1.00  0.00     0.189 HD
HETATM    6  C   UNL     1     -42.990  58.203 -53.120  1.00  0.00     0.033 C 
HETATM    7  C   UNL     1     -43.996  59.293 -53.151  1.00  0.00     0.070 C 
ENDROOT
BRANCH   1   8
HETATM    8  C   UNL     1     -43.923  56.443 -54.724  1.00  0.00     0.146 C 
BRANCH   8   9
HETATM    9  C   UNL     1     -43.328  56.413 -56.127  1.00  0.00     0.222 C 
HETATM   10  N   UNL     1     -43.027  57.634 -56.687  1.00  0.00    -0.359 N 
HETATM   11  H   UNL     1     -43.346  58.469 -56.207  1.00  0.00     0.162 HD
HETATM   12  O   UNL     1     -43.036  55.376 -56.726  1.00  0.00    -0.273 OA
BRANCH  10  13
HETATM   13  C   UNL     1     -42.512  57.773 -58.045  1.00  0.00     0.155 C 
BRANCH  13  14
HETATM   14  C   UNL     1     -43.563  57.716 -59.187  1.00  0.00     0.206 C 
HETATM   15  N   UNL     1     -44.915  57.202 -58.695  1.00  0.00    -0.066 N 
HETATM   16  H   UNL     1     -44.762  56.831 -57.733  1.00  0.00     0.280 HD
HETATM   17  C   UNL     1     -45.296  56.012 -59.544  1.00  0.00     0.235 C 
HETATM   18  C   UNL     1     -43.974  55.506 -60.078  1.00  0.00     0.030 C 
HETATM   19  C   UNL     1     -43.189  56.776 -60.334  1.00  0.00     0.036 C 
BRANCH  15  20
HETATM   20  C   UNL     1     -45.970  58.258 -58.554  1.00  0.00     0.231 C 
HETATM   21  C   UNL     1     -46.709  58.107 -57.238  1.00  0.00     0.034 C 
ENDBRANCH  15  20
ENDBRANCH  13  14
ENDBRANCH  10  13
ENDBRANCH   8   9
ENDBRANCH   1   8
BRANCH   2  22
HETATM   22  C   UNL     1     -41.150  54.989 -53.349  1.00  0.00    -0.005 A 
HETATM   23  C   UNL     1     -41.074  54.056 -52.308  1.00  0.00     0.017 A 
HETATM   24  C   UNL     1     -40.506  52.790 -52.510  1.00  0.00     0.043 A 
HETATM   25  C   UNL     1     -39.996  52.448 -53.753  1.00  0.00     0.116 A 
HETATM   26  F   UNL     1     -39.454  51.238 -53.937  1.00  0.00    -0.206 F 
HETATM   27  C   UNL     1     -40.045  53.349 -54.804  1.00  0.00     0.043 A 
HETATM   28  C   UNL     1     -40.618  54.607 -54.601  1.00  0.00     0.017 A 
ENDBRANCH   2  22
TORSDOF 6
ENDMDL
