MODEL 1
REMARK VINA RESULT:      -8.4      0.000      0.000
REMARK  7 active torsions:
REMARK  status: ('A' for Active; 'I' for Inactive)
REMARK    1  A    between atoms: C_2  and  N_3 
REMARK    2  A    between atoms: C_11  and  C_12 
REMARK    3  A    between atoms: C_14  and  O_15 
REMARK    4  A    between atoms: C_17  and  O_18 
REMARK    5  A    between atoms: O_18  and  C_19 
REMARK    6  A    between atoms: C_19  and  C_20 
REMARK    7  A    between atoms: C_31  and  O_32 
ROOT
HETATM    1  N   UNL     1     -43.246  60.943 -60.524  1.00  0.00    -0.067 N 
HETATM    2  H   UNL     1     -43.472  61.347 -61.441  1.00  0.00     0.280 HD
HETATM    3  C   UNL     1     -43.903  59.561 -60.509  1.00  0.00     0.281 C 
HETATM    4  C   UNL     1     -43.992  59.037 -59.117  1.00  0.00     0.018 A 
HETATM    5  C   UNL     1     -43.919  59.810 -57.971  1.00  0.00    -0.024 A 
HETATM    6  C   UNL     1     -44.015  58.997 -56.796  1.00  0.00     0.057 A 
HETATM    7  C   UNL     1     -44.153  57.667 -57.111  1.00  0.00     0.087 A 
HETATM    8  N   UNL     1     -44.212  56.710 -56.170  1.00  0.00    -0.357 N 
HETATM    9  C   UNL     1     -44.434  57.120 -54.791  1.00  0.00     0.243 C 
HETATM   10  N   UNL     1     -44.132  58.517 -54.433  1.00  0.00    -0.235 NA
HETATM   11  C   UNL     1     -43.960  59.336 -55.400  1.00  0.00     0.173 C 
HETATM   12  S   UNL     1     -44.197  57.381 -58.783  1.00  0.00    -0.074 SA
HETATM   13  C   UNL     1     -43.709  61.295 -58.039  1.00  0.00     0.068 C 
HETATM   14  C   UNL     1     -43.897  61.839 -59.468  1.00  0.00     0.240 C 
HETATM   15  H   UNL     1     -44.476  55.755 -56.391  1.00  0.00     0.162 HD
ENDROOT
BRANCH   9  16
HETATM   16  C   UNL     1     -43.651  56.192 -53.876  1.00  0.00    -0.012 A 
HETATM   17  C   UNL     1     -43.147  56.656 -52.644  1.00  0.00     0.050 A 
HETATM   18  C   UNL     1     -42.486  55.791 -51.766  1.00  0.00     0.102 A 
HETATM   19  C   UNL     1     -42.352  54.439 -52.119  1.00  0.00     0.112 A 
HETATM   20  C   UNL     1     -42.822  53.968 -53.344  1.00  0.00     0.041 A 
HETATM   21  C   UNL     1     -43.474  54.843 -54.215  1.00  0.00     0.014 A 
BRANCH  18  22
HETATM   22  O   UNL     1     -41.967  56.154 -50.551  1.00  0.00    -0.353 OA
HETATM   23  C   UNL     1     -41.035  57.227 -50.533  1.00  0.00     0.210 C 
ENDBRANCH  18  22
BRANCH  19  24
HETATM   24  O   UNL     1     -41.725  53.609 -51.151  1.00  0.00    -0.272 OA
BRANCH  24  25
HETATM   25  C   UNL     1     -40.366  53.362 -51.052  1.00  0.00     0.300 C 
HETATM   26  O   UNL     1     -39.502  54.041 -50.524  1.00  0.00    -0.259 OA
BRANCH  25  27
HETATM   27  C   UNL     1     -40.106  52.029 -51.618  1.00  0.00     0.061 A 
HETATM   28  C   UNL     1     -39.907  51.818 -52.986  1.00  0.00     0.050 A 
HETATM   29 CL   UNL     1     -39.910  53.099 -54.145  1.00  0.00    -0.083 Cl
HETATM   30  C   UNL     1     -39.643  50.525 -53.452  1.00  0.00     0.025 A 
HETATM   31  C   UNL     1     -39.569  49.454 -52.558  1.00  0.00     0.002 A 
HETATM   32  C   UNL     1     -39.747  49.670 -51.192  1.00  0.00     0.001 A 
HETATM   33  C   UNL     1     -40.010  50.956 -50.719  1.00  0.00     0.019 A 
ENDBRANCH  25  27
ENDBRANCH  24  25
ENDBRANCH  19  24
ENDBRANCH   9  16
BRANCH  11  34
HETATM   34  O   UNL     1     -43.698  60.621 -55.102  1.00  0.00    -0.344 OA
HETATM   35  H   UNL     1     -44.523  60.991 -54.740  1.00  0.00     0.219 HD
ENDBRANCH  11  34
BRANCH   1  36
HETATM   36  C   UNL     1     -41.736  60.842 -60.453  1.00  0.00     0.231 C 
HETATM   37  C   UNL     1     -41.091  62.212 -60.551  1.00  0.00     0.034 C 
ENDBRANCH   1  36
TORSDOF 7
ENDMDL
MODEL 2
REMARK VINA RESULT:      -8.3      4.190      5.839
REMARK  7 active torsions:
REMARK  status: ('A' for Active; 'I' for Inactive)
REMARK    1  A    between atoms: C_2  and  N_3 
REMARK    2  A    between atoms: C_11  and  C_12 
REMARK    3  A    between atoms: C_14  and  O_15 
REMARK    4  A    between atoms: C_17  and  O_18 
REMARK    5  A    between atoms: O_18  and  C_19 
REMARK    6  A    between atoms: C_19  and  C_20 
REMARK    7  A    between atoms: C_31  and  O_32 
ROOT
HETATM    1  N   UNL     1     -47.450  64.197 -51.572  1.00  0.00    -0.067 N 
HETATM    2  H   UNL     1     -47.998  64.987 -51.209  1.00  0.00     0.280 HD
HETATM    3  C   UNL     1     -47.091  63.349 -50.350  1.00  0.00     0.281 C 
HETATM    4  C   UNL     1     -45.982  62.407 -50.673  1.00  0.00     0.018 A 
HETATM    5  C   UNL     1     -45.104  62.547 -51.733  1.00  0.00    -0.024 A 
HETATM    6  C   UNL     1     -44.174  61.460 -51.777  1.00  0.00     0.057 A 
HETATM    7  C   UNL     1     -44.395  60.563 -50.760  1.00  0.00     0.087 A 
HETATM    8  N   UNL     1     -43.675  59.437 -50.629  1.00  0.00    -0.357 N 
HETATM    9  C   UNL     1     -42.448  59.315 -51.402  1.00  0.00     0.243 C 
HETATM   10  N   UNL     1     -42.294  60.179 -52.585  1.00  0.00    -0.235 NA
HETATM   11  C   UNL     1     -43.111  61.155 -52.697  1.00  0.00     0.173 C 
HETATM   12  S   UNL     1     -45.674  61.016 -49.742  1.00  0.00    -0.074 SA
HETATM   13  C   UNL     1     -45.218  63.691 -52.700  1.00  0.00     0.068 C 
HETATM   14  C   UNL     1     -46.179  64.782 -52.190  1.00  0.00     0.240 C 
HETATM   15  H   UNL     1     -43.726  58.861 -49.793  1.00  0.00     0.162 HD
ENDROOT
BRANCH   9  16
HETATM   16  C   UNL     1     -42.279  57.863 -51.820  1.00  0.00    -0.012 A 
HETATM   17  C   UNL     1     -42.932  57.365 -52.966  1.00  0.00     0.050 A 
HETATM   18  C   UNL     1     -42.728  56.051 -53.396  1.00  0.00     0.102 A 
HETATM   19  C   UNL     1     -41.836  55.234 -52.682  1.00  0.00     0.112 A 
HETATM   20  C   UNL     1     -41.200  55.702 -51.534  1.00  0.00     0.041 A 
HETATM   21  C   UNL     1     -41.418  57.014 -51.109  1.00  0.00     0.014 A 
BRANCH  18  22
HETATM   22  O   UNL     1     -43.319  55.485 -54.496  1.00  0.00    -0.353 OA
HETATM   23  C   UNL     1     -43.000  56.038 -55.765  1.00  0.00     0.210 C 
ENDBRANCH  18  22
BRANCH  19  24
HETATM   24  O   UNL     1     -41.632  53.933 -53.214  1.00  0.00    -0.272 OA
BRANCH  24  25
HETATM   25  C   UNL     1     -40.535  53.523 -53.953  1.00  0.00     0.300 C 
HETATM   26  O   UNL     1     -39.873  54.157 -54.757  1.00  0.00    -0.259 OA
BRANCH  25  27
HETATM   27  C   UNL     1     -40.189  52.157 -53.529  1.00  0.00     0.061 A 
HETATM   28  C   UNL     1     -39.718  51.864 -52.245  1.00  0.00     0.050 A 
HETATM   29 CL   UNL     1     -39.529  53.064 -51.017  1.00  0.00    -0.083 Cl
HETATM   30  C   UNL     1     -39.428  50.539 -51.903  1.00  0.00     0.025 A 
HETATM   31  C   UNL     1     -39.616  49.513 -52.833  1.00  0.00     0.002 A 
HETATM   32  C   UNL     1     -40.105  49.804 -54.106  1.00  0.00     0.001 A 
HETATM   33  C   UNL     1     -40.397  51.123 -54.455  1.00  0.00     0.019 A 
ENDBRANCH  25  27
ENDBRANCH  24  25
ENDBRANCH  19  24
ENDBRANCH   9  16
BRANCH  11  34
HETATM   34  O   UNL     1     -42.984  61.969 -53.760  1.00  0.00    -0.344 OA
HETATM   35  H   UNL     1     -42.737  62.843 -53.407  1.00  0.00     0.219 HD
ENDBRANCH  11  34
BRANCH   1  36
HETATM   36  C   UNL     1     -48.354  63.444 -52.527  1.00  0.00     0.231 C 
HETATM   37  C   UNL     1     -49.808  63.561 -52.110  1.00  0.00     0.034 C 
ENDBRANCH   1  36
TORSDOF 7
ENDMDL
MODEL 3
REMARK VINA RESULT:      -8.2      1.676      2.202
REMARK  7 active torsions:
REMARK  status: ('A' for Active; 'I' for Inactive)
REMARK    1  A    between atoms: C_2  and  N_3 
REMARK    2  A    between atoms: C_11  and  C_12 
REMARK    3  A    between atoms: C_14  and  O_15 
REMARK    4  A    between atoms: C_17  and  O_18 
REMARK    5  A    between atoms: O_18  and  C_19 
REMARK    6  A    between atoms: C_19  and  C_20 
REMARK    7  A    between atoms: C_31  and  O_32 
ROOT
HETATM    1  N   UNL     1     -41.460  62.398 -61.022  1.00  0.00    -0.067 N 
HETATM    2  H   UNL     1     -41.396  62.953 -61.885  1.00  0.00     0.280 HD
HETATM    3  C   UNL     1     -41.711  60.958 -61.476  1.00  0.00     0.281 C 
HETATM    4  C   UNL     1     -42.212  60.130 -60.344  1.00  0.00     0.018 A 
HETATM    5  C   UNL     1     -42.788  60.631 -59.188  1.00  0.00    -0.024 A 
HETATM    6  C   UNL     1     -43.138  59.572 -58.290  1.00  0.00     0.057 A 
HETATM    7  C   UNL     1     -42.811  58.341 -58.806  1.00  0.00     0.087 A 
HETATM    8  N   UNL     1     -43.003  57.203 -58.118  1.00  0.00    -0.357 N 
HETATM    9  C   UNL     1     -43.843  57.253 -56.931  1.00  0.00     0.243 C 
HETATM   10  N   UNL     1     -44.058  58.566 -56.297  1.00  0.00    -0.235 NA
HETATM   11  C   UNL     1     -43.723  59.596 -56.976  1.00  0.00     0.173 C 
HETATM   12  S   UNL     1     -42.122  58.431 -60.353  1.00  0.00    -0.074 SA
HETATM   13  C   UNL     1     -42.937  62.108 -58.962  1.00  0.00     0.068 C 
HETATM   14  C   UNL     1     -42.672  62.916 -60.246  1.00  0.00     0.240 C 
HETATM   15  H   UNL     1     -42.916  56.291 -58.556  1.00  0.00     0.162 HD
ENDROOT
BRANCH   9  16
HETATM   16  C   UNL     1     -43.284  56.287 -55.898  1.00  0.00    -0.012 A 
HETATM   17  C   UNL     1     -43.602  56.434 -54.532  1.00  0.00     0.050 A 
HETATM   18  C   UNL     1     -43.148  55.510 -53.586  1.00  0.00     0.102 A 
HETATM   19  C   UNL     1     -42.388  54.412 -54.020  1.00  0.00     0.112 A 
HETATM   20  C   UNL     1     -42.044  54.265 -55.362  1.00  0.00     0.041 A 
HETATM   21  C   UNL     1     -42.497  55.198 -56.297  1.00  0.00     0.014 A 
BRANCH  18  22
HETATM   22  O   UNL     1     -43.409  55.573 -52.242  1.00  0.00    -0.353 OA
HETATM   23  C   UNL     1     -42.837  56.652 -51.515  1.00  0.00     0.210 C 
ENDBRANCH  18  22
BRANCH  19  24
HETATM   24  O   UNL     1     -42.016  53.483 -53.011  1.00  0.00    -0.272 OA
BRANCH  24  25
HETATM   25  C   UNL     1     -40.765  53.377 -52.428  1.00  0.00     0.300 C 
HETATM   26  O   UNL     1     -40.164  54.195 -51.752  1.00  0.00    -0.259 OA
BRANCH  25  27
HETATM   27  C   UNL     1     -40.270  52.011 -52.664  1.00  0.00     0.061 A 
HETATM   28  C   UNL     1     -40.022  51.111 -51.622  1.00  0.00     0.050 A 
HETATM   29 CL   UNL     1     -40.304  51.494 -49.961  1.00  0.00    -0.083 Cl
HETATM   30  C   UNL     1     -39.572  49.820 -51.920  1.00  0.00     0.025 A 
HETATM   31  C   UNL     1     -39.381  49.429 -53.248  1.00  0.00     0.002 A 
HETATM   32  C   UNL     1     -39.649  50.321 -54.285  1.00  0.00     0.001 A 
HETATM   33  C   UNL     1     -40.098  51.610 -53.996  1.00  0.00     0.019 A 
ENDBRANCH  25  27
ENDBRANCH  24  25
ENDBRANCH  19  24
ENDBRANCH   9  16
BRANCH  11  34
HETATM   34  O   UNL     1     -43.921  60.808 -56.428  1.00  0.00    -0.344 OA
HETATM   35  H   UNL     1     -43.887  60.680 -55.462  1.00  0.00     0.219 HD
ENDBRANCH  11  34
BRANCH   1  36
HETATM   36  C   UNL     1     -40.126  62.535 -60.319  1.00  0.00     0.231 C 
HETATM   37  C   UNL     1     -39.233  63.534 -61.030  1.00  0.00     0.034 C 
ENDBRANCH   1  36
TORSDOF 7
ENDMDL
MODEL 4
REMARK VINA RESULT:      -8.1      2.375      3.400
REMARK  7 active torsions:
REMARK  status: ('A' for Active; 'I' for Inactive)
REMARK    1  A    between atoms: C_2  and  N_3 
REMARK    2  A    between atoms: C_11  and  C_12 
REMARK    3  A    between atoms: C_14  and  O_15 
REMARK    4  A    between atoms: C_17  and  O_18 
REMARK    5  A    between atoms: O_18  and  C_19 
REMARK    6  A    between atoms: C_19  and  C_20 
REMARK    7  A    between atoms: C_31  and  O_32 
ROOT
HETATM    1  N   UNL     1     -40.701  63.510 -62.270  1.00  0.00    -0.067 N 
HETATM    2  H   UNL     1     -40.754  63.986 -63.179  1.00  0.00     0.280 HD
HETATM    3  C   UNL     1     -41.426  62.175 -62.462  1.00  0.00     0.281 C 
HETATM    4  C   UNL     1     -41.766  61.568 -61.145  1.00  0.00     0.018 A 
HETATM    5  C   UNL     1     -41.837  62.258 -59.947  1.00  0.00    -0.024 A 
HETATM    6  C   UNL     1     -42.164  61.377 -58.866  1.00  0.00     0.057 A 
HETATM    7  C   UNL     1     -42.321  60.082 -59.298  1.00  0.00     0.087 A 
HETATM    8  N   UNL     1     -42.583  59.072 -58.452  1.00  0.00    -0.357 N 
HETATM    9  C   UNL     1     -43.001  59.404 -57.098  1.00  0.00     0.243 C 
HETATM   10  N   UNL     1     -42.687  60.752 -56.593  1.00  0.00    -0.235 NA
HETATM   11  C   UNL     1     -42.317  61.619 -57.457  1.00  0.00     0.173 C 
HETATM   12  S   UNL     1     -42.111  59.911 -60.972  1.00  0.00    -0.074 SA
HETATM   13  C   UNL     1     -41.539  63.728 -59.870  1.00  0.00     0.068 C 
HETATM   14  C   UNL     1     -41.465  64.375 -61.266  1.00  0.00     0.240 C 
HETATM   15  H   UNL     1     -42.859  58.153 -58.783  1.00  0.00     0.162 HD
ENDROOT
BRANCH   9  16
HETATM   16  C   UNL     1     -42.427  58.369 -56.144  1.00  0.00    -0.012 A 
HETATM   17  C   UNL     1     -41.982  58.745 -54.860  1.00  0.00     0.050 A 
HETATM   18  C   UNL     1     -41.516  57.789 -53.952  1.00  0.00     0.102 A 
HETATM   19  C   UNL     1     -41.522  56.436 -54.329  1.00  0.00     0.112 A 
HETATM   20  C   UNL     1     -41.936  56.049 -55.602  1.00  0.00     0.041 A 
HETATM   21  C   UNL     1     -42.392  57.014 -56.503  1.00  0.00     0.014 A 
BRANCH  18  22
HETATM   22  O   UNL     1     -41.066  58.063 -52.687  1.00  0.00    -0.353 OA
HETATM   23  C   UNL     1     -39.910  58.880 -52.567  1.00  0.00     0.210 C 
ENDBRANCH  18  22
BRANCH  19  24
HETATM   24  O   UNL     1     -41.095  55.518 -53.332  1.00  0.00    -0.272 OA
BRANCH  24  25
HETATM   25  C   UNL     1     -41.827  54.447 -52.850  1.00  0.00     0.300 C 
HETATM   26  O   UNL     1     -42.984  54.423 -52.463  1.00  0.00    -0.259 OA
BRANCH  25  27
HETATM   27  C   UNL     1     -40.997  53.238 -52.974  1.00  0.00     0.061 A 
HETATM   28  C   UNL     1     -40.180  52.776 -51.936  1.00  0.00     0.050 A 
HETATM   29 CL   UNL     1     -40.088  53.553 -50.397  1.00  0.00    -0.083 Cl
HETATM   30  C   UNL     1     -39.433  51.607 -52.117  1.00  0.00     0.025 A 
HETATM   31  C   UNL     1     -39.510  50.900 -53.319  1.00  0.00     0.002 A 
HETATM   32  C   UNL     1     -40.341  51.350 -54.344  1.00  0.00     0.001 A 
HETATM   33  C   UNL     1     -41.089  52.515 -54.172  1.00  0.00     0.019 A 
ENDBRANCH  25  27
ENDBRANCH  24  25
ENDBRANCH  19  24
ENDBRANCH   9  16
BRANCH  11  34
HETATM   34  O   UNL     1     -42.037  62.862 -57.026  1.00  0.00    -0.344 OA
HETATM   35  H   UNL     1     -42.661  63.047 -56.300  1.00  0.00     0.219 HD
ENDBRANCH  11  34
BRANCH   1  36
HETATM   36  C   UNL     1     -39.230  63.306 -61.971  1.00  0.00     0.231 C 
HETATM   37  C   UNL     1     -38.394  63.440 -63.230  1.00  0.00     0.034 C 
ENDBRANCH   1  36
TORSDOF 7
ENDMDL
MODEL 5
REMARK VINA RESULT:      -7.8      3.467      4.710
REMARK  7 active torsions:
REMARK  status: ('A' for Active; 'I' for Inactive)
REMARK    1  A    between atoms: C_2  and  N_3 
REMARK    2  A    between atoms: C_11  and  C_12 
REMARK    3  A    between atoms: C_14  and  O_15 
REMARK    4  A    between atoms: C_17  and  O_18 
REMARK    5  A    between atoms: O_18  and  C_19 
REMARK    6  A    between atoms: C_19  and  C_20 
REMARK    7  A    between atoms: C_31  and  O_32 
ROOT
HETATM    1  N   UNL     1     -49.190  60.763 -61.420  1.00  0.00    -0.067 N 
HETATM    2  H   UNL     1     -49.690  61.440 -62.010  1.00  0.00     0.280 HD
HETATM    3  C   UNL     1     -47.806  61.373 -61.178  1.00  0.00     0.281 C 
HETATM    4  C   UNL     1     -46.856  60.338 -60.682  1.00  0.00     0.018 A 
HETATM    5  C   UNL     1     -47.024  58.972 -60.825  1.00  0.00    -0.024 A 
HETATM    6  C   UNL     1     -45.944  58.255 -60.215  1.00  0.00     0.057 A 
HETATM    7  C   UNL     1     -45.027  59.108 -59.649  1.00  0.00     0.087 A 
HETATM    8  N   UNL     1     -43.953  58.660 -58.977  1.00  0.00    -0.357 N 
HETATM    9  C   UNL     1     -43.600  57.254 -59.110  1.00  0.00     0.243 C 
HETATM   10  N   UNL     1     -44.645  56.324 -59.572  1.00  0.00    -0.235 NA
HETATM   11  C   UNL     1     -45.696  56.845 -60.081  1.00  0.00     0.173 C 
HETATM   12  S   UNL     1     -45.423  60.743 -59.859  1.00  0.00    -0.074 SA
HETATM   13  C   UNL     1     -48.239  58.397 -61.495  1.00  0.00     0.068 C 
HETATM   14  C   UNL     1     -49.054  59.475 -62.234  1.00  0.00     0.240 C 
HETATM   15  H   UNL     1     -43.196  59.278 -58.703  1.00  0.00     0.162 HD
ENDROOT
BRANCH   9  16
HETATM   16  C   UNL     1     -43.051  56.763 -57.779  1.00  0.00    -0.012 A 
HETATM   17  C   UNL     1     -42.582  57.678 -56.815  1.00  0.00     0.050 A 
HETATM   18  C   UNL     1     -42.140  57.240 -55.563  1.00  0.00     0.102 A 
HETATM   19  C   UNL     1     -42.195  55.869 -55.266  1.00  0.00     0.112 A 
HETATM   20  C   UNL     1     -42.634  54.948 -56.216  1.00  0.00     0.041 A 
HETATM   21  C   UNL     1     -43.065  55.397 -57.466  1.00  0.00     0.014 A 
BRANCH  18  22
HETATM   22  O   UNL     1     -41.669  58.056 -54.567  1.00  0.00    -0.353 OA
HETATM   23  C   UNL     1     -41.967  59.442 -54.664  1.00  0.00     0.210 C 
ENDBRANCH  18  22
BRANCH  19  24
HETATM   24  O   UNL     1     -41.789  55.506 -53.954  1.00  0.00    -0.272 OA
BRANCH  24  25
HETATM   25  C   UNL     1     -42.327  54.482 -53.193  1.00  0.00     0.300 C 
HETATM   26  O   UNL     1     -43.465  54.360 -52.770  1.00  0.00    -0.259 OA
BRANCH  25  27
HETATM   27  C   UNL     1     -41.299  53.440 -53.044  1.00  0.00     0.061 A 
HETATM   28  C   UNL     1     -40.593  53.246 -51.852  1.00  0.00     0.050 A 
HETATM   29 CL   UNL     1     -40.876  54.181 -50.428  1.00  0.00    -0.083 Cl
HETATM   30  C   UNL     1     -39.643  52.221 -51.774  1.00  0.00     0.025 A 
HETATM   31  C   UNL     1     -39.409  51.391 -52.873  1.00  0.00     0.002 A 
HETATM   32  C   UNL     1     -40.129  51.573 -54.053  1.00  0.00     0.001 A 
HETATM   33  C   UNL     1     -41.078  52.592 -54.139  1.00  0.00     0.019 A 
ENDBRANCH  25  27
ENDBRANCH  24  25
ENDBRANCH  19  24
ENDBRANCH   9  16
BRANCH  11  34
HETATM   34  O   UNL     1     -46.660  56.020 -60.526  1.00  0.00    -0.344 OA
HETATM   35  H   UNL     1     -46.263  55.130 -60.561  1.00  0.00     0.219 HD
ENDBRANCH  11  34
BRANCH   1  36
HETATM   36  C   UNL     1     -49.978  60.642 -60.132  1.00  0.00     0.231 C 
HETATM   37  C   UNL     1     -50.898  61.833 -59.941  1.00  0.00     0.034 C 
ENDBRANCH   1  36
TORSDOF 7
ENDMDL
MODEL 6
REMARK VINA RESULT:      -7.6      5.152      8.046
REMARK  7 active torsions:
REMARK  status: ('A' for Active; 'I' for Inactive)
REMARK    1  A    between atoms: C_2  and  N_3 
REMARK    2  A    between atoms: C_11  and  C_12 
REMARK    3  A    between atoms: C_14  and  O_15 
REMARK    4  A    between atoms: C_17  and  O_18 
REMARK    5  A    between atoms: O_18  and  C_19 
REMARK    6  A    between atoms: C_19  and  C_20 
REMARK    7  A    between atoms: C_31  and  O_32 
ROOT
HETATM    1  N   UNL     1     -43.743  56.872 -60.298  1.00  0.00    -0.067 N 
HETATM    2  H   UNL     1     -43.645  56.681 -61.303  1.00  0.00     0.280 HD
HETATM    3  C   UNL     1     -42.932  58.145 -60.040  1.00  0.00     0.281 C 
HETATM    4  C   UNL     1     -42.665  58.310 -58.583  1.00  0.00     0.018 A 
HETATM    5  C   UNL     1     -42.729  57.295 -57.644  1.00  0.00    -0.024 A 
HETATM    6  C   UNL     1     -42.440  57.791 -56.332  1.00  0.00     0.057 A 
HETATM    7  C   UNL     1     -42.178  59.139 -56.347  1.00  0.00     0.087 A 
HETATM    8  N   UNL     1     -41.929  59.833 -55.224  1.00  0.00    -0.357 N 
HETATM    9  C   UNL     1     -41.639  59.086 -54.009  1.00  0.00     0.243 C 
HETATM   10  N   UNL     1     -42.068  57.678 -53.949  1.00  0.00    -0.235 NA
HETATM   11  C   UNL     1     -42.415  57.134 -55.053  1.00  0.00     0.173 C 
HETATM   12  S   UNL     1     -42.244  59.811 -57.903  1.00  0.00    -0.074 SA
HETATM   13  C   UNL     1     -43.113  55.895 -58.027  1.00  0.00     0.068 C 
HETATM   14  C   UNL     1     -43.112  55.694 -59.554  1.00  0.00     0.240 C 
HETATM   15  H   UNL     1     -41.576  60.785 -55.248  1.00  0.00     0.162 HD
ENDROOT
BRANCH   9  16
HETATM   16  C   UNL     1     -42.229  59.836 -52.825  1.00  0.00    -0.012 A 
HETATM   17  C   UNL     1     -43.402  60.604 -52.974  1.00  0.00     0.050 A 
HETATM   18  C   UNL     1     -43.989  61.241 -51.877  1.00  0.00     0.102 A 
HETATM   19  C   UNL     1     -43.406  61.082 -50.609  1.00  0.00     0.112 A 
HETATM   20  C   UNL     1     -42.234  60.347 -50.447  1.00  0.00     0.041 A 
HETATM   21  C   UNL     1     -41.652  59.722 -51.552  1.00  0.00     0.014 A 
BRANCH  18  22
HETATM   22  O   UNL     1     -45.126  62.004 -51.929  1.00  0.00    -0.353 OA
HETATM   23  C   UNL     1     -46.324  61.363 -52.346  1.00  0.00     0.210 C 
ENDBRANCH  18  22
BRANCH  19  24
HETATM   24  O   UNL     1     -44.094  61.705 -49.533  1.00  0.00    -0.272 OA
BRANCH  24  25
HETATM   25  C   UNL     1     -45.103  61.134 -48.776  1.00  0.00     0.300 C 
HETATM   26  O   UNL     1     -45.842  60.207 -49.062  1.00  0.00    -0.259 OA
BRANCH  25  27
HETATM   27  C   UNL     1     -45.090  61.772 -47.450  1.00  0.00     0.061 A 
HETATM   28  C   UNL     1     -45.495  63.096 -47.248  1.00  0.00     0.050 A 
HETATM   29 CL   UNL     1     -46.082  64.104 -48.521  1.00  0.00    -0.083 Cl
HETATM   30  C   UNL     1     -45.477  63.631 -45.955  1.00  0.00     0.025 A 
HETATM   31  C   UNL     1     -45.069  62.848 -44.873  1.00  0.00     0.002 A 
HETATM   32  C   UNL     1     -44.686  61.523 -45.073  1.00  0.00     0.001 A 
HETATM   33  C   UNL     1     -44.701  60.981 -46.359  1.00  0.00     0.019 A 
ENDBRANCH  25  27
ENDBRANCH  24  25
ENDBRANCH  19  24
ENDBRANCH   9  16
BRANCH  11  34
HETATM   34  O   UNL     1     -42.797  55.845 -55.031  1.00  0.00    -0.344 OA
HETATM   35  H   UNL     1     -42.038  55.329 -55.361  1.00  0.00     0.219 HD
ENDBRANCH  11  34
BRANCH   1  36
HETATM   36  C   UNL     1     -45.220  57.091 -60.041  1.00  0.00     0.231 C 
HETATM   37  C   UNL     1     -46.021  55.843 -60.358  1.00  0.00     0.034 C 
ENDBRANCH   1  36
TORSDOF 7
ENDMDL
MODEL 7
REMARK VINA RESULT:      -7.5      2.456      3.409
REMARK  7 active torsions:
REMARK  status: ('A' for Active; 'I' for Inactive)
REMARK    1  A    between atoms: C_2  and  N_3 
REMARK    2  A    between atoms: C_11  and  C_12 
REMARK    3  A    between atoms: C_14  and  O_15 
REMARK    4  A    between atoms: C_17  and  O_18 
REMARK    5  A    between atoms: O_18  and  C_19 
REMARK    6  A    between atoms: C_19  and  C_20 
REMARK    7  A    between atoms: C_31  and  O_32 
ROOT
HETATM    1  N   UNL     1     -46.462  61.632 -61.125  1.00  0.00    -0.067 N 
HETATM    2  H   UNL     1     -47.137  62.175 -61.678  1.00  0.00     0.280 HD
HETATM    3  C   UNL     1     -46.873  61.830 -59.664  1.00  0.00     0.281 C 
HETATM    4  C   UNL     1     -45.767  61.431 -58.749  1.00  0.00     0.018 A 
HETATM    5  C   UNL     1     -44.436  61.322 -59.113  1.00  0.00    -0.024 A 
HETATM    6  C   UNL     1     -43.634  60.895 -58.006  1.00  0.00     0.057 A 
HETATM    7  C   UNL     1     -44.392  60.705 -56.876  1.00  0.00     0.087 A 
HETATM    8  N   UNL     1     -43.863  60.257 -55.725  1.00  0.00    -0.357 N 
HETATM    9  C   UNL     1     -42.414  60.259 -55.592  1.00  0.00     0.243 C 
HETATM   10  N   UNL     1     -41.611  60.306 -56.827  1.00  0.00    -0.235 NA
HETATM   11  C   UNL     1     -42.227  60.615 -57.904  1.00  0.00     0.173 C 
HETATM   12  S   UNL     1     -46.035  61.055 -57.112  1.00  0.00    -0.074 SA
HETATM   13  C   UNL     1     -43.984  61.580 -60.522  1.00  0.00     0.068 C 
HETATM   14  C   UNL     1     -45.084  62.250 -61.366  1.00  0.00     0.240 C 
HETATM   15  H   UNL     1     -44.383  60.272 -54.853  1.00  0.00     0.162 HD
ENDROOT
BRANCH   9  16
HETATM   16  C   UNL     1     -41.999  59.045 -54.776  1.00  0.00    -0.012 A 
HETATM   17  C   UNL     1     -41.454  59.200 -53.485  1.00  0.00     0.050 A 
HETATM   18  C   UNL     1     -41.134  58.087 -52.701  1.00  0.00     0.102 A 
HETATM   19  C   UNL     1     -41.389  56.803 -53.210  1.00  0.00     0.112 A 
HETATM   20  C   UNL     1     -41.904  56.631 -54.493  1.00  0.00     0.041 A 
HETATM   21  C   UNL     1     -42.212  57.750 -55.270  1.00  0.00     0.014 A 
BRANCH  18  22
HETATM   22  O   UNL     1     -40.604  58.144 -51.439  1.00  0.00    -0.353 OA
HETATM   23  C   UNL     1     -39.652  59.165 -51.175  1.00  0.00     0.210 C 
ENDBRANCH  18  22
BRANCH  19  24
HETATM   24  O   UNL     1     -41.097  55.724 -52.333  1.00  0.00    -0.272 OA
BRANCH  24  25
HETATM   25  C   UNL     1     -41.852  54.573 -52.184  1.00  0.00     0.300 C 
HETATM   26  O   UNL     1     -43.030  54.464 -51.889  1.00  0.00    -0.259 OA
BRANCH  25  27
HETATM   27  C   UNL     1     -41.010  53.427 -52.560  1.00  0.00     0.061 A 
HETATM   28  C   UNL     1     -40.172  52.777 -51.647  1.00  0.00     0.050 A 
HETATM   29 CL   UNL     1     -40.067  53.228 -49.983  1.00  0.00    -0.083 Cl
HETATM   30  C   UNL     1     -39.414  51.680 -52.069  1.00  0.00     0.025 A 
HETATM   31  C   UNL     1     -39.499  51.229 -53.389  1.00  0.00     0.002 A 
HETATM   32  C   UNL     1     -40.350  51.865 -54.292  1.00  0.00     0.001 A 
HETATM   33  C   UNL     1     -41.110  52.960 -53.879  1.00  0.00     0.019 A 
ENDBRANCH  25  27
ENDBRANCH  24  25
ENDBRANCH  19  24
ENDBRANCH   9  16
BRANCH  11  34
HETATM   34  O   UNL     1     -41.517  60.680 -59.043  1.00  0.00    -0.344 OA
HETATM   35  H   UNL     1     -41.232  59.769 -59.241  1.00  0.00     0.219 HD
ENDBRANCH  11  34
BRANCH   1  36
HETATM   36  C   UNL     1     -46.614  60.187 -61.555  1.00  0.00     0.231 C 
HETATM   37  C   UNL     1     -47.962  59.631 -61.138  1.00  0.00     0.034 C 
ENDBRANCH   1  36
TORSDOF 7
ENDMDL
MODEL 8
REMARK VINA RESULT:      -7.5      3.676     10.173
REMARK  7 active torsions:
REMARK  status: ('A' for Active; 'I' for Inactive)
REMARK    1  A    between atoms: C_2  and  N_3 
REMARK    2  A    between atoms: C_11  and  C_12 
REMARK    3  A    between atoms: C_14  and  O_15 
REMARK    4  A    between atoms: C_17  and  O_18 
REMARK    5  A    between atoms: O_18  and  C_19 
REMARK    6  A    between atoms: C_19  and  C_20 
REMARK    7  A    between atoms: C_31  and  O_32 
ROOT
HETATM    1  N   UNL     1     -40.731  53.511 -49.403  1.00  0.00    -0.067 N 
HETATM    2  H   UNL     1     -40.813  53.154 -48.443  1.00  0.00     0.280 HD
HETATM    3  C   UNL     1     -42.119  54.045 -49.765  1.00  0.00     0.281 C 
HETATM    4  C   UNL     1     -42.245  54.225 -51.238  1.00  0.00     0.018 A 
HETATM    5  C   UNL     1     -41.442  53.611 -52.185  1.00  0.00    -0.024 A 
HETATM    6  C   UNL     1     -41.810  54.014 -53.509  1.00  0.00     0.057 A 
HETATM    7  C   UNL     1     -42.858  54.902 -53.494  1.00  0.00     0.087 A 
HETATM    8  N   UNL     1     -43.343  55.456 -54.619  1.00  0.00    -0.357 N 
HETATM    9  C   UNL     1     -42.946  54.876 -55.893  1.00  0.00     0.243 C 
HETATM   10  N   UNL     1     -41.727  54.049 -55.921  1.00  0.00    -0.235 NA
HETATM   11  C   UNL     1     -41.258  53.675 -54.793  1.00  0.00     0.173 C 
HETATM   12  S   UNL     1     -43.424  55.237 -51.931  1.00  0.00    -0.074 SA
HETATM   13  C   UNL     1     -40.318  52.699 -51.787  1.00  0.00     0.068 C 
HETATM   14  C   UNL     1     -40.385  52.317 -50.296  1.00  0.00     0.240 C 
HETATM   15  H   UNL     1     -44.214  55.979 -54.627  1.00  0.00     0.162 HD
ENDROOT
BRANCH   9  16
HETATM   16  C   UNL     1     -42.813  55.994 -56.915  1.00  0.00    -0.012 A 
HETATM   17  C   UNL     1     -43.163  55.780 -58.264  1.00  0.00     0.050 A 
HETATM   18  C   UNL     1     -43.108  56.821 -59.195  1.00  0.00     0.102 A 
HETATM   19  C   UNL     1     -42.723  58.100 -58.761  1.00  0.00     0.112 A 
HETATM   20  C   UNL     1     -42.351  58.324 -57.437  1.00  0.00     0.041 A 
HETATM   21  C   UNL     1     -42.401  57.275 -56.518  1.00  0.00     0.014 A 
BRANCH  18  22
HETATM   22  O   UNL     1     -43.431  56.704 -60.522  1.00  0.00    -0.353 OA
HETATM   23  C   UNL     1     -44.601  55.966 -60.847  1.00  0.00     0.210 C 
ENDBRANCH  18  22
BRANCH  19  24
HETATM   24  O   UNL     1     -42.752  59.120 -59.749  1.00  0.00    -0.272 OA
BRANCH  24  25
HETATM   25  C   UNL     1     -43.116  60.440 -59.541  1.00  0.00     0.300 C 
HETATM   26  O   UNL     1     -44.178  60.887 -59.144  1.00  0.00    -0.259 OA
BRANCH  25  27
HETATM   27  C   UNL     1     -41.931  61.279 -59.780  1.00  0.00     0.061 A 
HETATM   28  C   UNL     1     -41.557  61.707 -61.059  1.00  0.00     0.050 A 
HETATM   29 CL   UNL     1     -42.464  61.326 -62.479  1.00  0.00    -0.083 Cl
HETATM   30  C   UNL     1     -40.430  62.521 -61.210  1.00  0.00     0.025 A 
HETATM   31  C   UNL     1     -39.687  62.913 -60.094  1.00  0.00     0.002 A 
HETATM   32  C   UNL     1     -40.073  62.503 -58.818  1.00  0.00     0.001 A 
HETATM   33  C   UNL     1     -41.197  61.691 -58.658  1.00  0.00     0.019 A 
ENDBRANCH  25  27
ENDBRANCH  24  25
ENDBRANCH  19  24
ENDBRANCH   9  16
BRANCH  11  34
HETATM   34  O   UNL     1     -40.154  52.908 -54.789  1.00  0.00    -0.344 OA
HETATM   35  H   UNL     1     -40.438  52.022 -54.497  1.00  0.00     0.219 HD
ENDBRANCH  11  34
BRANCH   1  36
HETATM   36  C   UNL     1     -39.699  54.620 -49.367  1.00  0.00     0.231 C 
HETATM   37  C   UNL     1     -40.321  55.956 -49.725  1.00  0.00     0.034 C 
ENDBRANCH   1  36
TORSDOF 7
ENDMDL
MODEL 9
REMARK VINA RESULT:      -7.4      3.831     10.538
REMARK  7 active torsions:
REMARK  status: ('A' for Active; 'I' for Inactive)
REMARK    1  A    between atoms: C_2  and  N_3 
REMARK    2  A    between atoms: C_11  and  C_12 
REMARK    3  A    between atoms: C_14  and  O_15 
REMARK    4  A    between atoms: C_17  and  O_18 
REMARK    5  A    between atoms: O_18  and  C_19 
REMARK    6  A    between atoms: C_19  and  C_20 
REMARK    7  A    between atoms: C_31  and  O_32 
ROOT
HETATM    1  N   UNL     1     -41.422  54.316 -50.152  1.00  0.00    -0.067 N 
HETATM    2  H   UNL     1     -41.373  53.973 -49.184  1.00  0.00     0.280 HD
HETATM    3  C   UNL     1     -41.427  55.844 -50.046  1.00  0.00     0.281 C 
HETATM    4  C   UNL     1     -41.887  56.456 -51.323  1.00  0.00     0.018 A 
HETATM    5  C   UNL     1     -42.616  55.801 -52.301  1.00  0.00    -0.024 A 
HETATM    6  C   UNL     1     -42.877  56.666 -53.413  1.00  0.00     0.057 A 
HETATM    7  C   UNL     1     -42.338  57.915 -53.220  1.00  0.00     0.087 A 
HETATM    8  N   UNL     1     -42.414  58.879 -54.152  1.00  0.00    -0.357 N 
HETATM    9  C   UNL     1     -43.342  58.690 -55.258  1.00  0.00     0.243 C 
HETATM   10  N   UNL     1     -43.792  57.318 -55.550  1.00  0.00    -0.235 NA
HETATM   11  C   UNL     1     -43.558  56.433 -54.658  1.00  0.00     0.173 C 
HETATM   12  S   UNL     1     -41.552  58.075 -51.725  1.00  0.00    -0.074 SA
HETATM   13  C   UNL     1     -42.994  54.355 -52.161  1.00  0.00     0.068 C 
HETATM   14  C   UNL     1     -42.752  53.832 -50.732  1.00  0.00     0.240 C 
HETATM   15  H   UNL     1     -42.164  59.842 -53.950  1.00  0.00     0.162 HD
ENDROOT
BRANCH   9  16
HETATM   16  C   UNL     1     -42.729  59.291 -56.514  1.00  0.00    -0.012 A 
HETATM   17  C   UNL     1     -42.704  58.561 -57.719  1.00  0.00     0.050 A 
HETATM   18  C   UNL     1     -42.205  59.132 -58.894  1.00  0.00     0.102 A 
HETATM   19  C   UNL     1     -41.751  60.460 -58.864  1.00  0.00     0.112 A 
HETATM   20  C   UNL     1     -41.746  61.188 -57.676  1.00  0.00     0.041 A 
HETATM   21  C   UNL     1     -42.240  60.605 -56.507  1.00  0.00     0.014 A 
BRANCH  18  22
HETATM   22  O   UNL     1     -42.143  58.499 -60.109  1.00  0.00    -0.353 OA
HETATM   23  C   UNL     1     -42.036  57.082 -60.101  1.00  0.00     0.210 C 
ENDBRANCH  18  22
BRANCH  19  24
HETATM   24  O   UNL     1     -41.318  60.992 -60.108  1.00  0.00    -0.272 OA
BRANCH  24  25
HETATM   25  C   UNL     1     -41.603  62.257 -60.593  1.00  0.00     0.300 C 
HETATM   26  O   UNL     1     -42.690  62.768 -60.805  1.00  0.00    -0.259 OA
BRANCH  25  27
HETATM   27  C   UNL     1     -40.333  62.988 -60.725  1.00  0.00     0.061 A 
HETATM   28  C   UNL     1     -39.765  63.292 -61.967  1.00  0.00     0.050 A 
HETATM   29 CL   UNL     1     -40.511  62.874 -63.468  1.00  0.00    -0.083 Cl
HETATM   30  C   UNL     1     -38.565  64.009 -62.018  1.00  0.00     0.025 A 
HETATM   31  C   UNL     1     -37.942  64.428 -60.840  1.00  0.00     0.002 A 
HETATM   32  C   UNL     1     -38.520  64.142 -59.604  1.00  0.00     0.001 A 
HETATM   33  C   UNL     1     -39.717  63.428 -59.544  1.00  0.00     0.019 A 
ENDBRANCH  25  27
ENDBRANCH  24  25
ENDBRANCH  19  24
ENDBRANCH   9  16
BRANCH  11  34
HETATM   34  O   UNL     1     -43.971  55.175 -54.891  1.00  0.00    -0.344 OA
HETATM   35  H   UNL     1     -44.286  54.827 -54.037  1.00  0.00     0.219 HD
ENDBRANCH  11  34
BRANCH   1  36
HETATM   36  C   UNL     1     -40.179  53.811 -50.855  1.00  0.00     0.231 C 
HETATM   37  C   UNL     1     -40.150  52.295 -50.891  1.00  0.00     0.034 C 
ENDBRANCH   1  36
TORSDOF 7
ENDMDL
MODEL 10
REMARK VINA RESULT:      -7.2      3.726     10.469
REMARK  7 active torsions:
REMARK  status: ('A' for Active; 'I' for Inactive)
REMARK    1  A    between atoms: C_2  and  N_3 
REMARK    2  A    between atoms: C_11  and  C_12 
REMARK    3  A    between atoms: C_14  and  O_15 
REMARK    4  A    between atoms: C_17  and  O_18 
REMARK    5  A    between atoms: O_18  and  C_19 
REMARK    6  A    between atoms: C_19  and  C_20 
REMARK    7  A    between atoms: C_31  and  O_32 
ROOT
HETATM    1  N   UNL     1     -42.611  55.151 -50.462  1.00  0.00    -0.067 N 
HETATM    2  H   UNL     1     -42.862  54.876 -49.504  1.00  0.00     0.280 HD
HETATM    3  C   UNL     1     -43.633  56.218 -50.864  1.00  0.00     0.281 C 
HETATM    4  C   UNL     1     -43.633  56.413 -52.341  1.00  0.00     0.018 A 
HETATM    5  C   UNL     1     -43.143  55.504 -53.262  1.00  0.00    -0.024 A 
HETATM    6  C   UNL     1     -43.271  56.006 -54.597  1.00  0.00     0.057 A 
HETATM    7  C   UNL     1     -43.844  57.255 -54.615  1.00  0.00     0.087 A 
HETATM    8  N   UNL     1     -44.019  57.946 -55.754  1.00  0.00    -0.357 N 
HETATM    9  C   UNL     1     -43.873  57.235 -57.015  1.00  0.00     0.243 C 
HETATM   10  N   UNL     1     -43.119  55.969 -57.007  1.00  0.00    -0.235 NA
HETATM   11  C   UNL     1     -42.882  55.447 -55.864  1.00  0.00     0.173 C 
HETATM   12  S   UNL     1     -44.254  57.820 -53.069  1.00  0.00    -0.074 SA
HETATM   13  C   UNL     1     -42.521  54.207 -52.830  1.00  0.00     0.068 C 
HETATM   14  C   UNL     1     -42.782  53.911 -51.341  1.00  0.00     0.240 C 
HETATM   15  H   UNL     1     -44.586  58.789 -55.789  1.00  0.00     0.162 HD
ENDROOT
BRANCH   9  16
HETATM   16  C   UNL     1     -43.253  58.177 -58.036  1.00  0.00    -0.012 A 
HETATM   17  C   UNL     1     -43.854  58.367 -59.296  1.00  0.00     0.050 A 
HETATM   18  C   UNL     1     -43.328  59.282 -60.212  1.00  0.00     0.102 A 
HETATM   19  C   UNL     1     -42.200  60.035 -59.849  1.00  0.00     0.112 A 
HETATM   20  C   UNL     1     -41.578  59.842 -58.616  1.00  0.00     0.041 A 
HETATM   21  C   UNL     1     -42.108  58.919 -57.712  1.00  0.00     0.014 A 
BRANCH  18  22
HETATM   22  O   UNL     1     -43.847  59.533 -61.456  1.00  0.00    -0.353 OA
HETATM   23  C   UNL     1     -45.034  60.311 -61.524  1.00  0.00     0.210 C 
ENDBRANCH  18  22
BRANCH  19  24
HETATM   24  O   UNL     1     -41.760  60.989 -60.805  1.00  0.00    -0.272 OA
BRANCH  24  25
HETATM   25  C   UNL     1     -41.931  62.360 -60.720  1.00  0.00     0.300 C 
HETATM   26  O   UNL     1     -42.953  62.992 -60.515  1.00  0.00    -0.259 OA
BRANCH  25  27
HETATM   27  C   UNL     1     -40.603  62.988 -60.813  1.00  0.00     0.061 A 
HETATM   28  C   UNL     1     -39.921  63.474 -59.693  1.00  0.00     0.050 A 
HETATM   29 CL   UNL     1     -40.547  63.357 -58.087  1.00  0.00    -0.083 Cl
HETATM   30  C   UNL     1     -38.652  64.041 -59.852  1.00  0.00     0.025 A 
HETATM   31  C   UNL     1     -38.065  64.112 -61.118  1.00  0.00     0.002 A 
HETATM   32  C   UNL     1     -38.737  63.608 -62.230  1.00  0.00     0.001 A 
HETATM   33  C   UNL     1     -40.004  63.041 -62.080  1.00  0.00     0.019 A 
ENDBRANCH  25  27
ENDBRANCH  24  25
ENDBRANCH  19  24
ENDBRANCH   9  16
BRANCH  11  34
HETATM   34  O   UNL     1     -42.208  54.284 -55.827  1.00  0.00    -0.344 OA
HETATM   35  H   UNL     1     -42.648  53.693 -56.465  1.00  0.00     0.219 HD
ENDBRANCH  11  34
BRANCH   1  36
HETATM   36  C   UNL     1     -41.209  55.719 -50.398  1.00  0.00     0.231 C 
HETATM   37  C   UNL     1     -40.231  54.700 -49.842  1.00  0.00     0.034 C 
ENDBRANCH   1  36
TORSDOF 7
ENDMDL
