MODEL 1
REMARK VINA RESULT:      -7.8      0.000      0.000
REMARK  3 active torsions:
REMARK  status: ('A' for Active; 'I' for Inactive)
REMARK    1  A    between atoms: O_2  and  C_3 
REMARK    2  A    between atoms: C_4  and  C_5 
REMARK    3  A    between atoms: C_16  and  N_17 
ROOT
HETATM    1  C   UNL     1     -41.969  55.371 -50.488  1.00  0.00     0.246 C 
HETATM    2  N   UNL     1     -41.229  54.465 -51.341  1.00  0.00    -0.151 N 
HETATM    3  C   UNL     1     -40.275  53.628 -50.817  1.00  0.00     0.734 A 
HETATM    4  N   UNL     1     -39.734  52.921 -51.786  1.00  0.00    -0.060 NA
HETATM    5  C   UNL     1     -40.398  53.264 -52.936  1.00  0.00     0.103 A 
HETATM    6  C   UNL     1     -41.372  54.225 -52.681  1.00  0.00     0.083 A 
HETATM    7  C   UNL     1     -40.223  52.788 -54.242  1.00  0.00     0.034 A 
HETATM    8  C   UNL     1     -41.044  53.295 -55.257  1.00  0.00     0.002 A 
HETATM    9  C   UNL     1     -42.020  54.255 -54.974  1.00  0.00     0.002 A 
HETATM   10  C   UNL     1     -42.208  54.744 -53.676  1.00  0.00     0.033 A 
HETATM   11  N   UNL     1     -39.987  53.576 -49.498  1.00  0.00    -0.033 NA
HETATM   12  C   UNL     1     -40.684  54.282 -48.684  1.00  0.00     0.193 C 
HETATM   13  N   UNL     1     -41.707  55.148 -49.068  1.00  0.00    -0.338 N 
HETATM   14  H   UNL     1     -42.289  55.631 -48.401  1.00  0.00     0.164 HD
ENDROOT
BRANCH   1  15
HETATM   15  C   UNL     1     -41.717  56.851 -50.756  1.00  0.00     0.020 A 
HETATM   16  C   UNL     1     -42.770  57.635 -51.288  1.00  0.00     0.078 A 
HETATM   17  C   UNL     1     -42.569  58.993 -51.561  1.00  0.00     0.039 A 
HETATM   18  C   UNL     1     -41.336  59.592 -51.296  1.00  0.00     0.022 A 
HETATM   19  C   UNL     1     -40.307  58.839 -50.745  1.00  0.00     0.011 A 
HETATM   20  C   UNL     1     -40.491  57.485 -50.465  1.00  0.00     0.033 A 
HETATM   21 BR   UNL     1     -38.644  59.655 -50.374  1.00  0.00    -0.051 Br
BRANCH  16  22
HETATM   22  O   UNL     1     -43.958  56.973 -51.477  1.00  0.00    -0.355 OA
HETATM   23  C   UNL     1     -45.158  57.732 -51.332  1.00  0.00     0.210 C 
ENDBRANCH  16  22
ENDBRANCH   1  15
BRANCH  12  24
HETATM   24  N   UNL     1     -40.499  54.260 -47.348  1.00  0.00    -0.272 NA
HETATM   25  H   UNL     1     -41.197  53.675 -46.893  1.00  0.00     0.127 HD
HETATM   26  H   UNL     1     -39.566  54.038 -47.026  1.00  0.00     0.127 HD
ENDBRANCH  12  24
TORSDOF 3
ENDMDL
MODEL 2
REMARK VINA RESULT:      -7.1      3.058      4.360
REMARK  3 active torsions:
REMARK  status: ('A' for Active; 'I' for Inactive)
REMARK    1  A    between atoms: O_2  and  C_3 
REMARK    2  A    between atoms: C_4  and  C_5 
REMARK    3  A    between atoms: C_16  and  N_17 
ROOT
HETATM    1  C   UNL     1     -43.418  55.184 -53.340  1.00  0.00     0.246 C 
HETATM    2  N   UNL     1     -42.313  54.554 -52.649  1.00  0.00    -0.151 N 
HETATM    3  C   UNL     1     -41.997  54.906 -51.360  1.00  0.00     0.734 A 
HETATM    4  N   UNL     1     -40.953  54.213 -50.960  1.00  0.00    -0.060 NA
HETATM    5  C   UNL     1     -40.638  53.358 -51.985  1.00  0.00     0.103 A 
HETATM    6  C   UNL     1     -41.500  53.533 -53.064  1.00  0.00     0.083 A 
HETATM    7  C   UNL     1     -39.622  52.396 -52.063  1.00  0.00     0.034 A 
HETATM    8  C   UNL     1     -39.510  51.631 -53.230  1.00  0.00     0.002 A 
HETATM    9  C   UNL     1     -40.393  51.821 -54.297  1.00  0.00     0.002 A 
HETATM   10  C   UNL     1     -41.412  52.780 -54.239  1.00  0.00     0.033 A 
HETATM   11  N   UNL     1     -42.697  55.824 -50.656  1.00  0.00    -0.033 NA
HETATM   12  C   UNL     1     -43.748  56.338 -51.183  1.00  0.00     0.193 C 
HETATM   13  N   UNL     1     -44.208  56.049 -52.467  1.00  0.00    -0.338 N 
HETATM   14  H   UNL     1     -45.079  56.409 -52.826  1.00  0.00     0.164 HD
ENDROOT
BRANCH   1  15
HETATM   15  C   UNL     1     -43.020  56.024 -54.550  1.00  0.00     0.020 A 
HETATM   16  C   UNL     1     -42.397  57.277 -54.332  1.00  0.00     0.078 A 
HETATM   17  C   UNL     1     -42.033  58.081 -55.417  1.00  0.00     0.039 A 
HETATM   18  C   UNL     1     -42.264  57.651 -56.725  1.00  0.00     0.022 A 
HETATM   19  C   UNL     1     -42.846  56.409 -56.950  1.00  0.00     0.011 A 
HETATM   20  C   UNL     1     -43.214  55.594 -55.879  1.00  0.00     0.033 A 
HETATM   21 BR   UNL     1     -43.145  55.821 -58.720  1.00  0.00    -0.051 Br
BRANCH  16  22
HETATM   22  O   UNL     1     -42.171  57.601 -53.016  1.00  0.00    -0.355 OA
HETATM   23  C   UNL     1     -40.959  58.289 -52.712  1.00  0.00     0.210 C 
ENDBRANCH  16  22
ENDBRANCH   1  15
BRANCH  12  24
HETATM   24  N   UNL     1     -44.532  57.227 -50.540  1.00  0.00    -0.272 NA
HETATM   25  H   UNL     1     -44.079  58.136 -50.478  1.00  0.00     0.127 HD
HETATM   26  H   UNL     1     -45.484  57.312 -50.874  1.00  0.00     0.127 HD
ENDBRANCH  12  24
TORSDOF 3
ENDMDL
MODEL 3
REMARK VINA RESULT:      -6.8      3.205      6.029
REMARK  3 active torsions:
REMARK  status: ('A' for Active; 'I' for Inactive)
REMARK    1  A    between atoms: O_2  and  C_3 
REMARK    2  A    between atoms: C_4  and  C_5 
REMARK    3  A    between atoms: C_16  and  N_17 
ROOT
HETATM    1  C   UNL     1     -41.801  57.872 -52.603  1.00  0.00     0.246 C 
HETATM    2  N   UNL     1     -42.294  58.905 -51.717  1.00  0.00    -0.151 N 
HETATM    3  C   UNL     1     -41.446  59.858 -51.208  1.00  0.00     0.734 A 
HETATM    4  N   UNL     1     -42.121  60.669 -50.421  1.00  0.00    -0.060 NA
HETATM    5  C   UNL     1     -43.431  60.267 -50.481  1.00  0.00     0.103 A 
HETATM    6  C   UNL     1     -43.577  59.164 -51.316  1.00  0.00     0.083 A 
HETATM    7  C   UNL     1     -44.558  60.806 -49.845  1.00  0.00     0.034 A 
HETATM    8  C   UNL     1     -45.806  60.215 -50.077  1.00  0.00     0.002 A 
HETATM    9  C   UNL     1     -45.927  59.112 -50.926  1.00  0.00     0.002 A 
HETATM   10  C   UNL     1     -44.813  58.558 -51.568  1.00  0.00     0.033 A 
HETATM   11  N   UNL     1     -40.131  59.911 -51.513  1.00  0.00    -0.033 NA
HETATM   12  C   UNL     1     -39.662  59.083 -52.374  1.00  0.00     0.193 C 
HETATM   13  N   UNL     1     -40.411  58.086 -52.999  1.00  0.00    -0.338 N 
HETATM   14  H   UNL     1     -40.035  57.500 -53.728  1.00  0.00     0.164 HD
ENDROOT
BRANCH   1  15
HETATM   15  C   UNL     1     -41.887  56.455 -52.044  1.00  0.00     0.020 A 
HETATM   16  C   UNL     1     -42.620  55.483 -52.767  1.00  0.00     0.078 A 
HETATM   17  C   UNL     1     -42.734  54.178 -52.276  1.00  0.00     0.039 A 
HETATM   18  C   UNL     1     -42.112  53.816 -51.080  1.00  0.00     0.022 A 
HETATM   19  C   UNL     1     -41.365  54.754 -50.380  1.00  0.00     0.011 A 
HETATM   20  C   UNL     1     -41.240  56.060 -50.855  1.00  0.00     0.033 A 
HETATM   21 BR   UNL     1     -40.512  54.260 -48.768  1.00  0.00    -0.051 Br
BRANCH  16  22
HETATM   22  O   UNL     1     -43.163  55.916 -53.952  1.00  0.00    -0.355 OA
HETATM   23  C   UNL     1     -43.231  54.973 -55.021  1.00  0.00     0.210 C 
ENDBRANCH  16  22
ENDBRANCH   1  15
BRANCH  12  24
HETATM   24  N   UNL     1     -38.374  59.089 -52.775  1.00  0.00    -0.272 NA
HETATM   25  H   UNL     1     -38.220  59.788 -53.498  1.00  0.00     0.127 HD
HETATM   26  H   UNL     1     -37.676  59.155 -52.045  1.00  0.00     0.127 HD
ENDBRANCH  12  24
TORSDOF 3
ENDMDL
MODEL 4
REMARK VINA RESULT:      -6.7      3.332      5.988
REMARK  3 active torsions:
REMARK  status: ('A' for Active; 'I' for Inactive)
REMARK    1  A    between atoms: O_2  and  C_3 
REMARK    2  A    between atoms: C_4  and  C_5 
REMARK    3  A    between atoms: C_16  and  N_17 
ROOT
HETATM    1  C   UNL     1     -42.456  54.664 -52.964  1.00  0.00     0.246 C 
HETATM    2  N   UNL     1     -41.864  55.943 -53.292  1.00  0.00    -0.151 N 
HETATM    3  C   UNL     1     -41.891  56.421 -54.578  1.00  0.00     0.734 A 
HETATM    4  N   UNL     1     -41.278  57.585 -54.626  1.00  0.00    -0.060 NA
HETATM    5  C   UNL     1     -40.913  57.884 -53.338  1.00  0.00     0.103 A 
HETATM    6  C   UNL     1     -41.293  56.872 -52.463  1.00  0.00     0.083 A 
HETATM    7  C   UNL     1     -40.251  59.015 -52.840  1.00  0.00     0.034 A 
HETATM    8  C   UNL     1     -39.997  59.092 -51.465  1.00  0.00     0.002 A 
HETATM    9  C   UNL     1     -40.396  58.065 -50.606  1.00  0.00     0.002 A 
HETATM   10  C   UNL     1     -41.056  56.927 -51.086  1.00  0.00     0.033 A 
HETATM   11  N   UNL     1     -42.481  55.758 -55.597  1.00  0.00    -0.033 NA
HETATM   12  C   UNL     1     -43.111  54.669 -55.344  1.00  0.00     0.193 C 
HETATM   13  N   UNL     1     -43.198  54.084 -54.081  1.00  0.00    -0.338 N 
HETATM   14  H   UNL     1     -43.764  53.270 -53.898  1.00  0.00     0.164 HD
ENDROOT
BRANCH   1  15
HETATM   15  C   UNL     1     -41.466  53.602 -52.495  1.00  0.00     0.020 A 
HETATM   16  C   UNL     1     -41.243  53.448 -51.105  1.00  0.00     0.078 A 
HETATM   17  C   UNL     1     -40.330  52.495 -50.639  1.00  0.00     0.039 A 
HETATM   18  C   UNL     1     -39.643  51.676 -51.537  1.00  0.00     0.022 A 
HETATM   19  C   UNL     1     -39.878  51.798 -52.900  1.00  0.00     0.011 A 
HETATM   20  C   UNL     1     -40.786  52.742 -53.382  1.00  0.00     0.033 A 
HETATM   21 BR   UNL     1     -38.959  50.679 -54.114  1.00  0.00    -0.051 Br
BRANCH  16  22
HETATM   22  O   UNL     1     -41.991  54.266 -50.294  1.00  0.00    -0.355 OA
HETATM   23  C   UNL     1     -41.487  54.526 -48.985  1.00  0.00     0.210 C 
ENDBRANCH  16  22
ENDBRANCH   1  15
BRANCH  12  24
HETATM   24  N   UNL     1     -43.767  53.963 -56.288  1.00  0.00    -0.272 NA
HETATM   25  H   UNL     1     -43.577  52.967 -56.197  1.00  0.00     0.127 HD
HETATM   26  H   UNL     1     -44.759  54.142 -56.375  1.00  0.00     0.127 HD
ENDBRANCH  12  24
TORSDOF 3
ENDMDL
MODEL 5
REMARK VINA RESULT:      -6.6      2.928      4.752
REMARK  3 active torsions:
REMARK  status: ('A' for Active; 'I' for Inactive)
REMARK    1  A    between atoms: O_2  and  C_3 
REMARK    2  A    between atoms: C_4  and  C_5 
REMARK    3  A    between atoms: C_16  and  N_17 
ROOT
HETATM    1  C   UNL     1     -41.262  57.451 -53.033  1.00  0.00     0.246 C 
HETATM    2  N   UNL     1     -41.494  56.067 -52.677  1.00  0.00    -0.151 N 
HETATM    3  C   UNL     1     -42.151  55.220 -53.535  1.00  0.00     0.734 A 
HETATM    4  N   UNL     1     -42.254  54.031 -52.983  1.00  0.00    -0.060 NA
HETATM    5  C   UNL     1     -41.596  54.101 -51.781  1.00  0.00     0.103 A 
HETATM    6  C   UNL     1     -41.080  55.376 -51.569  1.00  0.00     0.083 A 
HETATM    7  C   UNL     1     -41.395  53.106 -50.815  1.00  0.00     0.034 A 
HETATM    8  C   UNL     1     -40.671  53.428 -49.661  1.00  0.00     0.002 A 
HETATM    9  C   UNL     1     -40.157  54.713 -49.475  1.00  0.00     0.002 A 
HETATM   10  C   UNL     1     -40.349  55.722 -50.428  1.00  0.00     0.033 A 
HETATM   11  N   UNL     1     -42.592  55.605 -54.753  1.00  0.00    -0.033 NA
HETATM   12  C   UNL     1     -42.322  56.791 -55.163  1.00  0.00     0.193 C 
HETATM   13  N   UNL     1     -41.632  57.745 -54.415  1.00  0.00    -0.338 N 
HETATM   14  H   UNL     1     -41.367  58.642 -54.792  1.00  0.00     0.164 HD
ENDROOT
BRANCH   1  15
HETATM   15  C   UNL     1     -41.986  58.468 -52.156  1.00  0.00     0.020 A 
HETATM   16  C   UNL     1     -41.223  59.463 -51.499  1.00  0.00     0.078 A 
HETATM   17  C   UNL     1     -41.852  60.402 -50.674  1.00  0.00     0.039 A 
HETATM   18  C   UNL     1     -43.237  60.379 -50.505  1.00  0.00     0.022 A 
HETATM   19  C   UNL     1     -43.998  59.426 -51.170  1.00  0.00     0.011 A 
HETATM   20  C   UNL     1     -43.387  58.483 -51.997  1.00  0.00     0.033 A 
HETATM   21 BR   UNL     1     -45.874  59.404 -50.951  1.00  0.00    -0.051 Br
BRANCH  16  22
HETATM   22  O   UNL     1     -39.874  59.437 -51.756  1.00  0.00    -0.355 OA
HETATM   23  C   UNL     1     -38.995  59.475 -50.632  1.00  0.00     0.210 C 
ENDBRANCH  16  22
ENDBRANCH   1  15
BRANCH  12  24
HETATM   24  N   UNL     1     -42.680  57.247 -56.380  1.00  0.00    -0.272 NA
HETATM   25  H   UNL     1     -42.244  58.146 -56.576  1.00  0.00     0.127 HD
HETATM   26  H   UNL     1     -42.564  56.606 -57.154  1.00  0.00     0.127 HD
ENDBRANCH  12  24
TORSDOF 3
ENDMDL
MODEL 6
REMARK VINA RESULT:      -6.4      7.099      9.152
REMARK  3 active torsions:
REMARK  status: ('A' for Active; 'I' for Inactive)
REMARK    1  A    between atoms: O_2  and  C_3 
REMARK    2  A    between atoms: C_4  and  C_5 
REMARK    3  A    between atoms: C_16  and  N_17 
ROOT
HETATM    1  C   UNL     1     -43.290  56.959 -58.497  1.00  0.00     0.246 C 
HETATM    2  N   UNL     1     -42.698  58.203 -58.052  1.00  0.00    -0.151 N 
HETATM    3  C   UNL     1     -42.468  58.435 -56.718  1.00  0.00     0.734 A 
HETATM    4  N   UNL     1     -41.944  59.633 -56.566  1.00  0.00    -0.060 NA
HETATM    5  C   UNL     1     -41.775  60.146 -57.827  1.00  0.00     0.103 A 
HETATM    6  C   UNL     1     -42.221  59.250 -58.794  1.00  0.00     0.083 A 
HETATM    7  C   UNL     1     -41.239  61.379 -58.223  1.00  0.00     0.034 A 
HETATM    8  C   UNL     1     -41.164  61.670 -59.590  1.00  0.00     0.002 A 
HETATM    9  C   UNL     1     -41.613  60.751 -60.542  1.00  0.00     0.002 A 
HETATM   10  C   UNL     1     -42.154  59.515 -60.166  1.00  0.00     0.033 A 
HETATM   11  N   UNL     1     -42.750  57.530 -55.755  1.00  0.00    -0.033 NA
HETATM   12  C   UNL     1     -43.180  56.371 -56.101  1.00  0.00     0.193 C 
HETATM   13  N   UNL     1     -43.425  55.983 -57.418  1.00  0.00    -0.338 N 
HETATM   14  H   UNL     1     -43.688  55.042 -57.667  1.00  0.00     0.164 HD
ENDROOT
BRANCH   1  15
HETATM   15  C   UNL     1     -44.667  57.100 -59.138  1.00  0.00     0.020 A 
HETATM   16  C   UNL     1     -45.147  56.048 -59.955  1.00  0.00     0.078 A 
HETATM   17  C   UNL     1     -46.398  56.150 -60.573  1.00  0.00     0.039 A 
HETATM   18  C   UNL     1     -47.194  57.280 -60.376  1.00  0.00     0.022 A 
HETATM   19  C   UNL     1     -46.746  58.303 -59.550  1.00  0.00     0.011 A 
HETATM   20  C   UNL     1     -45.501  58.218 -58.926  1.00  0.00     0.033 A 
HETATM   21 BR   UNL     1     -47.829  59.826 -59.273  1.00  0.00    -0.051 Br
BRANCH  16  22
HETATM   22  O   UNL     1     -44.317  54.958 -60.060  1.00  0.00    -0.355 OA
HETATM   23  C   UNL     1     -44.871  53.683 -59.741  1.00  0.00     0.210 C 
ENDBRANCH  16  22
ENDBRANCH   1  15
BRANCH  12  24
HETATM   24  N   UNL     1     -43.444  55.390 -55.215  1.00  0.00    -0.272 NA
HETATM   25  H   UNL     1     -44.353  54.971 -55.394  1.00  0.00     0.127 HD
HETATM   26  H   UNL     1     -42.729  54.683 -55.100  1.00  0.00     0.127 HD
ENDBRANCH  12  24
TORSDOF 3
ENDMDL
MODEL 7
REMARK VINA RESULT:      -6.3      2.147      3.010
REMARK  3 active torsions:
REMARK  status: ('A' for Active; 'I' for Inactive)
REMARK    1  A    between atoms: O_2  and  C_3 
REMARK    2  A    between atoms: C_4  and  C_5 
REMARK    3  A    between atoms: C_16  and  N_17 
ROOT
HETATM    1  C   UNL     1     -42.983  56.064 -52.167  1.00  0.00     0.246 C 
HETATM    2  N   UNL     1     -42.681  55.776 -53.553  1.00  0.00    -0.151 N 
HETATM    3  C   UNL     1     -41.837  54.747 -53.889  1.00  0.00     0.734 A 
HETATM    4  N   UNL     1     -41.707  54.697 -55.198  1.00  0.00    -0.060 NA
HETATM    5  C   UNL     1     -42.533  55.667 -55.708  1.00  0.00     0.103 A 
HETATM    6  C   UNL     1     -43.185  56.353 -54.688  1.00  0.00     0.083 A 
HETATM    7  C   UNL     1     -42.779  56.016 -57.043  1.00  0.00     0.034 A 
HETATM    8  C   UNL     1     -43.685  57.049 -57.309  1.00  0.00     0.002 A 
HETATM    9  C   UNL     1     -44.333  57.718 -56.268  1.00  0.00     0.002 A 
HETATM   10  C   UNL     1     -44.098  57.385 -54.928  1.00  0.00     0.033 A 
HETATM   11  N   UNL     1     -41.264  53.937 -52.972  1.00  0.00    -0.033 NA
HETATM   12  C   UNL     1     -41.577  54.081 -51.736  1.00  0.00     0.193 C 
HETATM   13  N   UNL     1     -42.448  55.058 -51.254  1.00  0.00    -0.338 N 
HETATM   14  H   UNL     1     -42.736  55.099 -50.288  1.00  0.00     0.164 HD
ENDROOT
BRANCH   1  15
HETATM   15  C   UNL     1     -42.484  57.419 -51.672  1.00  0.00     0.020 A 
HETATM   16  C   UNL     1     -43.434  58.426 -51.377  1.00  0.00     0.078 A 
HETATM   17  C   UNL     1     -43.012  59.685 -50.936  1.00  0.00     0.039 A 
HETATM   18  C   UNL     1     -41.653  59.956 -50.766  1.00  0.00     0.022 A 
HETATM   19  C   UNL     1     -40.716  58.964 -51.023  1.00  0.00     0.011 A 
HETATM   20  C   UNL     1     -41.119  57.702 -51.462  1.00  0.00     0.033 A 
HETATM   21 BR   UNL     1     -38.877  59.326 -50.779  1.00  0.00    -0.051 Br
BRANCH  16  22
HETATM   22  O   UNL     1     -44.749  58.060 -51.532  1.00  0.00    -0.355 OA
HETATM   23  C   UNL     1     -45.739  58.936 -50.996  1.00  0.00     0.210 C 
ENDBRANCH  16  22
ENDBRANCH   1  15
BRANCH  12  24
HETATM   24  N   UNL     1     -41.092  53.291 -50.758  1.00  0.00    -0.272 NA
HETATM   25  H   UNL     1     -40.359  53.766 -50.235  1.00  0.00     0.127 HD
HETATM   26  H   UNL     1     -41.773  52.872 -50.138  1.00  0.00     0.127 HD
ENDBRANCH  12  24
TORSDOF 3
ENDMDL
MODEL 8
REMARK VINA RESULT:      -6.2      3.460      5.316
REMARK  3 active torsions:
REMARK  status: ('A' for Active; 'I' for Inactive)
REMARK    1  A    between atoms: O_2  and  C_3 
REMARK    2  A    between atoms: C_4  and  C_5 
REMARK    3  A    between atoms: C_16  and  N_17 
ROOT
HETATM    1  C   UNL     1     -42.129  57.276 -54.212  1.00  0.00     0.246 C 
HETATM    2  N   UNL     1     -42.312  56.149 -53.322  1.00  0.00    -0.151 N 
HETATM    3  C   UNL     1     -42.905  54.992 -53.764  1.00  0.00     0.734 A 
HETATM    4  N   UNL     1     -42.973  54.129 -52.774  1.00  0.00    -0.060 NA
HETATM    5  C   UNL     1     -42.354  54.719 -51.701  1.00  0.00     0.103 A 
HETATM    6  C   UNL     1     -41.900  55.994 -52.026  1.00  0.00     0.083 A 
HETATM    7  C   UNL     1     -42.138  54.217 -50.410  1.00  0.00     0.034 A 
HETATM    8  C   UNL     1     -41.463  55.020 -49.483  1.00  0.00     0.002 A 
HETATM    9  C   UNL     1     -41.011  56.294 -49.835  1.00  0.00     0.002 A 
HETATM   10  C   UNL     1     -41.220  56.813 -51.119  1.00  0.00     0.033 A 
HETATM   11  N   UNL     1     -43.326  54.822 -55.037  1.00  0.00    -0.033 NA
HETATM   12  C   UNL     1     -43.096  55.749 -55.894  1.00  0.00     0.193 C 
HETATM   13  N   UNL     1     -42.472  56.960 -55.597  1.00  0.00    -0.338 N 
HETATM   14  H   UNL     1     -42.235  57.637 -56.306  1.00  0.00     0.164 HD
ENDROOT
BRANCH   1  15
HETATM   15  C   UNL     1     -42.923  58.523 -53.836  1.00  0.00     0.020 A 
HETATM   16  C   UNL     1     -42.628  59.741 -54.495  1.00  0.00     0.078 A 
HETATM   17  C   UNL     1     -43.324  60.909 -54.164  1.00  0.00     0.039 A 
HETATM   18  C   UNL     1     -44.328  60.882 -53.195  1.00  0.00     0.022 A 
HETATM   19  C   UNL     1     -44.647  59.685 -52.565  1.00  0.00     0.011 A 
HETATM   20  C   UNL     1     -43.964  58.512 -52.884  1.00  0.00     0.033 A 
HETATM   21 BR   UNL     1     -46.016  59.647 -51.263  1.00  0.00    -0.051 Br
BRANCH  16  22
HETATM   22  O   UNL     1     -41.656  59.666 -55.463  1.00  0.00    -0.355 OA
HETATM   23  C   UNL     1     -41.922  60.311 -56.708  1.00  0.00     0.210 C 
ENDBRANCH  16  22
ENDBRANCH   1  15
BRANCH  12  24
HETATM   24  N   UNL     1     -43.438  55.649 -57.195  1.00  0.00    -0.272 NA
HETATM   25  H   UNL     1     -44.074  54.868 -57.346  1.00  0.00     0.127 HD
HETATM   26  H   UNL     1     -43.779  56.492 -57.637  1.00  0.00     0.127 HD
ENDBRANCH  12  24
TORSDOF 3
ENDMDL
MODEL 9
REMARK VINA RESULT:      -6.2      2.688      4.277
REMARK  3 active torsions:
REMARK  status: ('A' for Active; 'I' for Inactive)
REMARK    1  A    between atoms: O_2  and  C_3 
REMARK    2  A    between atoms: C_4  and  C_5 
REMARK    3  A    between atoms: C_16  and  N_17 
ROOT
HETATM    1  C   UNL     1     -43.401  55.166 -53.149  1.00  0.00     0.246 C 
HETATM    2  N   UNL     1     -42.271  54.617 -52.431  1.00  0.00    -0.151 N 
HETATM    3  C   UNL     1     -41.962  55.054 -51.166  1.00  0.00     0.734 A 
HETATM    4  N   UNL     1     -40.892  54.422 -50.734  1.00  0.00    -0.060 NA
HETATM    5  C   UNL     1     -40.551  53.521 -51.711  1.00  0.00     0.103 A 
HETATM    6  C   UNL     1     -41.424  53.603 -52.792  1.00  0.00     0.083 A 
HETATM    7  C   UNL     1     -39.502  52.592 -51.740  1.00  0.00     0.034 A 
HETATM    8  C   UNL     1     -39.369  51.766 -52.862  1.00  0.00     0.002 A 
HETATM    9  C   UNL     1     -40.263  51.863 -53.932  1.00  0.00     0.002 A 
HETATM   10  C   UNL     1     -41.315  52.787 -53.922  1.00  0.00     0.033 A 
HETATM   11  N   UNL     1     -42.690  55.986 -50.512  1.00  0.00    -0.033 NA
HETATM   12  C   UNL     1     -43.761  56.431 -51.060  1.00  0.00     0.193 C 
HETATM   13  N   UNL     1     -44.217  56.052 -52.322  1.00  0.00    -0.338 N 
HETATM   14  H   UNL     1     -45.102  56.360 -52.695  1.00  0.00     0.164 HD
ENDROOT
BRANCH   1  15
HETATM   15  C   UNL     1     -43.039  55.949 -54.408  1.00  0.00     0.020 A 
HETATM   16  C   UNL     1     -43.040  55.273 -55.653  1.00  0.00     0.078 A 
HETATM   17  C   UNL     1     -42.698  55.954 -56.825  1.00  0.00     0.039 A 
HETATM   18  C   UNL     1     -42.369  57.310 -56.784  1.00  0.00     0.022 A 
HETATM   19  C   UNL     1     -42.396  57.990 -55.573  1.00  0.00     0.011 A 
HETATM   20  C   UNL     1     -42.736  57.326 -54.394  1.00  0.00     0.033 A 
HETATM   21 BR   UNL     1     -41.964  59.829 -55.521  1.00  0.00    -0.051 Br
BRANCH  16  22
HETATM   22  O   UNL     1     -43.416  53.952 -55.605  1.00  0.00    -0.355 OA
HETATM   23  C   UNL     1     -43.846  53.351 -56.825  1.00  0.00     0.210 C 
ENDBRANCH  16  22
ENDBRANCH   1  15
BRANCH  12  24
HETATM   24  N   UNL     1     -44.574  57.327 -50.464  1.00  0.00    -0.272 NA
HETATM   25  H   UNL     1     -45.515  56.954 -50.361  1.00  0.00     0.127 HD
HETATM   26  H   UNL     1     -44.241  57.731 -49.598  1.00  0.00     0.127 HD
ENDBRANCH  12  24
TORSDOF 3
ENDMDL
MODEL 10
REMARK VINA RESULT:      -6.1      2.127      2.895
REMARK  3 active torsions:
REMARK  status: ('A' for Active; 'I' for Inactive)
REMARK    1  A    between atoms: O_2  and  C_3 
REMARK    2  A    between atoms: C_4  and  C_5 
REMARK    3  A    between atoms: C_16  and  N_17 
ROOT
HETATM    1  C   UNL     1     -43.022  55.572 -52.874  1.00  0.00     0.246 C 
HETATM    2  N   UNL     1     -42.207  54.431 -52.514  1.00  0.00    -0.151 N 
HETATM    3  C   UNL     1     -42.342  53.829 -51.288  1.00  0.00     0.734 A 
HETATM    4  N   UNL     1     -41.487  52.833 -51.192  1.00  0.00    -0.060 NA
HETATM    5  C   UNL     1     -40.843  52.756 -52.401  1.00  0.00     0.103 A 
HETATM    6  C   UNL     1     -41.297  53.742 -53.272  1.00  0.00     0.083 A 
HETATM    7  C   UNL     1     -39.855  51.859 -52.829  1.00  0.00     0.034 A 
HETATM    8  C   UNL     1     -39.356  51.982 -54.131  1.00  0.00     0.002 A 
HETATM    9  C   UNL     1     -39.833  52.976 -54.989  1.00  0.00     0.002 A 
HETATM   10  C   UNL     1     -40.818  53.883 -54.578  1.00  0.00     0.033 A 
HETATM   11  N   UNL     1     -43.240  54.236 -50.364  1.00  0.00    -0.033 NA
HETATM   12  C   UNL     1     -44.058  55.177 -50.669  1.00  0.00     0.193 C 
HETATM   13  N   UNL     1     -44.062  55.853 -51.888  1.00  0.00    -0.338 N 
HETATM   14  H   UNL     1     -44.765  56.535 -52.129  1.00  0.00     0.164 HD
ENDROOT
BRANCH   1  15
HETATM   15  C   UNL     1     -42.247  56.870 -53.081  1.00  0.00     0.020 A 
HETATM   16  C   UNL     1     -42.399  57.565 -54.305  1.00  0.00     0.078 A 
HETATM   17  C   UNL     1     -41.692  58.750 -54.536  1.00  0.00     0.039 A 
HETATM   18  C   UNL     1     -40.845  59.269 -53.556  1.00  0.00     0.022 A 
HETATM   19  C   UNL     1     -40.713  58.612 -52.339  1.00  0.00     0.011 A 
HETATM   20  C   UNL     1     -41.411  57.430 -52.092  1.00  0.00     0.033 A 
HETATM   21 BR   UNL     1     -39.576  59.323 -51.008  1.00  0.00    -0.051 Br
BRANCH  16  22
HETATM   22  O   UNL     1     -43.285  57.004 -55.194  1.00  0.00    -0.355 OA
HETATM   23  C   UNL     1     -42.762  56.569 -56.448  1.00  0.00     0.210 C 
ENDBRANCH  16  22
ENDBRANCH   1  15
BRANCH  12  24
HETATM   24  N   UNL     1     -45.017  55.618 -49.829  1.00  0.00    -0.272 NA
HETATM   25  H   UNL     1     -45.191  54.943 -49.087  1.00  0.00     0.127 HD
HETATM   26  H   UNL     1     -44.896  56.551 -49.457  1.00  0.00     0.127 HD
ENDBRANCH  12  24
TORSDOF 3
ENDMDL
