MODEL 1
REMARK VINA RESULT:      -8.2      0.000      0.000
REMARK  7 active torsions:
REMARK  status: ('A' for Active; 'I' for Inactive)
REMARK    1  A    between atoms: C_3  and  C_4 
REMARK       I    between atoms: C_4  and  N_5 
REMARK    2  A    between atoms: C_8  and  N_9 
REMARK       I    between atoms: N_9  and  C_10 
REMARK    3  A    between atoms: C_10  and  C_11 
REMARK    4  A    between atoms: C_11  and  N_12 
REMARK       I    between atoms: N_15  and  C_16 
REMARK    5  A    between atoms: C_16  and  C_17 
REMARK    6  A    between atoms: C_32  and  C_33 
REMARK    7  A    between atoms: C_33  and  O_34 
ROOT
HETATM    1  C   UNL     1     -44.544  60.218 -53.610  1.00  0.00     0.375 C 
ENDROOT
BRANCH   1   2
HETATM    2  C   UNL     1     -43.786  60.201 -54.945  1.00  0.00     0.251 C 
HETATM    3  N   UNL     1     -44.194  59.161 -55.761  1.00  0.00    -0.319 N 
HETATM    4  H   UNL     1     -44.984  58.617 -55.434  1.00  0.00     0.169 HD
HETATM    5  O   UNL     1     -43.009  61.102 -55.245  1.00  0.00    -0.271 OA
BRANCH   3   6
HETATM    6  C   UNL     1     -43.834  59.035 -57.084  1.00  0.00     0.094 C 
HETATM    7  S   UNL     1     -42.853  57.676 -57.335  1.00  0.00    -0.065 SA
HETATM    8  C   UNL     1     -42.961  57.815 -59.040  1.00  0.00     0.081 C 
HETATM    9  C   UNL     1     -43.609  58.993 -59.406  1.00  0.00    -0.020 C 
HETATM   10  C   UNL     1     -43.786  59.465 -60.822  1.00  0.00     0.051 C 
HETATM   11  C   UNL     1     -44.093  59.736 -58.243  1.00  0.00     0.080 C 
BRANCH   8  12
HETATM   12  C   UNL     1     -42.399  56.781 -59.907  1.00  0.00     0.256 C 
HETATM   13  N   UNL     1     -41.095  56.932 -60.290  1.00  0.00    -0.365 N 
HETATM   14  H   UNL     1     -40.532  57.713 -59.986  1.00  0.00     0.159 HD
HETATM   15  H   UNL     1     -40.690  56.216 -60.876  1.00  0.00     0.159 HD
HETATM   16  O   UNL     1     -43.008  55.792 -60.306  1.00  0.00    -0.267 OA
ENDBRANCH   8  12
BRANCH  11  17
HETATM   17  C   UNL     1     -44.730  61.052 -58.307  1.00  0.00     0.296 C 
HETATM   18  O   UNL     1     -44.163  62.057 -58.723  1.00  0.00    -0.259 OA
BRANCH  17  19
HETATM   19  O   UNL     1     -45.964  61.057 -57.715  1.00  0.00    -0.322 OA
HETATM   20  C   UNL     1     -46.964  60.368 -58.463  1.00  0.00     0.213 C 
ENDBRANCH  17  19
ENDBRANCH  11  17
ENDBRANCH   3   6
ENDBRANCH   1   2
BRANCH   1  21
HETATM   21  N   UNL     1     -43.602  60.214 -52.468  1.00  0.00     0.100 N 
HETATM   22  C   UNL     1     -44.287  59.841 -51.205  1.00  0.00     0.293 C 
HETATM   23  C   UNL     1     -44.729  58.367 -51.105  1.00  0.00     0.156 C 
HETATM   24  N   UNL     1     -43.678  57.417 -51.484  1.00  0.00    -0.344 N 
HETATM   25  C   UNL     1     -43.809  56.100 -51.014  1.00  0.00     0.262 C 
HETATM   26  C   UNL     1     -42.869  57.780 -52.653  1.00  0.00     0.156 C 
HETATM   27  O   UNL     1     -44.678  55.803 -50.195  1.00  0.00    -0.267 OA
HETATM   28  C   UNL     1     -42.487  59.271 -52.684  1.00  0.00     0.293 C 
BRANCH  25  29
HETATM   29  C   UNL     1     -42.867  55.113 -51.491  1.00  0.00     0.096 A 
HETATM   30  S   UNL     1     -43.079  54.398 -53.022  1.00  0.00    -0.082 SA
HETATM   31  C   UNL     1     -41.690  53.398 -52.835  1.00  0.00     0.019 A 
HETATM   32  C   UNL     1     -41.099  53.572 -51.579  1.00  0.00     0.004 A 
HETATM   33  C   UNL     1     -41.171  52.491 -53.781  1.00  0.00     0.043 A 
HETATM   34  C   UNL     1     -41.802  54.567 -50.811  1.00  0.00     0.068 A 
HETATM   35  C   UNL     1     -39.957  52.784 -51.270  1.00  0.00     0.016 A 
HETATM   36 CL   UNL     1     -41.321  55.020 -49.225  1.00  0.00    -0.082 Cl
HETATM   37  C   UNL     1     -39.440  51.879 -52.203  1.00  0.00     0.025 A 
HETATM   38  C   UNL     1     -40.042  51.744 -53.445  1.00  0.00     0.035 A 
HETATM   39 CL   UNL     1     -39.389  50.636 -54.589  1.00  0.00    -0.084 Cl
ENDBRANCH  25  29
ENDBRANCH   1  21
TORSDOF 7
ENDMDL
MODEL 2
REMARK VINA RESULT:      -8.1      1.949      2.207
REMARK  7 active torsions:
REMARK  status: ('A' for Active; 'I' for Inactive)
REMARK    1  A    between atoms: C_3  and  C_4 
REMARK       I    between atoms: C_4  and  N_5 
REMARK    2  A    between atoms: C_8  and  N_9 
REMARK       I    between atoms: N_9  and  C_10 
REMARK    3  A    between atoms: C_10  and  C_11 
REMARK    4  A    between atoms: C_11  and  N_12 
REMARK       I    between atoms: N_15  and  C_16 
REMARK    5  A    between atoms: C_16  and  C_17 
REMARK    6  A    between atoms: C_32  and  C_33 
REMARK    7  A    between atoms: C_33  and  O_34 
ROOT
HETATM    1  C   UNL     1     -43.746  59.744 -54.581  1.00  0.00     0.375 C 
ENDROOT
BRANCH   1   2
HETATM    2  C   UNL     1     -43.831  59.400 -56.075  1.00  0.00     0.251 C 
HETATM    3  N   UNL     1     -44.530  58.228 -56.300  1.00  0.00    -0.319 N 
HETATM    4  H   UNL     1     -44.972  57.807 -55.491  1.00  0.00     0.169 HD
HETATM    5  O   UNL     1     -43.413  60.176 -56.930  1.00  0.00    -0.271 OA
BRANCH   3   6
HETATM    6  C   UNL     1     -44.932  57.798 -57.544  1.00  0.00     0.094 C 
HETATM    7  S   UNL     1     -43.958  56.532 -58.111  1.00  0.00    -0.065 SA
HETATM    8  C   UNL     1     -45.008  56.208 -59.427  1.00  0.00     0.081 C 
HETATM    9  C   UNL     1     -46.007  57.174 -59.520  1.00  0.00    -0.020 C 
HETATM   10  C   UNL     1     -47.033  57.238 -60.616  1.00  0.00     0.051 C 
HETATM   11  C   UNL     1     -45.938  58.140 -58.424  1.00  0.00     0.080 C 
BRANCH   8  12
HETATM   12  C   UNL     1     -44.784  55.048 -60.287  1.00  0.00     0.256 C 
HETATM   13  N   UNL     1     -44.812  53.817 -59.692  1.00  0.00    -0.365 N 
HETATM   14  H   UNL     1     -44.987  53.702 -58.705  1.00  0.00     0.159 HD
HETATM   15  H   UNL     1     -44.674  53.007 -60.279  1.00  0.00     0.159 HD
HETATM   16  O   UNL     1     -44.582  55.100 -61.498  1.00  0.00    -0.267 OA
ENDBRANCH   8  12
BRANCH  11  17
HETATM   17  C   UNL     1     -46.797  59.319 -58.303  1.00  0.00     0.296 C 
HETATM   18  O   UNL     1     -47.898  59.299 -57.761  1.00  0.00    -0.259 OA
BRANCH  17  19
HETATM   19  O   UNL     1     -46.299  60.393 -58.990  1.00  0.00    -0.322 OA
HETATM   20  C   UNL     1     -46.392  61.624 -58.277  1.00  0.00     0.213 C 
ENDBRANCH  17  19
ENDBRANCH  11  17
ENDBRANCH   3   6
ENDBRANCH   1   2
BRANCH   1  21
HETATM   21  N   UNL     1     -42.337  59.859 -54.144  1.00  0.00     0.100 N 
HETATM   22  C   UNL     1     -42.241  60.034 -52.673  1.00  0.00     0.293 C 
HETATM   23  C   UNL     1     -42.610  58.791 -51.837  1.00  0.00     0.156 C 
HETATM   24  N   UNL     1     -41.966  57.561 -52.307  1.00  0.00    -0.344 N 
HETATM   25  C   UNL     1     -41.869  56.502 -51.389  1.00  0.00     0.262 C 
HETATM   26  C   UNL     1     -41.907  57.376 -53.761  1.00  0.00     0.156 C 
HETATM   27  O   UNL     1     -42.165  56.660 -50.205  1.00  0.00    -0.267 OA
HETATM   28  C   UNL     1     -41.551  58.667 -54.520  1.00  0.00     0.293 C 
BRANCH  25  29
HETATM   29  C   UNL     1     -41.371  55.232 -51.869  1.00  0.00     0.096 A 
HETATM   30  S   UNL     1     -41.899  54.618 -53.368  1.00  0.00    -0.082 SA
HETATM   31  C   UNL     1     -40.959  53.185 -53.200  1.00  0.00     0.019 A 
HETATM   32  C   UNL     1     -40.286  53.153 -51.973  1.00  0.00     0.004 A 
HETATM   33  C   UNL     1     -40.848  52.136 -54.136  1.00  0.00     0.043 A 
HETATM   34  C   UNL     1     -40.546  54.348 -51.212  1.00  0.00     0.068 A 
HETATM   35  C   UNL     1     -39.495  52.010 -51.683  1.00  0.00     0.016 A 
HETATM   36 CL   UNL     1     -39.860  54.622 -49.661  1.00  0.00    -0.082 Cl
HETATM   37  C   UNL     1     -39.385  50.964 -52.605  1.00  0.00     0.025 A 
HETATM   38  C   UNL     1     -40.051  51.036 -53.818  1.00  0.00     0.035 A 
HETATM   39 CL   UNL     1     -39.898  49.748 -54.949  1.00  0.00    -0.084 Cl
ENDBRANCH  25  29
ENDBRANCH   1  21
TORSDOF 7
ENDMDL
MODEL 3
REMARK VINA RESULT:      -8.0      4.564      7.748
REMARK  7 active torsions:
REMARK  status: ('A' for Active; 'I' for Inactive)
REMARK    1  A    between atoms: C_3  and  C_4 
REMARK       I    between atoms: C_4  and  N_5 
REMARK    2  A    between atoms: C_8  and  N_9 
REMARK       I    between atoms: N_9  and  C_10 
REMARK    3  A    between atoms: C_10  and  C_11 
REMARK    4  A    between atoms: C_11  and  N_12 
REMARK       I    between atoms: N_15  and  C_16 
REMARK    5  A    between atoms: C_16  and  C_17 
REMARK    6  A    between atoms: C_32  and  C_33 
REMARK    7  A    between atoms: C_33  and  O_34 
ROOT
HETATM    1  C   UNL     1     -45.628  58.520 -51.130  1.00  0.00     0.375 C 
ENDROOT
BRANCH   1   2
HETATM    2  C   UNL     1     -45.978  59.856 -50.459  1.00  0.00     0.251 C 
HETATM    3  N   UNL     1     -45.227  60.077 -49.318  1.00  0.00    -0.319 N 
HETATM    4  H   UNL     1     -44.494  59.404 -49.126  1.00  0.00     0.169 HD
HETATM    5  O   UNL     1     -46.753  60.647 -50.986  1.00  0.00    -0.271 OA
BRANCH   3   6
HETATM    6  C   UNL     1     -45.186  61.276 -48.644  1.00  0.00     0.094 C 
HETATM    7  S   UNL     1     -45.897  61.152 -47.110  1.00  0.00    -0.065 SA
HETATM    8  C   UNL     1     -45.334  62.701 -46.637  1.00  0.00     0.081 C 
HETATM    9  C   UNL     1     -44.749  63.370 -47.710  1.00  0.00    -0.020 C 
HETATM   10  C   UNL     1     -44.239  64.782 -47.659  1.00  0.00     0.051 C 
HETATM   11  C   UNL     1     -44.697  62.537 -48.911  1.00  0.00     0.080 C 
BRANCH   8  12
HETATM   12  C   UNL     1     -45.509  63.168 -45.263  1.00  0.00     0.256 C 
HETATM   13  N   UNL     1     -46.611  63.937 -45.004  1.00  0.00    -0.365 N 
HETATM   14  H   UNL     1     -47.283  64.171 -45.719  1.00  0.00     0.159 HD
HETATM   15  H   UNL     1     -46.751  64.253 -44.055  1.00  0.00     0.159 HD
HETATM   16  O   UNL     1     -44.749  62.914 -44.333  1.00  0.00    -0.267 OA
ENDBRANCH   8  12
BRANCH  11  17
HETATM   17  C   UNL     1     -44.222  62.996 -50.217  1.00  0.00     0.296 C 
HETATM   18  O   UNL     1     -43.056  62.890 -50.587  1.00  0.00    -0.259 OA
BRANCH  17  19
HETATM   19  O   UNL     1     -45.185  63.684 -50.904  1.00  0.00    -0.322 OA
HETATM   20  C   UNL     1     -44.926  63.794 -52.302  1.00  0.00     0.213 C 
ENDBRANCH  17  19
ENDBRANCH  11  17
ENDBRANCH   3   6
ENDBRANCH   1   2
BRANCH   1  21
HETATM   21  N   UNL     1     -44.888  58.741 -52.392  1.00  0.00     0.100 N 
HETATM   22  C   UNL     1     -43.672  59.562 -52.167  1.00  0.00     0.293 C 
HETATM   23  C   UNL     1     -42.539  58.863 -51.388  1.00  0.00     0.156 C 
HETATM   24  N   UNL     1     -42.232  57.520 -51.888  1.00  0.00    -0.344 N 
HETATM   25  C   UNL     1     -40.969  56.994 -51.569  1.00  0.00     0.262 C 
HETATM   26  C   UNL     1     -43.383  56.688 -52.255  1.00  0.00     0.156 C 
HETATM   27  O   UNL     1     -40.108  57.692 -51.034  1.00  0.00    -0.267 OA
HETATM   28  C   UNL     1     -44.474  57.466 -53.012  1.00  0.00     0.293 C 
BRANCH  25  29
HETATM   29  C   UNL     1     -40.697  55.619 -51.924  1.00  0.00     0.096 A 
HETATM   30  S   UNL     1     -40.830  55.112 -53.544  1.00  0.00    -0.082 SA
HETATM   31  C   UNL     1     -40.423  53.486 -53.150  1.00  0.00     0.019 A 
HETATM   32  C   UNL     1     -40.240  53.322 -51.773  1.00  0.00     0.004 A 
HETATM   33  C   UNL     1     -40.286  52.410 -54.051  1.00  0.00     0.043 A 
HETATM   34  C   UNL     1     -40.412  54.571 -51.078  1.00  0.00     0.068 A 
HETATM   35  C   UNL     1     -39.931  52.020 -51.297  1.00  0.00     0.016 A 
HETATM   36 CL   UNL     1     -40.246  54.711 -49.374  1.00  0.00    -0.082 Cl
HETATM   37  C   UNL     1     -39.799  50.947 -52.185  1.00  0.00     0.025 A 
HETATM   38  C   UNL     1     -39.970  51.148 -53.546  1.00  0.00     0.035 A 
HETATM   39 CL   UNL     1     -39.793  49.823 -54.630  1.00  0.00    -0.084 Cl
ENDBRANCH  25  29
ENDBRANCH   1  21
TORSDOF 7
ENDMDL
MODEL 4
REMARK VINA RESULT:      -7.9      4.010      5.917
REMARK  7 active torsions:
REMARK  status: ('A' for Active; 'I' for Inactive)
REMARK    1  A    between atoms: C_3  and  C_4 
REMARK       I    between atoms: C_4  and  N_5 
REMARK    2  A    between atoms: C_8  and  N_9 
REMARK       I    between atoms: N_9  and  C_10 
REMARK    3  A    between atoms: C_10  and  C_11 
REMARK    4  A    between atoms: C_11  and  N_12 
REMARK       I    between atoms: N_15  and  C_16 
REMARK    5  A    between atoms: C_16  and  C_17 
REMARK    6  A    between atoms: C_32  and  C_33 
REMARK    7  A    between atoms: C_33  and  O_34 
ROOT
HETATM    1  C   UNL     1     -42.748  60.541 -53.594  1.00  0.00     0.375 C 
ENDROOT
BRANCH   1   2
HETATM    2  C   UNL     1     -43.750  61.688 -53.393  1.00  0.00     0.251 C 
HETATM    3  N   UNL     1     -45.054  61.233 -53.324  1.00  0.00    -0.319 N 
HETATM    4  H   UNL     1     -45.179  60.226 -53.313  1.00  0.00     0.169 HD
HETATM    5  O   UNL     1     -43.367  62.838 -53.202  1.00  0.00    -0.271 OA
BRANCH   3   6
HETATM    6  C   UNL     1     -46.122  62.013 -52.944  1.00  0.00     0.094 C 
HETATM    7  S   UNL     1     -47.053  62.488 -54.279  1.00  0.00    -0.065 SA
HETATM    8  C   UNL     1     -48.305  63.108 -53.286  1.00  0.00     0.081 C 
HETATM    9  C   UNL     1     -47.930  63.098 -51.943  1.00  0.00    -0.020 C 
HETATM   10  C   UNL     1     -48.759  63.659 -50.822  1.00  0.00     0.051 C 
HETATM   11  C   UNL     1     -46.618  62.483 -51.746  1.00  0.00     0.080 C 
BRANCH   8  12
HETATM   12  C   UNL     1     -49.558  63.575 -53.874  1.00  0.00     0.256 C 
HETATM   13  N   UNL     1     -50.369  62.630 -54.441  1.00  0.00    -0.365 N 
HETATM   14  H   UNL     1     -50.127  61.650 -54.450  1.00  0.00     0.159 HD
HETATM   15  H   UNL     1     -51.245  62.938 -54.837  1.00  0.00     0.159 HD
HETATM   16  O   UNL     1     -49.935  64.744 -53.889  1.00  0.00    -0.267 OA
ENDBRANCH   8  12
BRANCH  11  17
HETATM   17  C   UNL     1     -45.922  62.410 -50.460  1.00  0.00     0.296 C 
HETATM   18  O   UNL     1     -45.019  63.174 -50.138  1.00  0.00    -0.259 OA
BRANCH  17  19
HETATM   19  O   UNL     1     -46.292  61.310 -49.735  1.00  0.00    -0.322 OA
HETATM   20  C   UNL     1     -45.413  61.014 -48.652  1.00  0.00     0.213 C 
ENDBRANCH  17  19
ENDBRANCH  11  17
ENDBRANCH   3   6
ENDBRANCH   1   2
BRANCH   1  21
HETATM   21  N   UNL     1     -41.986  60.282 -52.352  1.00  0.00     0.100 N 
HETATM   22  C   UNL     1     -42.893  59.966 -51.220  1.00  0.00     0.293 C 
HETATM   23  C   UNL     1     -43.606  58.600 -51.307  1.00  0.00     0.156 C 
HETATM   24  N   UNL     1     -42.704  57.493 -51.640  1.00  0.00    -0.344 N 
HETATM   25  C   UNL     1     -43.136  56.198 -51.309  1.00  0.00     0.262 C 
HETATM   26  C   UNL     1     -41.691  57.769 -52.665  1.00  0.00     0.156 C 
HETATM   27  O   UNL     1     -44.147  56.021 -50.631  1.00  0.00    -0.267 OA
HETATM   28  C   UNL     1     -41.043  59.157 -52.515  1.00  0.00     0.293 C 
BRANCH  25  29
HETATM   29  C   UNL     1     -42.334  55.081 -51.756  1.00  0.00     0.096 A 
HETATM   30  S   UNL     1     -42.578  54.419 -53.306  1.00  0.00    -0.082 SA
HETATM   31  C   UNL     1     -41.369  53.215 -53.067  1.00  0.00     0.019 A 
HETATM   32  C   UNL     1     -40.819  53.288 -51.783  1.00  0.00     0.004 A 
HETATM   33  C   UNL     1     -40.949  52.247 -54.002  1.00  0.00     0.043 A 
HETATM   34  C   UNL     1     -41.399  54.374 -51.035  1.00  0.00     0.068 A 
HETATM   35  C   UNL     1     -39.828  52.333 -51.433  1.00  0.00     0.016 A 
HETATM   36 CL   UNL     1     -40.932  54.737 -49.422  1.00  0.00    -0.082 Cl
HETATM   37  C   UNL     1     -39.411  51.365 -52.353  1.00  0.00     0.025 A 
HETATM   38  C   UNL     1     -39.966  51.333 -53.623  1.00  0.00     0.035 A 
HETATM   39 CL   UNL     1     -39.435  50.146 -54.752  1.00  0.00    -0.084 Cl
ENDBRANCH  25  29
ENDBRANCH   1  21
TORSDOF 7
ENDMDL
MODEL 5
REMARK VINA RESULT:      -7.8      2.039      2.628
REMARK  7 active torsions:
REMARK  status: ('A' for Active; 'I' for Inactive)
REMARK    1  A    between atoms: C_3  and  C_4 
REMARK       I    between atoms: C_4  and  N_5 
REMARK    2  A    between atoms: C_8  and  N_9 
REMARK       I    between atoms: N_9  and  C_10 
REMARK    3  A    between atoms: C_10  and  C_11 
REMARK    4  A    between atoms: C_11  and  N_12 
REMARK       I    between atoms: N_15  and  C_16 
REMARK    5  A    between atoms: C_16  and  C_17 
REMARK    6  A    between atoms: C_32  and  C_33 
REMARK    7  A    between atoms: C_33  and  O_34 
ROOT
HETATM    1  C   UNL     1     -45.487  59.851 -53.721  1.00  0.00     0.375 C 
ENDROOT
BRANCH   1   2
HETATM    2  C   UNL     1     -44.948  59.615 -55.139  1.00  0.00     0.251 C 
HETATM    3  N   UNL     1     -45.460  58.461 -55.705  1.00  0.00    -0.319 N 
HETATM    4  H   UNL     1     -46.180  57.983 -55.174  1.00  0.00     0.169 HD
HETATM    5  O   UNL     1     -44.243  60.450 -55.697  1.00  0.00    -0.271 OA
BRANCH   3   6
HETATM    6  C   UNL     1     -45.311  58.122 -57.030  1.00  0.00     0.094 C 
HETATM    7  S   UNL     1     -46.806  58.031 -57.822  1.00  0.00    -0.065 SA
HETATM    8  C   UNL     1     -46.070  57.903 -59.365  1.00  0.00     0.081 C 
HETATM    9  C   UNL     1     -44.688  57.763 -59.250  1.00  0.00    -0.020 C 
HETATM   10  C   UNL     1     -43.755  57.533 -60.406  1.00  0.00     0.051 C 
HETATM   11  C   UNL     1     -44.243  57.855 -57.860  1.00  0.00     0.080 C 
BRANCH   8  12
HETATM   12  C   UNL     1     -46.881  57.931 -60.580  1.00  0.00     0.256 C 
HETATM   13  N   UNL     1     -47.035  56.750 -61.253  1.00  0.00    -0.365 N 
HETATM   14  H   UNL     1     -46.620  55.890 -60.929  1.00  0.00     0.159 HD
HETATM   15  H   UNL     1     -47.606  56.754 -62.086  1.00  0.00     0.159 HD
HETATM   16  O   UNL     1     -47.435  58.930 -61.032  1.00  0.00    -0.267 OA
ENDBRANCH   8  12
BRANCH  11  17
HETATM   17  C   UNL     1     -42.861  57.657 -57.419  1.00  0.00     0.296 C 
HETATM   18  O   UNL     1     -41.895  58.171 -57.973  1.00  0.00    -0.259 OA
BRANCH  17  19
HETATM   19  O   UNL     1     -42.767  56.722 -56.423  1.00  0.00    -0.322 OA
HETATM   20  C   UNL     1     -42.865  55.377 -56.886  1.00  0.00     0.213 C 
ENDBRANCH  17  19
ENDBRANCH  11  17
ENDBRANCH   3   6
ENDBRANCH   1   2
BRANCH   1  21
HETATM   21  N   UNL     1     -44.378  60.045 -52.759  1.00  0.00     0.100 N 
HETATM   22  C   UNL     1     -44.811  59.749 -51.371  1.00  0.00     0.293 C 
HETATM   23  C   UNL     1     -45.083  58.261 -51.068  1.00  0.00     0.156 C 
HETATM   24  N   UNL     1     -44.017  57.368 -51.534  1.00  0.00    -0.344 N 
HETATM   25  C   UNL     1     -43.941  56.101 -50.933  1.00  0.00     0.262 C 
HETATM   26  C   UNL     1     -43.447  57.674 -52.850  1.00  0.00     0.156 C 
HETATM   27  O   UNL     1     -44.633  55.819 -49.956  1.00  0.00    -0.267 OA
HETATM   28  C   UNL     1     -43.225  59.180 -53.077  1.00  0.00     0.293 C 
BRANCH  25  29
HETATM   29  C   UNL     1     -42.994  55.151 -51.474  1.00  0.00     0.096 A 
HETATM   30  S   UNL     1     -43.263  54.453 -53.005  1.00  0.00    -0.082 SA
HETATM   31  C   UNL     1     -41.836  53.494 -52.904  1.00  0.00     0.019 A 
HETATM   32  C   UNL     1     -41.186  53.668 -51.677  1.00  0.00     0.004 A 
HETATM   33  C   UNL     1     -41.338  52.619 -53.891  1.00  0.00     0.043 A 
HETATM   34  C   UNL     1     -41.879  54.628 -50.859  1.00  0.00     0.068 A 
HETATM   35  C   UNL     1     -40.007  52.912 -51.440  1.00  0.00     0.016 A 
HETATM   36 CL   UNL     1     -41.332  55.073 -49.292  1.00  0.00    -0.082 Cl
HETATM   37  C   UNL     1     -39.511  52.038 -52.413  1.00  0.00     0.025 A 
HETATM   38  C   UNL     1     -40.171  51.903 -53.625  1.00  0.00     0.035 A 
HETATM   39 CL   UNL     1     -39.544  50.833 -54.819  1.00  0.00    -0.084 Cl
ENDBRANCH  25  29
ENDBRANCH   1  21
TORSDOF 7
ENDMDL
MODEL 6
REMARK VINA RESULT:      -7.8      2.727      3.249
REMARK  7 active torsions:
REMARK  status: ('A' for Active; 'I' for Inactive)
REMARK    1  A    between atoms: C_3  and  C_4 
REMARK       I    between atoms: C_4  and  N_5 
REMARK    2  A    between atoms: C_8  and  N_9 
REMARK       I    between atoms: N_9  and  C_10 
REMARK    3  A    between atoms: C_10  and  C_11 
REMARK    4  A    between atoms: C_11  and  N_12 
REMARK       I    between atoms: N_15  and  C_16 
REMARK    5  A    between atoms: C_16  and  C_17 
REMARK    6  A    between atoms: C_32  and  C_33 
REMARK    7  A    between atoms: C_33  and  O_34 
ROOT
HETATM    1  C   UNL     1     -43.294  60.186 -55.227  1.00  0.00     0.375 C 
ENDROOT
BRANCH   1   2
HETATM    2  C   UNL     1     -42.913  61.158 -56.352  1.00  0.00     0.251 C 
HETATM    3  N   UNL     1     -42.190  60.537 -57.355  1.00  0.00    -0.319 N 
HETATM    4  H   UNL     1     -42.090  59.530 -57.278  1.00  0.00     0.169 HD
HETATM    5  O   UNL     1     -43.332  62.311 -56.364  1.00  0.00    -0.271 OA
BRANCH   3   6
HETATM    6  C   UNL     1     -41.902  61.117 -58.569  1.00  0.00     0.094 C 
HETATM    7  S   UNL     1     -40.656  62.258 -58.434  1.00  0.00    -0.065 SA
HETATM    8  C   UNL     1     -40.508  62.414 -60.135  1.00  0.00     0.081 C 
HETATM    9  C   UNL     1     -41.522  61.719 -60.791  1.00  0.00    -0.020 C 
HETATM   10  C   UNL     1     -41.736  61.728 -62.279  1.00  0.00     0.051 C 
HETATM   11  C   UNL     1     -42.372  60.981 -59.859  1.00  0.00     0.080 C 
BRANCH   8  12
HETATM   12  C   UNL     1     -39.429  63.210 -60.717  1.00  0.00     0.256 C 
HETATM   13  N   UNL     1     -38.850  64.153 -59.913  1.00  0.00    -0.365 N 
HETATM   14  H   UNL     1     -39.139  64.296 -58.957  1.00  0.00     0.159 HD
HETATM   15  H   UNL     1     -38.092  64.699 -60.299  1.00  0.00     0.159 HD
HETATM   16  O   UNL     1     -39.006  63.087 -61.863  1.00  0.00    -0.267 OA
ENDBRANCH   8  12
BRANCH  11  17
HETATM   17  C   UNL     1     -43.570  60.233 -60.244  1.00  0.00     0.296 C 
HETATM   18  O   UNL     1     -44.529  60.743 -60.814  1.00  0.00    -0.259 OA
BRANCH  17  19
HETATM   19  O   UNL     1     -43.555  58.952 -59.763  1.00  0.00    -0.322 OA
HETATM   20  C   UNL     1     -42.620  58.101 -60.423  1.00  0.00     0.213 C 
ENDBRANCH  17  19
ENDBRANCH  11  17
ENDBRANCH   3   6
ENDBRANCH   1   2
BRANCH   1  21
HETATM   21  N   UNL     1     -42.315  60.249 -54.119  1.00  0.00     0.100 N 
HETATM   22  C   UNL     1     -42.991  60.209 -52.799  1.00  0.00     0.293 C 
HETATM   23  C   UNL     1     -43.630  58.855 -52.426  1.00  0.00     0.156 C 
HETATM   24  N   UNL     1     -42.738  57.712 -52.643  1.00  0.00    -0.344 N 
HETATM   25  C   UNL     1     -43.032  56.533 -51.938  1.00  0.00     0.262 C 
HETATM   26  C   UNL     1     -41.936  57.741 -53.871  1.00  0.00     0.156 C 
HETATM   27  O   UNL     1     -43.898  56.514 -51.065  1.00  0.00    -0.267 OA
HETATM   28  C   UNL     1     -41.352  59.131 -54.178  1.00  0.00     0.293 C 
BRANCH  25  29
HETATM   29  C   UNL     1     -42.257  55.350 -52.244  1.00  0.00     0.096 A 
HETATM   30  S   UNL     1     -42.584  54.454 -53.654  1.00  0.00    -0.082 SA
HETATM   31  C   UNL     1     -41.367  53.290 -53.291  1.00  0.00     0.019 A 
HETATM   32  C   UNL     1     -40.750  53.559 -52.064  1.00  0.00     0.004 A 
HETATM   33  C   UNL     1     -41.000  52.182 -54.080  1.00  0.00     0.043 A 
HETATM   34  C   UNL     1     -41.287  54.755 -51.469  1.00  0.00     0.068 A 
HETATM   35  C   UNL     1     -39.745  52.660 -51.619  1.00  0.00     0.016 A 
HETATM   36 CL   UNL     1     -40.735  55.364 -49.960  1.00  0.00    -0.082 Cl
HETATM   37  C   UNL     1     -39.379  51.555 -52.395  1.00  0.00     0.025 A 
HETATM   38  C   UNL     1     -40.000  51.328 -53.613  1.00  0.00     0.035 A 
HETATM   39 CL   UNL     1     -39.532  49.973 -54.566  1.00  0.00    -0.084 Cl
ENDBRANCH  25  29
ENDBRANCH   1  21
TORSDOF 7
ENDMDL
MODEL 7
REMARK VINA RESULT:      -7.4      3.771      6.079
REMARK  7 active torsions:
REMARK  status: ('A' for Active; 'I' for Inactive)
REMARK    1  A    between atoms: C_3  and  C_4 
REMARK       I    between atoms: C_4  and  N_5 
REMARK    2  A    between atoms: C_8  and  N_9 
REMARK       I    between atoms: N_9  and  C_10 
REMARK    3  A    between atoms: C_10  and  C_11 
REMARK    4  A    between atoms: C_11  and  N_12 
REMARK       I    between atoms: N_15  and  C_16 
REMARK    5  A    between atoms: C_16  and  C_17 
REMARK    6  A    between atoms: C_32  and  C_33 
REMARK    7  A    between atoms: C_33  and  O_34 
ROOT
HETATM    1  C   UNL     1     -42.706  59.979 -53.816  1.00  0.00     0.375 C 
ENDROOT
BRANCH   1   2
HETATM    2  C   UNL     1     -43.580  61.073 -53.186  1.00  0.00     0.251 C 
HETATM    3  N   UNL     1     -44.752  60.562 -52.658  1.00  0.00    -0.319 N 
HETATM    4  H   UNL     1     -44.843  59.552 -52.660  1.00  0.00     0.169 HD
HETATM    5  O   UNL     1     -43.177  62.227 -53.085  1.00  0.00    -0.271 OA
BRANCH   3   6
HETATM    6  C   UNL     1     -45.613  61.279 -51.859  1.00  0.00     0.094 C 
HETATM    7  S   UNL     1     -45.400  60.903 -50.220  1.00  0.00    -0.065 SA
HETATM    8  C   UNL     1     -46.406  62.195 -49.711  1.00  0.00     0.081 C 
HETATM    9  C   UNL     1     -47.030  62.802 -50.800  1.00  0.00    -0.020 C 
HETATM   10  C   UNL     1     -48.047  63.903 -50.695  1.00  0.00     0.051 C 
HETATM   11  C   UNL     1     -46.587  62.232 -52.072  1.00  0.00     0.080 C 
BRANCH   8  12
HETATM   12  C   UNL     1     -46.534  62.524 -48.293  1.00  0.00     0.256 C 
HETATM   13  N   UNL     1     -45.585  63.352 -47.759  1.00  0.00    -0.365 N 
HETATM   14  H   UNL     1     -44.831  63.732 -48.312  1.00  0.00     0.159 HD
HETATM   15  H   UNL     1     -45.671  63.599 -46.784  1.00  0.00     0.159 HD
HETATM   16  O   UNL     1     -47.428  62.118 -47.556  1.00  0.00    -0.267 OA
ENDBRANCH   8  12
BRANCH  11  17
HETATM   17  C   UNL     1     -47.132  62.602 -53.379  1.00  0.00     0.296 C 
HETATM   18  O   UNL     1     -48.255  62.284 -53.757  1.00  0.00    -0.259 OA
BRANCH  17  19
HETATM   19  O   UNL     1     -46.196  63.204 -54.176  1.00  0.00    -0.322 OA
HETATM   20  C   UNL     1     -46.116  62.651 -55.487  1.00  0.00     0.213 C 
ENDBRANCH  17  19
ENDBRANCH  11  17
ENDBRANCH   3   6
ENDBRANCH   1   2
BRANCH   1  21
HETATM   21  N   UNL     1     -41.406  59.873 -53.116  1.00  0.00     0.100 N 
HETATM   22  C   UNL     1     -41.591  59.794 -51.645  1.00  0.00     0.293 C 
HETATM   23  C   UNL     1     -42.206  58.477 -51.128  1.00  0.00     0.156 C 
HETATM   24  N   UNL     1     -41.571  57.279 -51.687  1.00  0.00    -0.344 N 
HETATM   25  C   UNL     1     -41.732  56.081 -50.972  1.00  0.00     0.262 C 
HETATM   26  C   UNL     1     -41.238  57.330 -53.115  1.00  0.00     0.156 C 
HETATM   27  O   UNL     1     -42.245  56.073 -49.854  1.00  0.00    -0.267 OA
HETATM   28  C   UNL     1     -40.648  58.683 -53.550  1.00  0.00     0.293 C 
BRANCH  25  29
HETATM   29  C   UNL     1     -41.241  54.861 -51.575  1.00  0.00     0.096 A 
HETATM   30  S   UNL     1     -41.801  54.379 -53.109  1.00  0.00    -0.082 SA
HETATM   31  C   UNL     1     -40.852  52.942 -53.091  1.00  0.00     0.019 A 
HETATM   32  C   UNL     1     -40.150  52.807 -51.888  1.00  0.00     0.004 A 
HETATM   33  C   UNL     1     -40.758  51.982 -54.118  1.00  0.00     0.043 A 
HETATM   34  C   UNL     1     -40.397  53.928 -51.018  1.00  0.00     0.068 A 
HETATM   35  C   UNL     1     -39.347  51.647 -51.718  1.00  0.00     0.016 A 
HETATM   36 CL   UNL     1     -39.676  54.067 -49.465  1.00  0.00    -0.082 Cl
HETATM   37  C   UNL     1     -39.255  50.687 -52.731  1.00  0.00     0.025 A 
HETATM   38  C   UNL     1     -39.950  50.862 -53.917  1.00  0.00     0.035 A 
HETATM   39 CL   UNL     1     -39.818  49.681 -55.162  1.00  0.00    -0.084 Cl
ENDBRANCH  25  29
ENDBRANCH   1  21
TORSDOF 7
ENDMDL
MODEL 8
REMARK VINA RESULT:      -7.4      1.696      2.586
REMARK  7 active torsions:
REMARK  status: ('A' for Active; 'I' for Inactive)
REMARK    1  A    between atoms: C_3  and  C_4 
REMARK       I    between atoms: C_4  and  N_5 
REMARK    2  A    between atoms: C_8  and  N_9 
REMARK       I    between atoms: N_9  and  C_10 
REMARK    3  A    between atoms: C_10  and  C_11 
REMARK    4  A    between atoms: C_11  and  N_12 
REMARK       I    between atoms: N_15  and  C_16 
REMARK    5  A    between atoms: C_16  and  C_17 
REMARK    6  A    between atoms: C_32  and  C_33 
REMARK    7  A    between atoms: C_33  and  O_34 
ROOT
HETATM    1  C   UNL     1     -44.066  60.622 -53.405  1.00  0.00     0.375 C 
ENDROOT
BRANCH   1   2
HETATM    2  C   UNL     1     -43.294  60.281 -54.688  1.00  0.00     0.251 C 
HETATM    3  N   UNL     1     -44.032  59.482 -55.543  1.00  0.00    -0.319 N 
HETATM    4  H   UNL     1     -44.994  59.308 -55.276  1.00  0.00     0.169 HD
HETATM    5  O   UNL     1     -42.201  60.787 -54.924  1.00  0.00    -0.271 OA
BRANCH   3   6
HETATM    6  C   UNL     1     -43.668  59.202 -56.840  1.00  0.00     0.094 C 
HETATM    7  S   UNL     1     -44.249  60.375 -57.917  1.00  0.00    -0.065 SA
HETATM    8  C   UNL     1     -43.319  59.756 -59.217  1.00  0.00     0.081 C 
HETATM    9  C   UNL     1     -42.699  58.559 -58.863  1.00  0.00    -0.020 C 
HETATM   10  C   UNL     1     -41.888  57.709 -59.801  1.00  0.00     0.051 C 
HETATM   11  C   UNL     1     -42.938  58.212 -57.463  1.00  0.00     0.080 C 
BRANCH   8  12
HETATM   12  C   UNL     1     -43.264  60.463 -60.495  1.00  0.00     0.256 C 
HETATM   13  N   UNL     1     -42.589  61.653 -60.518  1.00  0.00    -0.365 N 
HETATM   14  H   UNL     1     -42.137  62.030 -59.699  1.00  0.00     0.159 HD
HETATM   15  H   UNL     1     -42.530  62.143 -61.399  1.00  0.00     0.159 HD
HETATM   16  O   UNL     1     -43.771  60.065 -61.540  1.00  0.00    -0.267 OA
ENDBRANCH   8  12
BRANCH  11  17
HETATM   17  C   UNL     1     -42.492  56.970 -56.830  1.00  0.00     0.296 C 
HETATM   18  O   UNL     1     -41.700  56.937 -55.894  1.00  0.00    -0.259 OA
BRANCH  17  19
HETATM   19  O   UNL     1     -42.940  55.861 -57.496  1.00  0.00    -0.322 OA
HETATM   20  C   UNL     1     -43.059  54.704 -56.671  1.00  0.00     0.213 C 
ENDBRANCH  17  19
ENDBRANCH  11  17
ENDBRANCH   3   6
ENDBRANCH   1   2
BRANCH   1  21
HETATM   21  N   UNL     1     -43.196  60.492 -52.215  1.00  0.00     0.100 N 
HETATM   22  C   UNL     1     -43.978  60.098 -51.016  1.00  0.00     0.293 C 
HETATM   23  C   UNL     1     -44.520  58.654 -51.028  1.00  0.00     0.156 C 
HETATM   24  N   UNL     1     -43.512  57.657 -51.402  1.00  0.00    -0.344 N 
HETATM   25  C   UNL     1     -43.757  56.328 -51.018  1.00  0.00     0.262 C 
HETATM   26  C   UNL     1     -42.613  58.027 -52.500  1.00  0.00     0.156 C 
HETATM   27  O   UNL     1     -44.691  56.046 -50.267  1.00  0.00    -0.267 OA
HETATM   28  C   UNL     1     -42.134  59.487 -52.423  1.00  0.00     0.293 C 
BRANCH  25  29
HETATM   29  C   UNL     1     -42.854  55.306 -51.499  1.00  0.00     0.096 A 
HETATM   30  S   UNL     1     -43.127  54.566 -53.008  1.00  0.00    -0.082 SA
HETATM   31  C   UNL     1     -41.759  53.533 -52.836  1.00  0.00     0.019 A 
HETATM   32  C   UNL     1     -41.130  53.717 -51.600  1.00  0.00     0.004 A 
HETATM   33  C   UNL     1     -41.290  52.593 -53.776  1.00  0.00     0.043 A 
HETATM   34  C   UNL     1     -41.786  54.746 -50.836  1.00  0.00     0.068 A 
HETATM   35  C   UNL     1     -40.001  52.906 -51.305  1.00  0.00     0.016 A 
HETATM   36 CL   UNL     1     -41.250  55.219 -49.273  1.00  0.00    -0.082 Cl
HETATM   37  C   UNL     1     -39.534  51.968 -52.232  1.00  0.00     0.025 A 
HETATM   38  C   UNL     1     -40.172  51.823 -53.454  1.00  0.00     0.035 A 
HETATM   39 CL   UNL     1     -39.580  50.675 -54.591  1.00  0.00    -0.084 Cl
ENDBRANCH  25  29
ENDBRANCH   1  21
TORSDOF 7
ENDMDL
MODEL 9
REMARK VINA RESULT:      -7.4      5.653      9.933
REMARK  7 active torsions:
REMARK  status: ('A' for Active; 'I' for Inactive)
REMARK    1  A    between atoms: C_3  and  C_4 
REMARK       I    between atoms: C_4  and  N_5 
REMARK    2  A    between atoms: C_8  and  N_9 
REMARK       I    between atoms: N_9  and  C_10 
REMARK    3  A    between atoms: C_10  and  C_11 
REMARK    4  A    between atoms: C_11  and  N_12 
REMARK       I    between atoms: N_15  and  C_16 
REMARK    5  A    between atoms: C_16  and  C_17 
REMARK    6  A    between atoms: C_32  and  C_33 
REMARK    7  A    between atoms: C_33  and  O_34 
ROOT
HETATM    1  C   UNL     1     -44.062  59.539 -52.717  1.00  0.00     0.375 C 
ENDROOT
BRANCH   1   2
HETATM    2  C   UNL     1     -42.868  58.582 -52.587  1.00  0.00     0.251 C 
HETATM    3  N   UNL     1     -43.256  57.320 -52.174  1.00  0.00    -0.319 N 
HETATM    4  H   UNL     1     -44.254  57.156 -52.106  1.00  0.00     0.169 HD
HETATM    5  O   UNL     1     -41.743  58.920 -52.940  1.00  0.00    -0.271 OA
BRANCH   3   6
HETATM    6  C   UNL     1     -42.427  56.221 -52.176  1.00  0.00     0.094 C 
HETATM    7  S   UNL     1     -41.685  55.998 -50.669  1.00  0.00    -0.065 SA
HETATM    8  C   UNL     1     -41.077  54.456 -51.108  1.00  0.00     0.081 C 
HETATM    9  C   UNL     1     -41.305  54.194 -52.458  1.00  0.00    -0.020 C 
HETATM   10  C   UNL     1     -40.816  52.972 -53.184  1.00  0.00     0.051 C 
HETATM   11  C   UNL     1     -42.073  55.260 -53.100  1.00  0.00     0.080 C 
BRANCH   8  12
HETATM   12  C   UNL     1     -40.409  53.611 -50.120  1.00  0.00     0.256 C 
HETATM   13  N   UNL     1     -39.631  54.241 -49.188  1.00  0.00    -0.365 N 
HETATM   14  H   UNL     1     -39.523  55.244 -49.168  1.00  0.00     0.159 HD
HETATM   15  H   UNL     1     -39.177  53.670 -48.490  1.00  0.00     0.159 HD
HETATM   16  O   UNL     1     -40.502  52.388 -50.064  1.00  0.00    -0.267 OA
ENDBRANCH   8  12
BRANCH  11  17
HETATM   17  C   UNL     1     -42.388  55.309 -54.528  1.00  0.00     0.296 C 
HETATM   18  O   UNL     1     -43.203  54.565 -55.065  1.00  0.00    -0.259 OA
BRANCH  17  19
HETATM   19  O   UNL     1     -41.567  56.166 -55.209  1.00  0.00    -0.322 OA
HETATM   20  C   UNL     1     -42.266  57.132 -55.992  1.00  0.00     0.213 C 
ENDBRANCH  17  19
ENDBRANCH  11  17
ENDBRANCH   3   6
ENDBRANCH   1   2
BRANCH   1  21
HETATM   21  N   UNL     1     -44.561  59.943 -51.383  1.00  0.00     0.100 N 
HETATM   22  C   UNL     1     -44.149  61.330 -51.052  1.00  0.00     0.293 C 
HETATM   23  C   UNL     1     -44.843  62.438 -51.871  1.00  0.00     0.156 C 
HETATM   24  N   UNL     1     -46.299  62.280 -51.948  1.00  0.00    -0.344 N 
HETATM   25  C   UNL     1     -47.048  63.425 -52.263  1.00  0.00     0.262 C 
HETATM   26  C   UNL     1     -46.791  60.912 -52.147  1.00  0.00     0.156 C 
HETATM   27  O   UNL     1     -46.520  64.535 -52.314  1.00  0.00    -0.267 OA
HETATM   28  C   UNL     1     -46.034  59.869 -51.307  1.00  0.00     0.293 C 
BRANCH  25  29
HETATM   29  C   UNL     1     -48.468  63.266 -52.487  1.00  0.00     0.096 A 
HETATM   30  S   UNL     1     -49.057  62.953 -54.054  1.00  0.00    -0.082 SA
HETATM   31  C   UNL     1     -50.694  62.942 -53.522  1.00  0.00     0.019 A 
HETATM   32  C   UNL     1     -50.791  63.232 -52.156  1.00  0.00     0.004 A 
HETATM   33  C   UNL     1     -51.835  62.691 -54.311  1.00  0.00     0.043 A 
HETATM   34  C   UNL     1     -49.487  63.424 -51.576  1.00  0.00     0.068 A 
HETATM   35  C   UNL     1     -52.090  63.289 -51.583  1.00  0.00     0.016 A 
HETATM   36 CL   UNL     1     -49.261  63.787 -49.912  1.00  0.00    -0.082 Cl
HETATM   37  C   UNL     1     -53.226  63.046 -52.362  1.00  0.00     0.025 A 
HETATM   38  C   UNL     1     -53.092  62.745 -53.708  1.00  0.00     0.035 A 
HETATM   39 CL   UNL     1     -54.497  62.436 -54.654  1.00  0.00    -0.084 Cl
ENDBRANCH  25  29
ENDBRANCH   1  21
TORSDOF 7
ENDMDL
MODEL 10
REMARK VINA RESULT:      -7.3      2.615      3.195
REMARK  7 active torsions:
REMARK  status: ('A' for Active; 'I' for Inactive)
REMARK    1  A    between atoms: C_3  and  C_4 
REMARK       I    between atoms: C_4  and  N_5 
REMARK    2  A    between atoms: C_8  and  N_9 
REMARK       I    between atoms: N_9  and  C_10 
REMARK    3  A    between atoms: C_10  and  C_11 
REMARK    4  A    between atoms: C_11  and  N_12 
REMARK       I    between atoms: N_15  and  C_16 
REMARK    5  A    between atoms: C_16  and  C_17 
REMARK    6  A    between atoms: C_32  and  C_33 
REMARK    7  A    between atoms: C_33  and  O_34 
ROOT
HETATM    1  C   UNL     1     -43.861  59.743 -55.909  1.00  0.00     0.375 C 
ENDROOT
BRANCH   1   2
HETATM    2  C   UNL     1     -43.625  60.675 -57.106  1.00  0.00     0.251 C 
HETATM    3  N   UNL     1     -42.762  60.121 -58.035  1.00  0.00    -0.319 N 
HETATM    4  H   UNL     1     -42.479  59.162 -57.868  1.00  0.00     0.169 HD
HETATM    5  O   UNL     1     -44.252  61.724 -57.227  1.00  0.00    -0.271 OA
BRANCH   3   6
HETATM    6  C   UNL     1     -42.542  60.644 -59.288  1.00  0.00     0.094 C 
HETATM    7  S   UNL     1     -43.446  59.831 -60.470  1.00  0.00    -0.065 SA
HETATM    8  C   UNL     1     -43.066  60.992 -61.672  1.00  0.00     0.081 C 
HETATM    9  C   UNL     1     -42.118  61.902 -61.208  1.00  0.00    -0.020 C 
HETATM   10  C   UNL     1     -41.500  62.990 -62.041  1.00  0.00     0.051 C 
HETATM   11  C   UNL     1     -41.780  61.671 -59.804  1.00  0.00     0.080 C 
BRANCH   8  12
HETATM   12  C   UNL     1     -43.700  60.935 -62.987  1.00  0.00     0.256 C 
HETATM   13  N   UNL     1     -45.061  60.795 -63.016  1.00  0.00    -0.365 N 
HETATM   14  H   UNL     1     -45.613  60.742 -62.173  1.00  0.00     0.159 HD
HETATM   15  H   UNL     1     -45.513  60.770 -63.919  1.00  0.00     0.159 HD
HETATM   16  O   UNL     1     -43.104  61.009 -64.059  1.00  0.00    -0.267 OA
ENDBRANCH   8  12
BRANCH  11  17
HETATM   17  C   UNL     1     -40.751  62.408 -59.068  1.00  0.00     0.296 C 
HETATM   18  O   UNL     1     -39.871  61.863 -58.411  1.00  0.00    -0.259 OA
BRANCH  17  19
HETATM   19  O   UNL     1     -40.977  63.758 -59.077  1.00  0.00    -0.322 OA
HETATM   20  C   UNL     1     -41.905  64.192 -58.086  1.00  0.00     0.213 C 
ENDBRANCH  17  19
ENDBRANCH  11  17
ENDBRANCH   3   6
ENDBRANCH   1   2
BRANCH   1  21
HETATM   21  N   UNL     1     -42.860  59.986 -54.846  1.00  0.00     0.100 N 
HETATM   22  C   UNL     1     -43.498  60.041 -53.507  1.00  0.00     0.293 C 
HETATM   23  C   UNL     1     -44.033  58.694 -52.976  1.00  0.00     0.156 C 
HETATM   24  N   UNL     1     -43.071  57.595 -53.103  1.00  0.00    -0.344 N 
HETATM   25  C   UNL     1     -43.266  56.479 -52.273  1.00  0.00     0.262 C 
HETATM   26  C   UNL     1     -42.305  57.548 -54.353  1.00  0.00     0.156 C 
HETATM   27  O   UNL     1     -44.107  56.496 -51.375  1.00  0.00    -0.267 OA
HETATM   28  C   UNL     1     -41.825  58.933 -54.821  1.00  0.00     0.293 C 
BRANCH  25  29
HETATM   29  C   UNL     1     -42.421  55.324 -52.480  1.00  0.00     0.096 A 
HETATM   30  S   UNL     1     -42.638  54.341 -53.853  1.00  0.00    -0.082 SA
HETATM   31  C   UNL     1     -41.384  53.262 -53.376  1.00  0.00     0.019 A 
HETATM   32  C   UNL     1     -40.838  53.625 -52.139  1.00  0.00     0.004 A 
HETATM   33  C   UNL     1     -40.926  52.134 -54.088  1.00  0.00     0.043 A 
HETATM   34  C   UNL     1     -41.460  54.821 -51.633  1.00  0.00     0.068 A 
HETATM   35  C   UNL     1     -39.811  52.803 -51.603  1.00  0.00     0.016 A 
HETATM   36 CL   UNL     1     -41.008  55.534 -50.136  1.00  0.00    -0.082 Cl
HETATM   37  C   UNL     1     -39.356  51.680 -52.302  1.00  0.00     0.025 A 
HETATM   38  C   UNL     1     -39.908  51.359 -53.532  1.00  0.00     0.035 A 
HETATM   39 CL   UNL     1     -39.331  49.982 -54.389  1.00  0.00    -0.084 Cl
ENDBRANCH  25  29
ENDBRANCH   1  21
TORSDOF 7
ENDMDL
