MODEL 1
REMARK VINA RESULT:      -8.5      0.000      0.000
REMARK  8 active torsions:
REMARK  status: ('A' for Active; 'I' for Inactive)
REMARK    1  A    between atoms: O_2  and  C_3 
REMARK    2  A    between atoms: C_4  and  O_5 
REMARK    3  A    between atoms: C_13  and  C_14 
REMARK    4  A    between atoms: C_14  and  N_15 
REMARK    5  A    between atoms: N_15  and  C_16 
REMARK    6  A    between atoms: C_17  and  C_18 
REMARK       I    between atoms: C_18  and  N_19 
REMARK    7  A    between atoms: N_19  and  C_20 
REMARK    8  A    between atoms: C_20  and  C_21 
ROOT
HETATM    1  N   UNL     1     -40.878  54.404 -53.672  1.00  0.00    -0.285 NA
HETATM    2  H   UNL     1     -40.762  55.093 -52.921  1.00  0.00     0.128 HD
ENDROOT
BRANCH   1   3
HETATM    3  C   UNL     1     -42.248  54.437 -54.217  1.00  0.00     0.171 C 
BRANCH   3   4
HETATM    4  C   UNL     1     -42.453  55.450 -55.338  1.00  0.00     0.120 A 
HETATM    5  N   UNL     1     -42.200  56.770 -55.081  1.00  0.00    -0.310 N 
HETATM    6  C   UNL     1     -42.340  57.756 -56.026  1.00  0.00     0.259 A 
HETATM    7  H   UNL     1     -41.860  57.061 -54.172  1.00  0.00     0.170 HD
HETATM    8  C   UNL     1     -42.780  57.312 -57.357  1.00  0.00     0.064 A 
HETATM    9  O   UNL     1     -42.108  58.936 -55.799  1.00  0.00    -0.267 OA
HETATM   10  C   UNL     1     -43.014  55.951 -57.533  1.00  0.00     0.077 A 
HETATM   11  C   UNL     1     -42.931  58.215 -58.409  1.00  0.00     0.059 A 
HETATM   12  C   UNL     1     -43.417  55.497 -58.791  1.00  0.00     0.072 A 
HETATM   13  N   UNL     1     -42.853  55.021 -56.495  1.00  0.00    -0.233 NA
HETATM   14  C   UNL     1     -43.590  56.390 -59.859  1.00  0.00     0.103 A 
HETATM   15  C   UNL     1     -43.307  57.753 -59.672  1.00  0.00     0.102 A 
BRANCH  14  16
HETATM   16  O   UNL     1     -43.995  55.967 -61.098  1.00  0.00    -0.353 OA
HETATM   17  C   UNL     1     -45.104  55.073 -61.098  1.00  0.00     0.210 C 
ENDBRANCH  14  16
BRANCH  15  18
HETATM   18  O   UNL     1     -43.430  58.742 -60.613  1.00  0.00    -0.353 OA
HETATM   19  C   UNL     1     -42.236  59.461 -60.905  1.00  0.00     0.210 C 
ENDBRANCH  15  18
ENDBRANCH   3   4
ENDBRANCH   1   3
BRANCH   1  20
HETATM   20  C   UNL     1     -40.424  53.152 -53.158  1.00  0.00     0.024 A 
HETATM   21  C   UNL     1     -40.179  52.975 -51.772  1.00  0.00     0.053 A 
HETATM   22  C   UNL     1     -39.761  51.728 -51.268  1.00  0.00     0.019 A 
HETATM   23  C   UNL     1     -39.555  50.647 -52.118  1.00  0.00     0.001 A 
HETATM   24  C   UNL     1     -39.766  50.804 -53.479  1.00  0.00     0.002 A 
HETATM   25  C   UNL     1     -40.192  52.037 -53.990  1.00  0.00     0.024 A 
BRANCH  21  26
HETATM   26  C   UNL     1     -40.297  54.061 -50.756  1.00  0.00     0.253 C 
HETATM   27  N   UNL     1     -41.395  54.875 -50.870  1.00  0.00    -0.351 N 
HETATM   28  H   UNL     1     -42.091  54.648 -51.573  1.00  0.00     0.163 HD
HETATM   29  O   UNL     1     -39.423  54.221 -49.913  1.00  0.00    -0.268 OA
BRANCH  27  30
HETATM   30  C   UNL     1     -41.606  56.008 -50.003  1.00  0.00     0.187 C 
BRANCH  30  31
HETATM   31  C   UNL     1     -41.189  57.238 -50.713  1.00  0.00     0.070 A 
HETATM   32  O   UNL     1     -41.136  57.167 -52.071  1.00  0.00    -0.325 OA
HETATM   33  C   UNL     1     -40.698  58.373 -52.516  1.00  0.00     0.142 A 
HETATM   34  C   UNL     1     -40.489  59.229 -51.460  1.00  0.00     0.027 A 
HETATM   35  C   UNL     1     -40.811  58.497 -50.292  1.00  0.00     0.036 A 
ENDBRANCH  30  31
ENDBRANCH  27  30
ENDBRANCH  21  26
ENDBRANCH   1  20
TORSDOF 8
ENDMDL
MODEL 2
REMARK VINA RESULT:      -8.2      2.876      5.018
REMARK  8 active torsions:
REMARK  status: ('A' for Active; 'I' for Inactive)
REMARK    1  A    between atoms: O_2  and  C_3 
REMARK    2  A    between atoms: C_4  and  O_5 
REMARK    3  A    between atoms: C_13  and  C_14 
REMARK    4  A    between atoms: C_14  and  N_15 
REMARK    5  A    between atoms: N_15  and  C_16 
REMARK    6  A    between atoms: C_17  and  C_18 
REMARK       I    between atoms: C_18  and  N_19 
REMARK    7  A    between atoms: N_19  and  C_20 
REMARK    8  A    between atoms: C_20  and  C_21 
ROOT
HETATM    1  N   UNL     1     -41.113  54.593 -53.676  1.00  0.00    -0.285 NA
HETATM    2  H   UNL     1     -40.992  55.228 -52.878  1.00  0.00     0.128 HD
ENDROOT
BRANCH   1   3
HETATM    3  C   UNL     1     -42.503  54.613 -54.165  1.00  0.00     0.171 C 
BRANCH   3   4
HETATM    4  C   UNL     1     -43.217  55.947 -53.976  1.00  0.00     0.120 A 
HETATM    5  N   UNL     1     -43.319  56.791 -55.047  1.00  0.00    -0.310 N 
HETATM    6  C   UNL     1     -43.955  58.007 -54.983  1.00  0.00     0.259 A 
HETATM    7  H   UNL     1     -42.951  56.522 -55.951  1.00  0.00     0.170 HD
HETATM    8  C   UNL     1     -44.535  58.360 -53.679  1.00  0.00     0.064 A 
HETATM    9  O   UNL     1     -44.053  58.760 -55.943  1.00  0.00    -0.267 OA
HETATM   10  C   UNL     1     -44.386  57.444 -52.643  1.00  0.00     0.077 A 
HETATM   11  C   UNL     1     -45.230  59.555 -53.495  1.00  0.00     0.059 A 
HETATM   12  C   UNL     1     -44.941  57.744 -51.396  1.00  0.00     0.072 A 
HETATM   13  N   UNL     1     -43.705  56.227 -52.808  1.00  0.00    -0.233 NA
HETATM   14  C   UNL     1     -45.631  58.946 -51.185  1.00  0.00     0.103 A 
HETATM   15  C   UNL     1     -45.807  59.839 -52.255  1.00  0.00     0.102 A 
BRANCH  14  16
HETATM   16  O   UNL     1     -46.174  59.266 -49.967  1.00  0.00    -0.353 OA
HETATM   17  C   UNL     1     -45.406  60.175 -49.185  1.00  0.00     0.210 C 
ENDBRANCH  14  16
BRANCH  15  18
HETATM   18  O   UNL     1     -46.453  61.047 -52.204  1.00  0.00    -0.353 OA
HETATM   19  C   UNL     1     -45.615  62.194 -52.310  1.00  0.00     0.210 C 
ENDBRANCH  15  18
ENDBRANCH   3   4
ENDBRANCH   1   3
BRANCH   1  20
HETATM   20  C   UNL     1     -40.594  53.324 -53.275  1.00  0.00     0.024 A 
HETATM   21  C   UNL     1     -40.205  53.083 -51.932  1.00  0.00     0.053 A 
HETATM   22  C   UNL     1     -39.723  51.819 -51.538  1.00  0.00     0.019 A 
HETATM   23  C   UNL     1     -39.593  50.786 -52.460  1.00  0.00     0.001 A 
HETATM   24  C   UNL     1     -39.946  51.007 -53.782  1.00  0.00     0.002 A 
HETATM   25  C   UNL     1     -40.436  52.257 -54.183  1.00  0.00     0.024 A 
BRANCH  21  26
HETATM   26  C   UNL     1     -40.230  54.115 -50.855  1.00  0.00     0.253 C 
HETATM   27  N   UNL     1     -41.208  55.071 -50.960  1.00  0.00    -0.351 N 
HETATM   28  H   UNL     1     -41.894  54.978 -51.703  1.00  0.00     0.163 HD
HETATM   29  O   UNL     1     -39.383  54.110 -49.970  1.00  0.00    -0.268 OA
BRANCH  27  30
HETATM   30  C   UNL     1     -41.313  56.170 -50.033  1.00  0.00     0.187 C 
BRANCH  30  31
HETATM   31  C   UNL     1     -41.184  57.441 -50.780  1.00  0.00     0.070 A 
HETATM   32  O   UNL     1     -40.737  57.349 -52.063  1.00  0.00    -0.325 OA
HETATM   33  C   UNL     1     -40.654  58.615 -52.548  1.00  0.00     0.142 A 
HETATM   34  C   UNL     1     -41.064  59.521 -51.598  1.00  0.00     0.027 A 
HETATM   35  C   UNL     1     -41.411  58.763 -50.455  1.00  0.00     0.036 A 
ENDBRANCH  30  31
ENDBRANCH  27  30
ENDBRANCH  21  26
ENDBRANCH   1  20
TORSDOF 8
ENDMDL
MODEL 3
REMARK VINA RESULT:      -8.0      1.587      2.070
REMARK  8 active torsions:
REMARK  status: ('A' for Active; 'I' for Inactive)
REMARK    1  A    between atoms: O_2  and  C_3 
REMARK    2  A    between atoms: C_4  and  O_5 
REMARK    3  A    between atoms: C_13  and  C_14 
REMARK    4  A    between atoms: C_14  and  N_15 
REMARK    5  A    between atoms: N_15  and  C_16 
REMARK    6  A    between atoms: C_17  and  C_18 
REMARK       I    between atoms: C_18  and  N_19 
REMARK    7  A    between atoms: N_19  and  C_20 
REMARK    8  A    between atoms: C_20  and  C_21 
ROOT
HETATM    1  N   UNL     1     -40.773  53.693 -53.927  1.00  0.00    -0.285 NA
HETATM    2  H   UNL     1     -40.832  54.468 -53.257  1.00  0.00     0.128 HD
ENDROOT
BRANCH   1   3
HETATM    3  C   UNL     1     -42.025  53.554 -54.692  1.00  0.00     0.171 C 
BRANCH   3   4
HETATM    4  C   UNL     1     -42.663  54.878 -55.098  1.00  0.00     0.120 A 
HETATM    5  N   UNL     1     -43.508  55.493 -54.216  1.00  0.00    -0.310 N 
HETATM    6  C   UNL     1     -44.120  56.694 -54.480  1.00  0.00     0.259 A 
HETATM    7  H   UNL     1     -43.685  55.088 -53.305  1.00  0.00     0.170 HD
HETATM    8  C   UNL     1     -43.810  57.299 -55.784  1.00  0.00     0.064 A 
HETATM    9  O   UNL     1     -44.872  57.248 -53.689  1.00  0.00    -0.267 OA
HETATM   10  C   UNL     1     -42.940  56.607 -56.620  1.00  0.00     0.077 A 
HETATM   11  C   UNL     1     -44.348  58.531 -56.157  1.00  0.00     0.059 A 
HETATM   12  C   UNL     1     -42.614  57.164 -57.859  1.00  0.00     0.072 A 
HETATM   13  N   UNL     1     -42.374  55.374 -56.261  1.00  0.00    -0.233 NA
HETATM   14  C   UNL     1     -43.154  58.395 -58.260  1.00  0.00     0.103 A 
HETATM   15  C   UNL     1     -43.998  59.098 -57.384  1.00  0.00     0.102 A 
BRANCH  14  16
HETATM   16  O   UNL     1     -42.856  58.955 -59.475  1.00  0.00    -0.353 OA
HETATM   17  C   UNL     1     -41.991  58.181 -60.301  1.00  0.00     0.210 C 
ENDBRANCH  14  16
BRANCH  15  18
HETATM   18  O   UNL     1     -44.601  60.303 -57.633  1.00  0.00    -0.353 OA
HETATM   19  C   UNL     1     -43.944  61.442 -57.084  1.00  0.00     0.210 C 
ENDBRANCH  15  18
ENDBRANCH   3   4
ENDBRANCH   1   3
BRANCH   1  20
HETATM   20  C   UNL     1     -40.340  52.546 -53.194  1.00  0.00     0.024 A 
HETATM   21  C   UNL     1     -40.204  52.588 -51.783  1.00  0.00     0.053 A 
HETATM   22  C   UNL     1     -39.807  51.443 -51.063  1.00  0.00     0.019 A 
HETATM   23  C   UNL     1     -39.515  50.253 -51.720  1.00  0.00     0.001 A 
HETATM   24  C   UNL     1     -39.620  50.197 -53.101  1.00  0.00     0.002 A 
HETATM   25  C   UNL     1     -40.024  51.326 -53.826  1.00  0.00     0.024 A 
BRANCH  21  26
HETATM   26  C   UNL     1     -40.422  53.811 -50.957  1.00  0.00     0.253 C 
HETATM   27  N   UNL     1     -41.532  54.555 -51.264  1.00  0.00    -0.351 N 
HETATM   28  H   UNL     1     -42.172  54.196 -51.964  1.00  0.00     0.163 HD
HETATM   29  O   UNL     1     -39.611  54.131 -50.095  1.00  0.00    -0.268 OA
BRANCH  27  30
HETATM   30  C   UNL     1     -41.834  55.798 -50.598  1.00  0.00     0.187 C 
BRANCH  30  31
HETATM   31  C   UNL     1     -41.622  56.913 -51.547  1.00  0.00     0.070 A 
HETATM   32  O   UNL     1     -40.975  56.610 -52.706  1.00  0.00    -0.325 OA
HETATM   33  C   UNL     1     -40.850  57.767 -53.407  1.00  0.00     0.142 A 
HETATM   34  C   UNL     1     -41.429  58.808 -52.722  1.00  0.00     0.027 A 
HETATM   35  C   UNL     1     -41.933  58.258 -51.520  1.00  0.00     0.036 A 
ENDBRANCH  30  31
ENDBRANCH  27  30
ENDBRANCH  21  26
ENDBRANCH   1  20
TORSDOF 8
ENDMDL
MODEL 4
REMARK VINA RESULT:      -7.8      3.193      4.199
REMARK  8 active torsions:
REMARK  status: ('A' for Active; 'I' for Inactive)
REMARK    1  A    between atoms: O_2  and  C_3 
REMARK    2  A    between atoms: C_4  and  O_5 
REMARK    3  A    between atoms: C_13  and  C_14 
REMARK    4  A    between atoms: C_14  and  N_15 
REMARK    5  A    between atoms: N_15  and  C_16 
REMARK    6  A    between atoms: C_17  and  C_18 
REMARK       I    between atoms: C_18  and  N_19 
REMARK    7  A    between atoms: N_19  and  C_20 
REMARK    8  A    between atoms: C_20  and  C_21 
ROOT
HETATM    1  N   UNL     1     -41.352  54.487 -53.775  1.00  0.00    -0.285 NA
HETATM    2  H   UNL     1     -41.040  55.285 -53.210  1.00  0.00     0.128 HD
ENDROOT
BRANCH   1   3
HETATM    3  C   UNL     1     -42.822  54.442 -53.866  1.00  0.00     0.171 C 
BRANCH   3   4
HETATM    4  C   UNL     1     -43.512  55.761 -53.538  1.00  0.00     0.120 A 
HETATM    5  N   UNL     1     -43.908  55.988 -52.249  1.00  0.00    -0.310 N 
HETATM    6  C   UNL     1     -44.523  57.149 -51.848  1.00  0.00     0.259 A 
HETATM    7  H   UNL     1     -43.723  55.304 -51.526  1.00  0.00     0.170 HD
HETATM    8  C   UNL     1     -44.735  58.158 -52.897  1.00  0.00     0.064 A 
HETATM    9  O   UNL     1     -44.872  57.356 -50.694  1.00  0.00    -0.267 OA
HETATM   10  C   UNL     1     -44.301  57.847 -54.182  1.00  0.00     0.077 A 
HETATM   11  C   UNL     1     -45.324  59.389 -52.610  1.00  0.00     0.059 A 
HETATM   12  C   UNL     1     -44.473  58.792 -55.197  1.00  0.00     0.072 A 
HETATM   13  N   UNL     1     -43.691  56.621 -54.492  1.00  0.00    -0.233 NA
HETATM   14  C   UNL     1     -45.076  60.030 -54.933  1.00  0.00     0.103 A 
HETATM   15  C   UNL     1     -45.468  60.342 -53.621  1.00  0.00     0.102 A 
BRANCH  14  16
HETATM   16  O   UNL     1     -45.264  60.967 -55.915  1.00  0.00    -0.353 OA
HETATM   17  C   UNL     1     -46.268  60.645 -56.873  1.00  0.00     0.210 C 
ENDBRANCH  14  16
BRANCH  15  18
HETATM   18  O   UNL     1     -46.069  61.504 -53.210  1.00  0.00    -0.353 OA
HETATM   19  C   UNL     1     -46.124  61.699 -51.800  1.00  0.00     0.210 C 
ENDBRANCH  15  18
ENDBRANCH   3   4
ENDBRANCH   1   3
BRANCH   1  20
HETATM   20  C   UNL     1     -40.707  53.329 -53.243  1.00  0.00     0.024 A 
HETATM   21  C   UNL     1     -40.573  53.144 -51.843  1.00  0.00     0.053 A 
HETATM   22  C   UNL     1     -39.965  51.984 -51.324  1.00  0.00     0.019 A 
HETATM   23  C   UNL     1     -39.459  51.004 -52.172  1.00  0.00     0.001 A 
HETATM   24  C   UNL     1     -39.560  51.175 -53.544  1.00  0.00     0.002 A 
HETATM   25  C   UNL     1     -40.173  52.320 -54.070  1.00  0.00     0.024 A 
BRANCH  21  26
HETATM   26  C   UNL     1     -41.010  54.139 -50.821  1.00  0.00     0.253 C 
HETATM   27  N   UNL     1     -40.721  55.452 -51.097  1.00  0.00    -0.351 N 
HETATM   28  H   UNL     1     -40.310  55.674 -51.998  1.00  0.00     0.163 HD
HETATM   29  O   UNL     1     -41.548  53.770 -49.784  1.00  0.00    -0.268 OA
BRANCH  27  30
HETATM   30  C   UNL     1     -41.020  56.517 -50.172  1.00  0.00     0.187 C 
BRANCH  30  31
HETATM   31  C   UNL     1     -41.184  57.778 -50.930  1.00  0.00     0.070 A 
HETATM   32  O   UNL     1     -40.984  57.708 -52.275  1.00  0.00    -0.325 OA
HETATM   33  C   UNL     1     -41.142  58.964 -52.766  1.00  0.00     0.142 A 
HETATM   34  C   UNL     1     -41.463  59.839 -51.756  1.00  0.00     0.027 A 
HETATM   35  C   UNL     1     -41.495  59.072 -50.566  1.00  0.00     0.036 A 
ENDBRANCH  30  31
ENDBRANCH  27  30
ENDBRANCH  21  26
ENDBRANCH   1  20
TORSDOF 8
ENDMDL
MODEL 5
REMARK VINA RESULT:      -7.7      1.928      3.085
REMARK  8 active torsions:
REMARK  status: ('A' for Active; 'I' for Inactive)
REMARK    1  A    between atoms: O_2  and  C_3 
REMARK    2  A    between atoms: C_4  and  O_5 
REMARK    3  A    between atoms: C_13  and  C_14 
REMARK    4  A    between atoms: C_14  and  N_15 
REMARK    5  A    between atoms: N_15  and  C_16 
REMARK    6  A    between atoms: C_17  and  C_18 
REMARK       I    between atoms: C_18  and  N_19 
REMARK    7  A    between atoms: N_19  and  C_20 
REMARK    8  A    between atoms: C_20  and  C_21 
ROOT
HETATM    1  N   UNL     1     -41.736  54.631 -54.021  1.00  0.00    -0.285 NA
HETATM    2  H   UNL     1     -42.177  55.089 -53.216  1.00  0.00     0.128 HD
ENDROOT
BRANCH   1   3
HETATM    3  C   UNL     1     -42.732  54.299 -55.056  1.00  0.00     0.171 C 
BRANCH   3   4
HETATM    4  C   UNL     1     -42.815  55.310 -56.194  1.00  0.00     0.120 A 
HETATM    5  N   UNL     1     -43.328  54.903 -57.394  1.00  0.00    -0.310 N 
HETATM    6  C   UNL     1     -43.459  55.740 -58.475  1.00  0.00     0.259 A 
HETATM    7  H   UNL     1     -43.668  53.956 -57.513  1.00  0.00     0.170 HD
HETATM    8  C   UNL     1     -43.014  57.126 -58.270  1.00  0.00     0.064 A 
HETATM    9  O   UNL     1     -43.925  55.378 -59.547  1.00  0.00    -0.267 OA
HETATM   10  C   UNL     1     -42.506  57.457 -57.018  1.00  0.00     0.077 A 
HETATM   11  C   UNL     1     -43.122  58.079 -59.284  1.00  0.00     0.059 A 
HETATM   12  C   UNL     1     -42.090  58.771 -56.788  1.00  0.00     0.072 A 
HETATM   13  N   UNL     1     -42.402  56.521 -55.978  1.00  0.00    -0.233 NA
HETATM   14  C   UNL     1     -42.175  59.741 -57.798  1.00  0.00     0.103 A 
HETATM   15  C   UNL     1     -42.732  59.397 -59.041  1.00  0.00     0.102 A 
BRANCH  14  16
HETATM   16  O   UNL     1     -41.764  61.033 -57.597  1.00  0.00    -0.353 OA
HETATM   17  C   UNL     1     -42.741  61.895 -57.021  1.00  0.00     0.210 C 
ENDBRANCH  14  16
BRANCH  15  18
HETATM   18  O   UNL     1     -42.880  60.230 -60.120  1.00  0.00    -0.353 OA
HETATM   19  C   UNL     1     -41.940  60.041 -61.173  1.00  0.00     0.210 C 
ENDBRANCH  15  18
ENDBRANCH   3   4
ENDBRANCH   1   3
BRANCH   1  20
HETATM   20  C   UNL     1     -40.963  53.546 -53.506  1.00  0.00     0.024 A 
HETATM   21  C   UNL     1     -40.905  53.285 -52.112  1.00  0.00     0.053 A 
HETATM   22  C   UNL     1     -40.166  52.194 -51.614  1.00  0.00     0.019 A 
HETATM   23  C   UNL     1     -39.456  51.362 -52.472  1.00  0.00     0.001 A 
HETATM   24  C   UNL     1     -39.480  51.612 -53.836  1.00  0.00     0.002 A 
HETATM   25  C   UNL     1     -40.220  52.688 -54.343  1.00  0.00     0.024 A 
BRANCH  21  26
HETATM   26  C   UNL     1     -41.563  54.130 -51.075  1.00  0.00     0.253 C 
HETATM   27  N   UNL     1     -42.918  54.303 -51.209  1.00  0.00    -0.351 N 
HETATM   28  H   UNL     1     -43.397  53.791 -51.943  1.00  0.00     0.163 HD
HETATM   29  O   UNL     1     -40.899  54.665 -50.195  1.00  0.00    -0.268 OA
BRANCH  27  30
HETATM   30  C   UNL     1     -43.677  55.149 -50.322  1.00  0.00     0.187 C 
BRANCH  30  31
HETATM   31  C   UNL     1     -43.981  56.420 -51.017  1.00  0.00     0.070 A 
HETATM   32  O   UNL     1     -45.076  57.104 -50.582  1.00  0.00    -0.325 OA
HETATM   33  C   UNL     1     -45.197  58.204 -51.369  1.00  0.00     0.142 A 
HETATM   34  C   UNL     1     -44.180  58.248 -52.293  1.00  0.00     0.027 A 
HETATM   35  C   UNL     1     -43.390  57.097 -52.065  1.00  0.00     0.036 A 
ENDBRANCH  30  31
ENDBRANCH  27  30
ENDBRANCH  21  26
ENDBRANCH   1  20
TORSDOF 8
ENDMDL
MODEL 6
REMARK VINA RESULT:      -7.7      2.077      3.366
REMARK  8 active torsions:
REMARK  status: ('A' for Active; 'I' for Inactive)
REMARK    1  A    between atoms: O_2  and  C_3 
REMARK    2  A    between atoms: C_4  and  O_5 
REMARK    3  A    between atoms: C_13  and  C_14 
REMARK    4  A    between atoms: C_14  and  N_15 
REMARK    5  A    between atoms: N_15  and  C_16 
REMARK    6  A    between atoms: C_17  and  C_18 
REMARK       I    between atoms: C_18  and  N_19 
REMARK    7  A    between atoms: N_19  and  C_20 
REMARK    8  A    between atoms: C_20  and  C_21 
ROOT
HETATM    1  N   UNL     1     -40.946  53.903 -54.053  1.00  0.00    -0.285 NA
HETATM    2  H   UNL     1     -41.004  54.561 -53.268  1.00  0.00     0.128 HD
ENDROOT
BRANCH   1   3
HETATM    3  C   UNL     1     -42.218  53.848 -54.797  1.00  0.00     0.171 C 
BRANCH   3   4
HETATM    4  C   UNL     1     -42.701  55.198 -55.314  1.00  0.00     0.120 A 
HETATM    5  N   UNL     1     -42.429  55.537 -56.611  1.00  0.00    -0.310 N 
HETATM    6  C   UNL     1     -42.833  56.722 -57.175  1.00  0.00     0.259 A 
HETATM    7  H   UNL     1     -41.938  54.893 -57.219  1.00  0.00     0.170 HD
HETATM    8  C   UNL     1     -43.594  57.624 -56.298  1.00  0.00     0.064 A 
HETATM    9  O   UNL     1     -42.595  57.023 -58.338  1.00  0.00    -0.267 OA
HETATM   10  C   UNL     1     -43.827  57.202 -54.993  1.00  0.00     0.077 A 
HETATM   11  C   UNL     1     -44.083  58.844 -56.763  1.00  0.00     0.059 A 
HETATM   12  C   UNL     1     -44.561  58.030 -54.140  1.00  0.00     0.072 A 
HETATM   13  N   UNL     1     -43.359  55.971 -54.506  1.00  0.00    -0.233 NA
HETATM   14  C   UNL     1     -45.050  59.268 -54.582  1.00  0.00     0.103 A 
HETATM   15  C   UNL     1     -44.840  59.657 -55.916  1.00  0.00     0.102 A 
BRANCH  14  16
HETATM   16  O   UNL     1     -45.763  60.101 -53.760  1.00  0.00    -0.353 OA
HETATM   17  C   UNL     1     -45.618  59.842 -52.367  1.00  0.00     0.210 C 
ENDBRANCH  14  16
BRANCH  15  18
HETATM   18  O   UNL     1     -45.253  60.830 -56.491  1.00  0.00    -0.353 OA
HETATM   19  C   UNL     1     -46.476  60.760 -57.218  1.00  0.00     0.210 C 
ENDBRANCH  15  18
ENDBRANCH   3   4
ENDBRANCH   1   3
BRANCH   1  20
HETATM   20  C   UNL     1     -40.462  52.669 -53.521  1.00  0.00     0.024 A 
HETATM   21  C   UNL     1     -40.182  52.528 -52.137  1.00  0.00     0.053 A 
HETATM   22  C   UNL     1     -39.735  51.298 -51.615  1.00  0.00     0.019 A 
HETATM   23  C   UNL     1     -39.534  50.201 -52.445  1.00  0.00     0.001 A 
HETATM   24  C   UNL     1     -39.779  50.324 -53.804  1.00  0.00     0.002 A 
HETATM   25  C   UNL     1     -40.234  51.539 -54.333  1.00  0.00     0.024 A 
BRANCH  21  26
HETATM   26  C   UNL     1     -40.292  53.635 -51.144  1.00  0.00     0.253 C 
HETATM   27  N   UNL     1     -41.423  54.408 -51.226  1.00  0.00    -0.351 N 
HETATM   28  H   UNL     1     -42.142  54.138 -51.890  1.00  0.00     0.163 HD
HETATM   29  O   UNL     1     -39.386  53.847 -50.347  1.00  0.00    -0.268 OA
BRANCH  27  30
HETATM   30  C   UNL     1     -41.634  55.555 -50.379  1.00  0.00     0.187 C 
BRANCH  30  31
HETATM   31  C   UNL     1     -41.226  56.774 -51.112  1.00  0.00     0.070 A 
HETATM   32  O   UNL     1     -41.141  56.667 -52.467  1.00  0.00    -0.325 OA
HETATM   33  C   UNL     1     -40.717  57.870 -52.935  1.00  0.00     0.142 A 
HETATM   34  C   UNL     1     -40.550  58.758 -51.899  1.00  0.00     0.027 A 
HETATM   35  C   UNL     1     -40.882  58.051 -50.718  1.00  0.00     0.036 A 
ENDBRANCH  30  31
ENDBRANCH  27  30
ENDBRANCH  21  26
ENDBRANCH   1  20
TORSDOF 8
ENDMDL
MODEL 7
REMARK VINA RESULT:      -7.6      1.959      2.421
REMARK  8 active torsions:
REMARK  status: ('A' for Active; 'I' for Inactive)
REMARK    1  A    between atoms: O_2  and  C_3 
REMARK    2  A    between atoms: C_4  and  O_5 
REMARK    3  A    between atoms: C_13  and  C_14 
REMARK    4  A    between atoms: C_14  and  N_15 
REMARK    5  A    between atoms: N_15  and  C_16 
REMARK    6  A    between atoms: C_17  and  C_18 
REMARK       I    between atoms: C_18  and  N_19 
REMARK    7  A    between atoms: N_19  and  C_20 
REMARK    8  A    between atoms: C_20  and  C_21 
ROOT
HETATM    1  N   UNL     1     -42.548  54.405 -53.993  1.00  0.00    -0.285 NA
HETATM    2  H   UNL     1     -43.446  54.083 -53.617  1.00  0.00     0.128 HD
ENDROOT
BRANCH   1   3
HETATM    3  C   UNL     1     -42.624  54.611 -55.451  1.00  0.00     0.171 C 
BRANCH   3   4
HETATM    4  C   UNL     1     -42.487  56.065 -55.888  1.00  0.00     0.120 A 
HETATM    5  N   UNL     1     -42.218  57.011 -54.937  1.00  0.00    -0.310 N 
HETATM    6  C   UNL     1     -42.061  58.343 -55.230  1.00  0.00     0.259 A 
HETATM    7  H   UNL     1     -42.088  56.744 -53.968  1.00  0.00     0.170 HD
HETATM    8  C   UNL     1     -42.196  58.709 -56.648  1.00  0.00     0.064 A 
HETATM    9  O   UNL     1     -41.813  59.189 -54.380  1.00  0.00    -0.267 OA
HETATM   10  C   UNL     1     -42.469  57.685 -57.550  1.00  0.00     0.077 A 
HETATM   11  C   UNL     1     -42.030  60.026 -57.075  1.00  0.00     0.059 A 
HETATM   12  C   UNL     1     -42.587  57.998 -58.906  1.00  0.00     0.072 A 
HETATM   13  N   UNL     1     -42.624  56.349 -57.146  1.00  0.00    -0.233 NA
HETATM   14  C   UNL     1     -42.439  59.319 -59.356  1.00  0.00     0.103 A 
HETATM   15  C   UNL     1     -42.121  60.331 -58.435  1.00  0.00     0.102 A 
BRANCH  14  16
HETATM   16  O   UNL     1     -42.560  59.650 -60.680  1.00  0.00    -0.353 OA
HETATM   17  C   UNL     1     -43.895  59.871 -61.127  1.00  0.00     0.210 C 
ENDBRANCH  14  16
BRANCH  15  18
HETATM   18  O   UNL     1     -41.948  61.660 -58.721  1.00  0.00    -0.353 OA
HETATM   19  C   UNL     1     -40.596  62.097 -58.808  1.00  0.00     0.210 C 
ENDBRANCH  15  18
ENDBRANCH   3   4
ENDBRANCH   1   3
BRANCH   1  20
HETATM   20  C   UNL     1     -41.553  53.492 -53.527  1.00  0.00     0.024 A 
HETATM   21  C   UNL     1     -41.020  53.598 -52.216  1.00  0.00     0.053 A 
HETATM   22  C   UNL     1     -40.063  52.674 -51.752  1.00  0.00     0.019 A 
HETATM   23  C   UNL     1     -39.600  51.653 -52.574  1.00  0.00     0.001 A 
HETATM   24  C   UNL     1     -40.091  51.545 -53.866  1.00  0.00     0.002 A 
HETATM   25  C   UNL     1     -41.050  52.452 -54.335  1.00  0.00     0.024 A 
BRANCH  21  26
HETATM   26  C   UNL     1     -41.377  54.677 -51.252  1.00  0.00     0.253 C 
HETATM   27  N   UNL     1     -41.399  55.953 -51.756  1.00  0.00    -0.351 N 
HETATM   28  H   UNL     1     -41.255  56.078 -52.753  1.00  0.00     0.163 HD
HETATM   29  O   UNL     1     -41.585  54.414 -50.073  1.00  0.00    -0.268 OA
BRANCH  27  30
HETATM   30  C   UNL     1     -41.659  57.104 -50.928  1.00  0.00     0.187 C 
BRANCH  30  31
HETATM   31  C   UNL     1     -42.880  57.782 -51.419  1.00  0.00     0.070 A 
HETATM   32  O   UNL     1     -43.699  57.049 -52.223  1.00  0.00    -0.325 OA
HETATM   33  C   UNL     1     -44.726  57.859 -52.590  1.00  0.00     0.142 A 
HETATM   34  C   UNL     1     -44.588  59.100 -52.014  1.00  0.00     0.027 A 
HETATM   35  C   UNL     1     -43.396  59.051 -51.253  1.00  0.00     0.036 A 
ENDBRANCH  30  31
ENDBRANCH  27  30
ENDBRANCH  21  26
ENDBRANCH   1  20
TORSDOF 8
ENDMDL
MODEL 8
REMARK VINA RESULT:      -7.6      2.257      4.921
REMARK  8 active torsions:
REMARK  status: ('A' for Active; 'I' for Inactive)
REMARK    1  A    between atoms: O_2  and  C_3 
REMARK    2  A    between atoms: C_4  and  O_5 
REMARK    3  A    between atoms: C_13  and  C_14 
REMARK    4  A    between atoms: C_14  and  N_15 
REMARK    5  A    between atoms: N_15  and  C_16 
REMARK    6  A    between atoms: C_17  and  C_18 
REMARK       I    between atoms: C_18  and  N_19 
REMARK    7  A    between atoms: N_19  and  C_20 
REMARK    8  A    between atoms: C_20  and  C_21 
ROOT
HETATM    1  N   UNL     1     -42.480  56.072 -54.216  1.00  0.00    -0.285 NA
HETATM    2  H   UNL     1     -41.810  56.785 -54.525  1.00  0.00     0.128 HD
ENDROOT
BRANCH   1   3
HETATM    3  C   UNL     1     -43.137  55.427 -55.366  1.00  0.00     0.171 C 
BRANCH   3   4
HETATM    4  C   UNL     1     -42.944  56.156 -56.691  1.00  0.00     0.120 A 
HETATM    5  N   UNL     1     -43.248  55.498 -57.850  1.00  0.00    -0.310 N 
HETATM    6  C   UNL     1     -43.123  56.072 -59.092  1.00  0.00     0.259 A 
HETATM    7  H   UNL     1     -43.618  54.555 -57.825  1.00  0.00     0.170 HD
HETATM    8  C   UNL     1     -42.639  57.460 -59.111  1.00  0.00     0.064 A 
HETATM    9  O   UNL     1     -43.402  55.486 -60.129  1.00  0.00    -0.267 OA
HETATM   10  C   UNL     1     -42.354  58.056 -57.886  1.00  0.00     0.077 A 
HETATM   11  C   UNL     1     -42.497  58.161 -60.308  1.00  0.00     0.059 A 
HETATM   12  C   UNL     1     -41.907  59.380 -57.871  1.00  0.00     0.072 A 
HETATM   13  N   UNL     1     -42.504  57.376 -56.667  1.00  0.00    -0.233 NA
HETATM   14  C   UNL     1     -41.743  60.098 -59.064  1.00  0.00     0.103 A 
HETATM   15  C   UNL     1     -42.078  59.493 -60.287  1.00  0.00     0.102 A 
BRANCH  14  16
HETATM   16  O   UNL     1     -41.297  61.394 -59.073  1.00  0.00    -0.353 OA
HETATM   17  C   UNL     1     -41.803  62.214 -58.023  1.00  0.00     0.210 C 
ENDBRANCH  14  16
BRANCH  15  18
HETATM   18  O   UNL     1     -41.970  60.063 -61.528  1.00  0.00    -0.353 OA
HETATM   19  C   UNL     1     -43.145  60.707 -62.011  1.00  0.00     0.210 C 
ENDBRANCH  15  18
ENDBRANCH   3   4
ENDBRANCH   1   3
BRANCH   1  20
HETATM   20  C   UNL     1     -43.335  56.697 -53.257  1.00  0.00     0.024 A 
HETATM   21  C   UNL     1     -43.467  56.176 -51.945  1.00  0.00     0.053 A 
HETATM   22  C   UNL     1     -44.288  56.816 -50.995  1.00  0.00     0.019 A 
HETATM   23  C   UNL     1     -45.007  57.959 -51.328  1.00  0.00     0.001 A 
HETATM   24  C   UNL     1     -44.909  58.472 -52.612  1.00  0.00     0.002 A 
HETATM   25  C   UNL     1     -44.088  57.850 -53.561  1.00  0.00     0.024 A 
BRANCH  21  26
HETATM   26  C   UNL     1     -42.808  54.925 -51.470  1.00  0.00     0.253 C 
HETATM   27  N   UNL     1     -41.436  54.930 -51.471  1.00  0.00    -0.351 N 
HETATM   28  H   UNL     1     -40.959  55.793 -51.711  1.00  0.00     0.163 HD
HETATM   29  O   UNL     1     -43.479  53.950 -51.153  1.00  0.00    -0.268 OA
BRANCH  27  30
HETATM   30  C   UNL     1     -40.661  53.770 -51.105  1.00  0.00     0.187 C 
BRANCH  30  31
HETATM   31  C   UNL     1     -40.324  53.014 -52.331  1.00  0.00     0.070 A 
HETATM   32  O   UNL     1     -40.601  53.624 -53.517  1.00  0.00    -0.325 OA
HETATM   33  C   UNL     1     -40.257  52.754 -54.502  1.00  0.00     0.142 A 
HETATM   34  C   UNL     1     -39.741  51.599 -53.965  1.00  0.00     0.027 A 
HETATM   35  C   UNL     1     -39.780  51.766 -52.560  1.00  0.00     0.036 A 
ENDBRANCH  30  31
ENDBRANCH  27  30
ENDBRANCH  21  26
ENDBRANCH   1  20
TORSDOF 8
ENDMDL
MODEL 9
REMARK VINA RESULT:      -7.5      2.628      8.366
REMARK  8 active torsions:
REMARK  status: ('A' for Active; 'I' for Inactive)
REMARK    1  A    between atoms: O_2  and  C_3 
REMARK    2  A    between atoms: C_4  and  O_5 
REMARK    3  A    between atoms: C_13  and  C_14 
REMARK    4  A    between atoms: C_14  and  N_15 
REMARK    5  A    between atoms: N_15  and  C_16 
REMARK    6  A    between atoms: C_17  and  C_18 
REMARK       I    between atoms: C_18  and  N_19 
REMARK    7  A    between atoms: N_19  and  C_20 
REMARK    8  A    between atoms: C_20  and  C_21 
ROOT
HETATM    1  N   UNL     1     -42.786  58.087 -52.459  1.00  0.00    -0.285 NA
HETATM    2  H   UNL     1     -43.260  57.850 -53.338  1.00  0.00     0.128 HD
ENDROOT
BRANCH   1   3
HETATM    3  C   UNL     1     -43.260  57.234 -51.354  1.00  0.00     0.171 C 
BRANCH   3   4
HETATM    4  C   UNL     1     -42.429  55.975 -51.131  1.00  0.00     0.120 A 
HETATM    5  N   UNL     1     -42.177  55.578 -49.847  1.00  0.00    -0.310 N 
HETATM    6  C   UNL     1     -41.452  54.452 -49.541  1.00  0.00     0.259 A 
HETATM    7  H   UNL     1     -42.556  56.096 -49.064  1.00  0.00     0.170 HD
HETATM    8  C   UNL     1     -40.956  53.677 -50.688  1.00  0.00     0.064 A 
HETATM    9  O   UNL     1     -41.231  54.092 -48.392  1.00  0.00    -0.267 OA
HETATM   10  C   UNL     1     -41.259  54.151 -51.961  1.00  0.00     0.077 A 
HETATM   11  C   UNL     1     -40.231  52.499 -50.507  1.00  0.00     0.059 A 
HETATM   12  C   UNL     1     -40.815  53.428 -53.070  1.00  0.00     0.072 A 
HETATM   13  N   UNL     1     -42.000  55.326 -52.168  1.00  0.00    -0.233 NA
HETATM   14  C   UNL     1     -40.072  52.249 -52.912  1.00  0.00     0.103 A 
HETATM   15  C   UNL     1     -39.813  51.764 -51.619  1.00  0.00     0.102 A 
BRANCH  14  16
HETATM   16  O   UNL     1     -39.618  51.529 -53.986  1.00  0.00    -0.353 OA
HETATM   17  C   UNL     1     -40.415  50.402 -54.338  1.00  0.00     0.210 C 
ENDBRANCH  14  16
BRANCH  15  18
HETATM   18  O   UNL     1     -39.104  50.634 -51.305  1.00  0.00    -0.353 OA
HETATM   19  C   UNL     1     -39.850  49.599 -50.672  1.00  0.00     0.210 C 
ENDBRANCH  15  18
ENDBRANCH   3   4
ENDBRANCH   1   3
BRANCH   1  20
HETATM   20  C   UNL     1     -42.922  59.497 -52.283  1.00  0.00     0.024 A 
HETATM   21  C   UNL     1     -42.935  60.376 -53.397  1.00  0.00     0.053 A 
HETATM   22  C   UNL     1     -43.102  61.764 -53.217  1.00  0.00     0.019 A 
HETATM   23  C   UNL     1     -43.232  62.308 -51.945  1.00  0.00     0.001 A 
HETATM   24  C   UNL     1     -43.199  61.469 -50.841  1.00  0.00     0.002 A 
HETATM   25  C   UNL     1     -43.045  60.087 -51.008  1.00  0.00     0.024 A 
BRANCH  21  26
HETATM   26  C   UNL     1     -42.742  59.939 -54.810  1.00  0.00     0.253 C 
HETATM   27  N   UNL     1     -43.719  59.127 -55.328  1.00  0.00    -0.351 N 
HETATM   28  H   UNL     1     -44.539  58.940 -54.760  1.00  0.00     0.163 HD
HETATM   29  O   UNL     1     -41.735  60.263 -55.429  1.00  0.00    -0.268 OA
BRANCH  27  30
HETATM   30  C   UNL     1     -43.633  58.571 -56.655  1.00  0.00     0.187 C 
BRANCH  30  31
HETATM   31  C   UNL     1     -43.361  57.120 -56.550  1.00  0.00     0.070 A 
HETATM   32  O   UNL     1     -43.377  56.589 -55.296  1.00  0.00    -0.325 OA
HETATM   33  C   UNL     1     -43.067  55.272 -55.418  1.00  0.00     0.142 A 
HETATM   34  C   UNL     1     -42.873  54.944 -56.739  1.00  0.00     0.027 A 
HETATM   35  C   UNL     1     -43.066  56.138 -57.474  1.00  0.00     0.036 A 
ENDBRANCH  30  31
ENDBRANCH  27  30
ENDBRANCH  21  26
ENDBRANCH   1  20
TORSDOF 8
ENDMDL
MODEL 10
REMARK VINA RESULT:      -7.5      2.538      8.566
REMARK  8 active torsions:
REMARK  status: ('A' for Active; 'I' for Inactive)
REMARK    1  A    between atoms: O_2  and  C_3 
REMARK    2  A    between atoms: C_4  and  O_5 
REMARK    3  A    between atoms: C_13  and  C_14 
REMARK    4  A    between atoms: C_14  and  N_15 
REMARK    5  A    between atoms: N_15  and  C_16 
REMARK    6  A    between atoms: C_17  and  C_18 
REMARK       I    between atoms: C_18  and  N_19 
REMARK    7  A    between atoms: N_19  and  C_20 
REMARK    8  A    between atoms: C_20  and  C_21 
ROOT
HETATM    1  N   UNL     1     -42.671  57.277 -56.061  1.00  0.00    -0.285 NA
HETATM    2  H   UNL     1     -41.675  57.100 -55.887  1.00  0.00     0.128 HD
ENDROOT
BRANCH   1   3
HETATM    3  C   UNL     1     -43.518  56.506 -55.132  1.00  0.00     0.171 C 
BRANCH   3   4
HETATM    4  C   UNL     1     -42.743  55.607 -54.175  1.00  0.00     0.120 A 
HETATM    5  N   UNL     1     -42.856  55.834 -52.830  1.00  0.00    -0.310 N 
HETATM    6  C   UNL     1     -42.212  55.071 -51.887  1.00  0.00     0.259 A 
HETATM    7  H   UNL     1     -43.461  56.567 -52.481  1.00  0.00     0.170 HD
HETATM    8  C   UNL     1     -41.382  53.974 -52.406  1.00  0.00     0.064 A 
HETATM    9  O   UNL     1     -42.317  55.269 -50.684  1.00  0.00    -0.267 OA
HETATM   10  C   UNL     1     -41.324  53.813 -53.787  1.00  0.00     0.077 A 
HETATM   11  C   UNL     1     -40.700  53.112 -51.547  1.00  0.00     0.059 A 
HETATM   12  C   UNL     1     -40.557  52.769 -54.310  1.00  0.00     0.072 A 
HETATM   13  N   UNL     1     -42.013  54.658 -54.672  1.00  0.00    -0.233 NA
HETATM   14  C   UNL     1     -39.851  51.900 -53.465  1.00  0.00     0.103 A 
HETATM   15  C   UNL     1     -39.957  52.053 -52.073  1.00  0.00     0.102 A 
BRANCH  14  16
HETATM   16  O   UNL     1     -39.084  50.876 -53.957  1.00  0.00    -0.353 OA
HETATM   17  C   UNL     1     -39.816  49.779 -54.496  1.00  0.00     0.210 C 
ENDBRANCH  14  16
BRANCH  15  18
HETATM   18  O   UNL     1     -39.330  51.287 -51.124  1.00  0.00    -0.353 OA
HETATM   19  C   UNL     1     -40.183  50.446 -50.354  1.00  0.00     0.210 C 
ENDBRANCH  15  18
ENDBRANCH   3   4
ENDBRANCH   1   3
BRANCH   1  20
HETATM   20  C   UNL     1     -42.890  57.062 -57.455  1.00  0.00     0.024 A 
HETATM   21  C   UNL     1     -42.870  58.143 -58.374  1.00  0.00     0.053 A 
HETATM   22  C   UNL     1     -43.056  57.919 -59.753  1.00  0.00     0.019 A 
HETATM   23  C   UNL     1     -43.288  56.639 -60.243  1.00  0.00     0.001 A 
HETATM   24  C   UNL     1     -43.334  55.571 -59.360  1.00  0.00     0.002 A 
HETATM   25  C   UNL     1     -43.140  55.781 -57.988  1.00  0.00     0.024 A 
BRANCH  21  26
HETATM   26  C   UNL     1     -42.697  59.571 -57.983  1.00  0.00     0.253 C 
HETATM   27  N   UNL     1     -41.566  60.191 -58.452  1.00  0.00    -0.351 N 
HETATM   28  H   UNL     1     -40.967  59.679 -59.091  1.00  0.00     0.163 HD
HETATM   29  O   UNL     1     -43.508  60.116 -57.244  1.00  0.00    -0.268 OA
BRANCH  27  30
HETATM   30  C   UNL     1     -41.230  61.548 -58.099  1.00  0.00     0.187 C 
BRANCH  30  31
HETATM   31  C   UNL     1     -40.613  62.209 -59.271  1.00  0.00     0.070 A 
HETATM   32  O   UNL     1     -41.149  61.911 -60.487  1.00  0.00    -0.325 OA
HETATM   33  C   UNL     1     -40.421  62.582 -61.417  1.00  0.00     0.142 A 
HETATM   34  C   UNL     1     -39.435  63.325 -60.812  1.00  0.00     0.027 A 
HETATM   35  C   UNL     1     -39.560  63.088 -59.423  1.00  0.00     0.036 A 
ENDBRANCH  30  31
ENDBRANCH  27  30
ENDBRANCH  21  26
ENDBRANCH   1  20
TORSDOF 8
ENDMDL
