MODEL 1
REMARK VINA RESULT:      -8.2      0.000      0.000
REMARK  8 active torsions:
REMARK  status: ('A' for Active; 'I' for Inactive)
REMARK    1  A    between atoms: O_2  and  C_3 
REMARK    2  A    between atoms: C_10  and  C_11 
REMARK    3  A    between atoms: N_12  and  N_13 
REMARK       I    between atoms: N_13  and  C_14 
REMARK    4  A    between atoms: C_14  and  C_15 
REMARK    5  A    between atoms: N_18  and  C_19 
REMARK    6  A    between atoms: C_23  and  N_24 
REMARK    7  A    between atoms: C_25  and  C_26 
REMARK    8  A    between atoms: C_26  and  N_27 
ROOT
HETATM    1  C   UNL     1     -42.627  58.604 -56.596  1.00  0.00     0.176 C 
HETATM    2  N   UNL     1     -41.591  59.446 -56.876  1.00  0.00    -0.124 NA
HETATM    3  N   UNL     1     -41.983  60.279 -57.821  1.00  0.00    -0.058 NA
HETATM    4  N   UNL     1     -43.239  59.947 -58.222  1.00  0.00    -0.191 N 
HETATM    5  C   UNL     1     -43.734  58.960 -57.360  1.00  0.00     0.102 C 
ENDROOT
BRANCH   1   6
HETATM    6  C   UNL     1     -42.520  57.525 -55.625  1.00  0.00     0.294 C 
HETATM    7  N   UNL     1     -42.086  56.325 -56.154  1.00  0.00    -0.242 N 
HETATM    8  H   UNL     1     -41.880  56.247 -57.148  1.00  0.00     0.192 HD
HETATM    9  O   UNL     1     -42.793  57.729 -54.442  1.00  0.00    -0.264 OA
BRANCH   7  10
HETATM   10  N   UNL     1     -41.944  55.245 -55.337  1.00  0.00    -0.183 NA
HETATM   11  C   UNL     1     -40.749  55.038 -54.877  1.00  0.00     0.153 C 
BRANCH  11  12
HETATM   12  C   UNL     1     -40.458  53.896 -53.983  1.00  0.00     0.020 A 
HETATM   13  C   UNL     1     -40.534  54.050 -52.591  1.00  0.00     0.101 A 
HETATM   14  C   UNL     1     -40.328  52.936 -51.764  1.00  0.00     0.069 A 
HETATM   15 CL   UNL     1     -40.518  53.029 -50.050  1.00  0.00    -0.081 Cl
HETATM   16  C   UNL     1     -39.988  51.699 -52.317  1.00  0.00     0.050 A 
HETATM   17  C   UNL     1     -39.877  51.570 -53.698  1.00  0.00     0.036 A 
HETATM   18 CL   UNL     1     -39.459  50.046 -54.381  1.00  0.00    -0.084 Cl
HETATM   19  C   UNL     1     -40.116  52.655 -54.536  1.00  0.00     0.039 A 
BRANCH  13  20
HETATM   20  O   UNL     1     -40.888  55.270 -52.071  1.00  0.00    -0.353 OA
HETATM   21  C   UNL     1     -42.282  55.303 -51.747  1.00  0.00     0.210 C 
ENDBRANCH  13  20
ENDBRANCH  11  12
ENDBRANCH   7  10
ENDBRANCH   1   6
BRANCH   5  22
HETATM   22  C   UNL     1     -45.120  58.418 -57.439  1.00  0.00     0.296 C 
BRANCH  22  23
HETATM   23  N   UNL     1     -45.327  57.231 -58.370  1.00  0.00    -0.066 N 
HETATM   24  H   UNL     1     -45.561  56.429 -57.749  1.00  0.00     0.280 HD
HETATM   25  C   UNL     1     -46.498  57.430 -59.295  1.00  0.00     0.235 C 
HETATM   26  C   UNL     1     -46.893  56.148 -60.018  1.00  0.00     0.028 C 
HETATM   27  C   UNL     1     -45.926  55.766 -61.132  1.00  0.00     0.002 C 
HETATM   28  C   UNL     1     -44.728  54.940 -60.682  1.00  0.00     0.002 C 
HETATM   29  C   UNL     1     -44.033  55.355 -59.388  1.00  0.00     0.028 C 
HETATM   30  C   UNL     1     -44.040  56.844 -59.070  1.00  0.00     0.235 C 
ENDBRANCH  22  23
ENDBRANCH   5  22
BRANCH   4  31
HETATM   31  C   UNL     1     -43.844  60.538 -59.358  1.00  0.00     0.229 A 
HETATM   32  N   UNL     1     -44.981  61.226 -59.233  1.00  0.00    -0.081 NA
HETATM   33  O   UNL     1     -45.279  61.617 -60.541  1.00  0.00    -0.103 OA
HETATM   34  N   UNL     1     -44.319  61.161 -61.433  1.00  0.00    -0.083 NA
HETATM   35  C   UNL     1     -43.434  60.487 -60.702  1.00  0.00     0.201 A 
BRANCH  35  36
HETATM   36  N   UNL     1     -42.341  59.883 -61.198  1.00  0.00    -0.379 N 
HETATM   37  H   UNL     1     -42.442  59.185 -61.930  1.00  0.00     0.158 HD
HETATM   38  H   UNL     1     -41.449  59.851 -60.709  1.00  0.00     0.158 HD
ENDBRANCH  35  36
ENDBRANCH   4  31
TORSDOF 8
ENDMDL
MODEL 2
REMARK VINA RESULT:      -8.2      1.986      2.416
REMARK  8 active torsions:
REMARK  status: ('A' for Active; 'I' for Inactive)
REMARK    1  A    between atoms: O_2  and  C_3 
REMARK    2  A    between atoms: C_10  and  C_11 
REMARK    3  A    between atoms: N_12  and  N_13 
REMARK       I    between atoms: N_13  and  C_14 
REMARK    4  A    between atoms: C_14  and  C_15 
REMARK    5  A    between atoms: N_18  and  C_19 
REMARK    6  A    between atoms: C_23  and  N_24 
REMARK    7  A    between atoms: C_25  and  C_26 
REMARK    8  A    between atoms: C_26  and  N_27 
ROOT
HETATM    1  C   UNL     1     -42.252  57.937 -55.669  1.00  0.00     0.176 C 
HETATM    2  N   UNL     1     -42.303  58.804 -54.618  1.00  0.00    -0.124 NA
HETATM    3  N   UNL     1     -42.381  60.030 -55.100  1.00  0.00    -0.058 NA
HETATM    4  N   UNL     1     -42.304  59.987 -56.456  1.00  0.00    -0.191 N 
HETATM    5  C   UNL     1     -42.357  58.646 -56.862  1.00  0.00     0.102 C 
ENDROOT
BRANCH   1   6
HETATM    6  C   UNL     1     -42.117  56.498 -55.494  1.00  0.00     0.294 C 
HETATM    7  N   UNL     1     -41.045  56.119 -54.709  1.00  0.00    -0.242 N 
HETATM    8  H   UNL     1     -40.423  56.823 -54.316  1.00  0.00     0.192 HD
HETATM    9  O   UNL     1     -42.929  55.733 -56.014  1.00  0.00    -0.264 OA
BRANCH   7  10
HETATM   10  N   UNL     1     -40.823  54.797 -54.473  1.00  0.00    -0.183 NA
HETATM   11  C   UNL     1     -40.552  54.480 -53.244  1.00  0.00     0.153 C 
BRANCH  11  12
HETATM   12  C   UNL     1     -40.285  53.079 -52.854  1.00  0.00     0.020 A 
HETATM   13  C   UNL     1     -40.355  52.695 -51.507  1.00  0.00     0.101 A 
HETATM   14  C   UNL     1     -40.173  51.346 -51.166  1.00  0.00     0.069 A 
HETATM   15 CL   UNL     1     -40.358  50.784 -49.544  1.00  0.00    -0.081 Cl
HETATM   16  C   UNL     1     -39.862  50.405 -52.151  1.00  0.00     0.050 A 
HETATM   17  C   UNL     1     -39.755  50.808 -53.480  1.00  0.00     0.036 A 
HETATM   18 CL   UNL     1     -39.372  49.650 -54.694  1.00  0.00    -0.084 Cl
HETATM   19  C   UNL     1     -39.972  52.135 -53.840  1.00  0.00     0.039 A 
BRANCH  13  20
HETATM   20  O   UNL     1     -40.681  53.633 -50.559  1.00  0.00    -0.353 OA
HETATM   21  C   UNL     1     -39.513  54.087 -49.868  1.00  0.00     0.210 C 
ENDBRANCH  13  20
ENDBRANCH  11  12
ENDBRANCH   7  10
ENDBRANCH   1   6
BRANCH   5  22
HETATM   22  C   UNL     1     -42.390  58.219 -58.289  1.00  0.00     0.296 C 
BRANCH  22  23
HETATM   23  N   UNL     1     -43.519  57.278 -58.684  1.00  0.00    -0.066 N 
HETATM   24  H   UNL     1     -43.801  56.797 -57.804  1.00  0.00     0.280 HD
HETATM   25  C   UNL     1     -44.729  58.018 -59.189  1.00  0.00     0.235 C 
HETATM   26  C   UNL     1     -45.955  57.121 -59.306  1.00  0.00     0.028 C 
HETATM   27  C   UNL     1     -45.891  56.173 -60.498  1.00  0.00     0.002 C 
HETATM   28  C   UNL     1     -45.167  54.860 -60.231  1.00  0.00     0.002 C 
HETATM   29  C   UNL     1     -43.868  54.922 -59.433  1.00  0.00     0.028 C 
HETATM   30  C   UNL     1     -43.031  56.182 -59.609  1.00  0.00     0.235 C 
ENDBRANCH  22  23
ENDBRANCH   5  22
BRANCH   4  31
HETATM   31  C   UNL     1     -42.162  61.159 -57.237  1.00  0.00     0.229 A 
HETATM   32  N   UNL     1     -41.030  61.388 -57.906  1.00  0.00    -0.081 NA
HETATM   33  O   UNL     1     -41.248  62.626 -58.517  1.00  0.00    -0.103 OA
HETATM   34  N   UNL     1     -42.506  63.123 -58.208  1.00  0.00    -0.083 NA
HETATM   35  C   UNL     1     -43.070  62.219 -57.411  1.00  0.00     0.201 A 
BRANCH  35  36
HETATM   36  N   UNL     1     -44.303  62.329 -56.888  1.00  0.00    -0.379 N 
HETATM   37  H   UNL     1     -44.721  63.249 -56.778  1.00  0.00     0.158 HD
HETATM   38  H   UNL     1     -44.740  61.600 -56.329  1.00  0.00     0.158 HD
ENDBRANCH  35  36
ENDBRANCH   4  31
TORSDOF 8
ENDMDL
MODEL 3
REMARK VINA RESULT:      -8.1      2.024      3.976
REMARK  8 active torsions:
REMARK  status: ('A' for Active; 'I' for Inactive)
REMARK    1  A    between atoms: O_2  and  C_3 
REMARK    2  A    between atoms: C_10  and  C_11 
REMARK    3  A    between atoms: N_12  and  N_13 
REMARK       I    between atoms: N_13  and  C_14 
REMARK    4  A    between atoms: C_14  and  C_15 
REMARK    5  A    between atoms: N_18  and  C_19 
REMARK    6  A    between atoms: C_23  and  N_24 
REMARK    7  A    between atoms: C_25  and  C_26 
REMARK    8  A    between atoms: C_26  and  N_27 
ROOT
HETATM    1  C   UNL     1     -43.318  56.305 -57.795  1.00  0.00     0.176 C 
HETATM    2  N   UNL     1     -42.961  55.795 -59.008  1.00  0.00    -0.124 NA
HETATM    3  N   UNL     1     -43.665  56.413 -59.937  1.00  0.00    -0.058 NA
HETATM    4  N   UNL     1     -44.538  57.271 -59.344  1.00  0.00    -0.191 N 
HETATM    5  C   UNL     1     -44.247  57.325 -57.975  1.00  0.00     0.102 C 
ENDROOT
BRANCH   1   6
HETATM    6  C   UNL     1     -42.762  55.813 -56.542  1.00  0.00     0.294 C 
HETATM    7  N   UNL     1     -43.143  54.526 -56.218  1.00  0.00    -0.242 N 
HETATM    8  H   UNL     1     -43.771  54.007 -56.829  1.00  0.00     0.192 HD
HETATM    9  O   UNL     1     -42.009  56.525 -55.878  1.00  0.00    -0.264 OA
BRANCH   7  10
HETATM   10  N   UNL     1     -42.680  53.959 -55.069  1.00  0.00    -0.183 NA
HETATM   11  C   UNL     1     -41.405  53.727 -55.028  1.00  0.00     0.153 C 
BRANCH  11  12
HETATM   12  C   UNL     1     -40.775  53.111 -53.841  1.00  0.00     0.020 A 
HETATM   13  C   UNL     1     -40.537  53.875 -52.690  1.00  0.00     0.101 A 
HETATM   14  C   UNL     1     -40.007  53.254 -51.549  1.00  0.00     0.069 A 
HETATM   15 CL   UNL     1     -39.795  54.108 -50.063  1.00  0.00    -0.081 Cl
HETATM   16  C   UNL     1     -39.662  51.900 -51.578  1.00  0.00     0.050 A 
HETATM   17  C   UNL     1     -39.866  51.162 -52.741  1.00  0.00     0.036 A 
HETATM   18 CL   UNL     1     -39.442  49.495 -52.779  1.00  0.00    -0.084 Cl
HETATM   19  C   UNL     1     -40.427  51.755 -53.870  1.00  0.00     0.039 A 
BRANCH  13  20
HETATM   20  O   UNL     1     -40.901  55.199 -52.677  1.00  0.00    -0.353 OA
HETATM   21  C   UNL     1     -42.126  55.384 -51.960  1.00  0.00     0.210 C 
ENDBRANCH  13  20
ENDBRANCH  11  12
ENDBRANCH   7  10
ENDBRANCH   1   6
BRANCH   5  22
HETATM   22  C   UNL     1     -44.944  58.234 -57.021  1.00  0.00     0.296 C 
BRANCH  22  23
HETATM   23  N   UNL     1     -44.128  58.708 -55.826  1.00  0.00    -0.066 N 
HETATM   24  H   UNL     1     -43.510  57.909 -55.576  1.00  0.00     0.280 HD
HETATM   25  C   UNL     1     -43.231  59.867 -56.173  1.00  0.00     0.235 C 
HETATM   26  C   UNL     1     -42.207  60.157 -55.083  1.00  0.00     0.028 C 
HETATM   27  C   UNL     1     -42.811  60.838 -53.860  1.00  0.00     0.002 C 
HETATM   28  C   UNL     1     -43.393  59.886 -52.822  1.00  0.00     0.002 C 
HETATM   29  C   UNL     1     -44.217  58.707 -53.332  1.00  0.00     0.028 C 
HETATM   30  C   UNL     1     -45.005  58.943 -54.613  1.00  0.00     0.235 C 
ENDBRANCH  22  23
ENDBRANCH   5  22
BRANCH   4  31
HETATM   31  C   UNL     1     -45.559  57.925 -60.075  1.00  0.00     0.229 A 
HETATM   32  N   UNL     1     -45.398  59.189 -60.470  1.00  0.00    -0.081 NA
HETATM   33  O   UNL     1     -46.600  59.491 -61.118  1.00  0.00    -0.103 OA
HETATM   34  N   UNL     1     -47.464  58.406 -61.103  1.00  0.00    -0.083 NA
HETATM   35  C   UNL     1     -46.824  57.438 -60.453  1.00  0.00     0.201 A 
BRANCH  35  36
HETATM   36  N   UNL     1     -47.327  56.213 -60.223  1.00  0.00    -0.379 N 
HETATM   37  H   UNL     1     -46.795  55.392 -60.501  1.00  0.00     0.158 HD
HETATM   38  H   UNL     1     -48.315  56.037 -60.057  1.00  0.00     0.158 HD
ENDBRANCH  35  36
ENDBRANCH   4  31
TORSDOF 8
ENDMDL
MODEL 4
REMARK VINA RESULT:      -8.0      6.161      9.692
REMARK  8 active torsions:
REMARK  status: ('A' for Active; 'I' for Inactive)
REMARK    1  A    between atoms: O_2  and  C_3 
REMARK    2  A    between atoms: C_10  and  C_11 
REMARK    3  A    between atoms: N_12  and  N_13 
REMARK       I    between atoms: N_13  and  C_14 
REMARK    4  A    between atoms: C_14  and  C_15 
REMARK    5  A    between atoms: N_18  and  C_19 
REMARK    6  A    between atoms: C_23  and  N_24 
REMARK    7  A    between atoms: C_25  and  C_26 
REMARK    8  A    between atoms: C_26  and  N_27 
ROOT
HETATM    1  C   UNL     1     -41.849  59.124 -52.280  1.00  0.00     0.176 C 
HETATM    2  N   UNL     1     -41.378  59.704 -53.421  1.00  0.00    -0.124 NA
HETATM    3  N   UNL     1     -41.299  58.773 -54.353  1.00  0.00    -0.058 NA
HETATM    4  N   UNL     1     -41.639  57.570 -53.817  1.00  0.00    -0.191 N 
HETATM    5  C   UNL     1     -42.128  57.783 -52.522  1.00  0.00     0.102 C 
ENDROOT
BRANCH   1   6
HETATM    6  C   UNL     1     -42.016  59.863 -51.036  1.00  0.00     0.294 C 
HETATM    7  N   UNL     1     -43.329  60.146 -50.716  1.00  0.00    -0.242 N 
HETATM    8  H   UNL     1     -44.083  59.852 -51.334  1.00  0.00     0.192 HD
HETATM    9  O   UNL     1     -41.032  60.168 -50.362  1.00  0.00    -0.264 OA
BRANCH   7  10
HETATM   10  N   UNL     1     -43.606  60.829 -49.571  1.00  0.00    -0.183 NA
HETATM   11  C   UNL     1     -44.855  60.861 -49.220  1.00  0.00     0.153 C 
BRANCH  11  12
HETATM   12  C   UNL     1     -45.291  61.573 -48.001  1.00  0.00     0.020 A 
HETATM   13  C   UNL     1     -46.338  62.505 -48.062  1.00  0.00     0.101 A 
HETATM   14  C   UNL     1     -46.787  63.114 -46.881  1.00  0.00     0.069 A 
HETATM   15 CL   UNL     1     -48.143  64.183 -46.867  1.00  0.00    -0.081 Cl
HETATM   16  C   UNL     1     -46.157  62.844 -45.664  1.00  0.00     0.050 A 
HETATM   17  C   UNL     1     -45.092  61.947 -45.623  1.00  0.00     0.036 A 
HETATM   18 CL   UNL     1     -44.316  61.612 -44.125  1.00  0.00    -0.084 Cl
HETATM   19  C   UNL     1     -44.660  61.304 -46.780  1.00  0.00     0.039 A 
BRANCH  13  20
HETATM   20  O   UNL     1     -46.954  62.742 -49.266  1.00  0.00    -0.353 OA
HETATM   21  C   UNL     1     -46.435  63.924 -49.883  1.00  0.00     0.210 C 
ENDBRANCH  13  20
ENDBRANCH  11  12
ENDBRANCH   7  10
ENDBRANCH   1   6
BRANCH   5  22
HETATM   22  C   UNL     1     -42.683  56.698 -51.663  1.00  0.00     0.296 C 
BRANCH  22  23
HETATM   23  N   UNL     1     -41.712  55.599 -51.257  1.00  0.00    -0.066 N 
HETATM   24  H   UNL     1     -40.859  55.754 -51.834  1.00  0.00     0.280 HD
HETATM   25  C   UNL     1     -41.294  55.711 -49.814  1.00  0.00     0.235 C 
HETATM   26  C   UNL     1     -40.113  54.809 -49.478  1.00  0.00     0.028 C 
HETATM   27  C   UNL     1     -40.493  53.337 -49.376  1.00  0.00     0.002 C 
HETATM   28  C   UNL     1     -40.475  52.580 -50.698  1.00  0.00     0.002 C 
HETATM   29  C   UNL     1     -41.068  53.279 -51.918  1.00  0.00     0.028 C 
HETATM   30  C   UNL     1     -42.227  54.229 -51.650  1.00  0.00     0.235 C 
ENDBRANCH  22  23
ENDBRANCH   5  22
BRANCH   4  31
HETATM   31  C   UNL     1     -41.457  56.356 -54.524  1.00  0.00     0.229 A 
HETATM   32  N   UNL     1     -40.316  55.674 -54.405  1.00  0.00    -0.081 NA
HETATM   33  O   UNL     1     -40.493  54.579 -55.255  1.00  0.00    -0.103 OA
HETATM   34  N   UNL     1     -41.736  54.617 -55.871  1.00  0.00    -0.083 NA
HETATM   35  C   UNL     1     -42.331  55.720 -55.424  1.00  0.00     0.201 A 
BRANCH  35  36
HETATM   36  N   UNL     1     -43.561  56.121 -55.785  1.00  0.00    -0.379 N 
HETATM   37  H   UNL     1     -44.263  56.293 -55.070  1.00  0.00     0.158 HD
HETATM   38  H   UNL     1     -43.939  55.993 -56.721  1.00  0.00     0.158 HD
ENDBRANCH  35  36
ENDBRANCH   4  31
TORSDOF 8
ENDMDL
MODEL 5
REMARK VINA RESULT:      -7.9      2.152      4.171
REMARK  8 active torsions:
REMARK  status: ('A' for Active; 'I' for Inactive)
REMARK    1  A    between atoms: O_2  and  C_3 
REMARK    2  A    between atoms: C_10  and  C_11 
REMARK    3  A    between atoms: N_12  and  N_13 
REMARK       I    between atoms: N_13  and  C_14 
REMARK    4  A    between atoms: C_14  and  C_15 
REMARK    5  A    between atoms: N_18  and  C_19 
REMARK    6  A    between atoms: C_23  and  N_24 
REMARK    7  A    between atoms: C_25  and  C_26 
REMARK    8  A    between atoms: C_26  and  N_27 
ROOT
HETATM    1  C   UNL     1     -43.390  57.511 -57.007  1.00  0.00     0.176 C 
HETATM    2  N   UNL     1     -44.088  57.351 -58.167  1.00  0.00    -0.124 NA
HETATM    3  N   UNL     1     -44.172  58.526 -58.761  1.00  0.00    -0.058 NA
HETATM    4  N   UNL     1     -43.604  59.474 -57.968  1.00  0.00    -0.191 N 
HETATM    5  C   UNL     1     -42.971  58.833 -56.894  1.00  0.00     0.102 C 
ENDROOT
BRANCH   1   6
HETATM    6  C   UNL     1     -43.150  56.415 -56.078  1.00  0.00     0.294 C 
HETATM    7  N   UNL     1     -42.186  55.518 -56.494  1.00  0.00    -0.242 N 
HETATM    8  H   UNL     1     -41.716  55.648 -57.388  1.00  0.00     0.192 HD
HETATM    9  O   UNL     1     -43.776  56.355 -55.020  1.00  0.00    -0.264 OA
BRANCH   7  10
HETATM   10  N   UNL     1     -41.875  54.455 -55.702  1.00  0.00    -0.183 NA
HETATM   11  C   UNL     1     -40.958  54.663 -54.810  1.00  0.00     0.153 C 
BRANCH  11  12
HETATM   12  C   UNL     1     -40.523  53.590 -53.890  1.00  0.00     0.020 A 
HETATM   13  C   UNL     1     -40.536  53.799 -52.504  1.00  0.00     0.101 A 
HETATM   14  C   UNL     1     -40.192  52.743 -51.646  1.00  0.00     0.069 A 
HETATM   15 CL   UNL     1     -40.295  52.896 -49.929  1.00  0.00    -0.081 Cl
HETATM   16  C   UNL     1     -39.780  51.515 -52.168  1.00  0.00     0.050 A 
HETATM   17  C   UNL     1     -39.733  51.334 -53.548  1.00  0.00     0.036 A 
HETATM   18 CL   UNL     1     -39.227  49.821 -54.193  1.00  0.00    -0.084 Cl
HETATM   19  C   UNL     1     -40.108  52.358 -54.412  1.00  0.00     0.039 A 
BRANCH  13  20
HETATM   20  O   UNL     1     -40.962  55.008 -52.012  1.00  0.00    -0.353 OA
HETATM   21  C   UNL     1     -42.364  54.977 -51.724  1.00  0.00     0.210 C 
ENDBRANCH  13  20
ENDBRANCH  11  12
ENDBRANCH   7  10
ENDBRANCH   1   6
BRANCH   5  22
HETATM   22  C   UNL     1     -42.164  59.551 -55.868  1.00  0.00     0.296 C 
BRANCH  22  23
HETATM   23  N   UNL     1     -42.397  59.141 -54.421  1.00  0.00    -0.066 N 
HETATM   24  H   UNL     1     -42.689  58.142 -54.458  1.00  0.00     0.280 HD
HETATM   25  C   UNL     1     -41.136  59.201 -53.600  1.00  0.00     0.235 C 
HETATM   26  C   UNL     1     -41.289  58.521 -52.246  1.00  0.00     0.028 C 
HETATM   27  C   UNL     1     -42.112  59.336 -51.256  1.00  0.00     0.002 C 
HETATM   28  C   UNL     1     -43.617  59.118 -51.344  1.00  0.00     0.002 C 
HETATM   29  C   UNL     1     -44.237  59.044 -52.736  1.00  0.00     0.028 C 
HETATM   30  C   UNL     1     -43.569  59.886 -53.814  1.00  0.00     0.235 C 
ENDBRANCH  22  23
ENDBRANCH   5  22
BRANCH   4  31
HETATM   31  C   UNL     1     -43.720  60.856 -58.251  1.00  0.00     0.229 A 
HETATM   32  N   UNL     1     -44.849  61.508 -57.968  1.00  0.00    -0.081 NA
HETATM   33  O   UNL     1     -44.602  62.811 -58.408  1.00  0.00    -0.103 OA
HETATM   34  N   UNL     1     -43.328  62.925 -58.948  1.00  0.00    -0.083 NA
HETATM   35  C   UNL     1     -42.784  61.714 -58.857  1.00  0.00     0.201 A 
BRANCH  35  36
HETATM   36  N   UNL     1     -41.545  61.403 -59.275  1.00  0.00    -0.379 N 
HETATM   37  H   UNL     1     -41.414  60.638 -59.931  1.00  0.00     0.158 HD
HETATM   38  H   UNL     1     -40.702  61.677 -58.776  1.00  0.00     0.158 HD
ENDBRANCH  35  36
ENDBRANCH   4  31
TORSDOF 8
ENDMDL
MODEL 6
REMARK VINA RESULT:      -7.9      2.236      4.057
REMARK  8 active torsions:
REMARK  status: ('A' for Active; 'I' for Inactive)
REMARK    1  A    between atoms: O_2  and  C_3 
REMARK    2  A    between atoms: C_10  and  C_11 
REMARK    3  A    between atoms: N_12  and  N_13 
REMARK       I    between atoms: N_13  and  C_14 
REMARK    4  A    between atoms: C_14  and  C_15 
REMARK    5  A    between atoms: N_18  and  C_19 
REMARK    6  A    between atoms: C_23  and  N_24 
REMARK    7  A    between atoms: C_25  and  C_26 
REMARK    8  A    between atoms: C_26  and  N_27 
ROOT
HETATM    1  C   UNL     1     -42.811  57.596 -56.935  1.00  0.00     0.176 C 
HETATM    2  N   UNL     1     -42.299  57.851 -58.173  1.00  0.00    -0.124 NA
HETATM    3  N   UNL     1     -43.242  58.426 -58.896  1.00  0.00    -0.058 NA
HETATM    4  N   UNL     1     -44.392  58.482 -58.174  1.00  0.00    -0.191 N 
HETATM    5  C   UNL     1     -44.113  58.080 -56.861  1.00  0.00     0.102 C 
ENDROOT
BRANCH   1   6
HETATM    6  C   UNL     1     -42.047  56.922 -55.894  1.00  0.00     0.294 C 
HETATM    7  N   UNL     1     -41.656  55.638 -56.217  1.00  0.00    -0.242 N 
HETATM    8  H   UNL     1     -41.912  55.234 -57.116  1.00  0.00     0.192 HD
HETATM    9  O   UNL     1     -41.790  57.506 -54.841  1.00  0.00    -0.264 OA
BRANCH   7  10
HETATM   10  N   UNL     1     -40.932  54.913 -55.320  1.00  0.00    -0.183 NA
HETATM   11  C   UNL     1     -41.559  53.932 -54.750  1.00  0.00     0.153 C 
BRANCH  11  12
HETATM   12  C   UNL     1     -40.889  53.069 -53.752  1.00  0.00     0.020 A 
HETATM   13  C   UNL     1     -40.801  53.474 -52.413  1.00  0.00     0.101 A 
HETATM   14  C   UNL     1     -40.229  52.608 -51.469  1.00  0.00     0.069 A 
HETATM   15 CL   UNL     1     -40.191  52.993 -49.786  1.00  0.00    -0.081 Cl
HETATM   16  C   UNL     1     -39.695  51.381 -51.870  1.00  0.00     0.050 A 
HETATM   17  C   UNL     1     -39.753  51.009 -53.210  1.00  0.00     0.036 A 
HETATM   18 CL   UNL     1     -39.096  49.497 -53.705  1.00  0.00    -0.084 Cl
HETATM   19  C   UNL     1     -40.352  51.839 -54.153  1.00  0.00     0.039 A 
BRANCH  13  20
HETATM   20  O   UNL     1     -41.349  54.675 -52.038  1.00  0.00    -0.353 OA
HETATM   21  C   UNL     1     -42.693  54.502 -51.576  1.00  0.00     0.210 C 
ENDBRANCH  13  20
ENDBRANCH  11  12
ENDBRANCH   7  10
ENDBRANCH   1   6
BRANCH   5  22
HETATM   22  C   UNL     1     -45.119  58.105 -55.761  1.00  0.00     0.296 C 
BRANCH  22  23
HETATM   23  N   UNL     1     -44.669  58.740 -54.453  1.00  0.00    -0.066 N 
HETATM   24  H   UNL     1     -43.636  58.843 -54.534  1.00  0.00     0.280 HD
HETATM   25  C   UNL     1     -45.238  60.121 -54.264  1.00  0.00     0.235 C 
HETATM   26  C   UNL     1     -44.571  60.874 -53.120  1.00  0.00     0.028 C 
HETATM   27  C   UNL     1     -45.005  60.380 -51.745  1.00  0.00     0.002 C 
HETATM   28  C   UNL     1     -44.204  59.200 -51.209  1.00  0.00     0.002 C 
HETATM   29  C   UNL     1     -43.871  58.074 -52.183  1.00  0.00     0.028 C 
HETATM   30  C   UNL     1     -44.895  57.810 -53.278  1.00  0.00     0.235 C 
ENDBRANCH  22  23
ENDBRANCH   5  22
BRANCH   4  31
HETATM   31  C   UNL     1     -45.625  58.865 -58.756  1.00  0.00     0.229 A 
HETATM   32  N   UNL     1     -45.906  60.155 -58.947  1.00  0.00    -0.081 NA
HETATM   33  O   UNL     1     -47.191  60.139 -59.498  1.00  0.00    -0.103 OA
HETATM   34  N   UNL     1     -47.663  58.841 -59.630  1.00  0.00    -0.083 NA
HETATM   35  C   UNL     1     -46.697  58.052 -59.166  1.00  0.00     0.201 A 
BRANCH  35  36
HETATM   36  N   UNL     1     -46.765  56.711 -59.120  1.00  0.00    -0.379 N 
HETATM   37  H   UNL     1     -47.018  56.193 -59.958  1.00  0.00     0.158 HD
HETATM   38  H   UNL     1     -46.868  56.185 -58.255  1.00  0.00     0.158 HD
ENDBRANCH  35  36
ENDBRANCH   4  31
TORSDOF 8
ENDMDL
MODEL 7
REMARK VINA RESULT:      -7.8      2.332      4.239
REMARK  8 active torsions:
REMARK  status: ('A' for Active; 'I' for Inactive)
REMARK    1  A    between atoms: O_2  and  C_3 
REMARK    2  A    between atoms: C_10  and  C_11 
REMARK    3  A    between atoms: N_12  and  N_13 
REMARK       I    between atoms: N_13  and  C_14 
REMARK    4  A    between atoms: C_14  and  C_15 
REMARK    5  A    between atoms: N_18  and  C_19 
REMARK    6  A    between atoms: C_23  and  N_24 
REMARK    7  A    between atoms: C_25  and  C_26 
REMARK    8  A    between atoms: C_26  and  N_27 
ROOT
HETATM    1  C   UNL     1     -42.702  56.504 -57.830  1.00  0.00     0.176 C 
HETATM    2  N   UNL     1     -42.869  55.748 -58.953  1.00  0.00    -0.124 NA
HETATM    3  N   UNL     1     -42.763  56.541 -60.002  1.00  0.00    -0.058 NA
HETATM    4  N   UNL     1     -42.604  57.824 -59.582  1.00  0.00    -0.191 N 
HETATM    5  C   UNL     1     -42.425  57.818 -58.193  1.00  0.00     0.102 C 
ENDROOT
BRANCH   1   6
HETATM    6  C   UNL     1     -42.803  55.949 -56.488  1.00  0.00     0.294 C 
HETATM    7  N   UNL     1     -41.894  54.945 -56.218  1.00  0.00    -0.242 N 
HETATM    8  H   UNL     1     -41.233  54.645 -56.933  1.00  0.00     0.192 HD
HETATM    9  O   UNL     1     -43.640  56.388 -55.700  1.00  0.00    -0.264 OA
BRANCH   7  10
HETATM   10  N   UNL     1     -41.893  54.355 -54.991  1.00  0.00    -0.183 NA
HETATM   11  C   UNL     1     -40.767  54.389 -54.348  1.00  0.00     0.153 C 
BRANCH  11  12
HETATM   12  C   UNL     1     -40.630  53.780 -53.008  1.00  0.00     0.020 A 
HETATM   13  C   UNL     1     -40.140  52.473 -52.872  1.00  0.00     0.101 A 
HETATM   14  C   UNL     1     -39.947  51.941 -51.588  1.00  0.00     0.069 A 
HETATM   15 CL   UNL     1     -39.242  50.384 -51.345  1.00  0.00    -0.081 Cl
HETATM   16  C   UNL     1     -40.298  52.682 -50.456  1.00  0.00     0.050 A 
HETATM   17  C   UNL     1     -40.821  53.964 -50.607  1.00  0.00     0.036 A 
HETATM   18 CL   UNL     1     -41.252  54.878 -49.215  1.00  0.00    -0.084 Cl
HETATM   19  C   UNL     1     -40.982  54.521 -51.873  1.00  0.00     0.039 A 
BRANCH  13  20
HETATM   20  O   UNL     1     -39.785  51.770 -53.996  1.00  0.00    -0.353 OA
HETATM   21  C   UNL     1     -40.778  50.793 -54.323  1.00  0.00     0.210 C 
ENDBRANCH  13  20
ENDBRANCH  11  12
ENDBRANCH   7  10
ENDBRANCH   1   6
BRANCH   5  22
HETATM   22  C   UNL     1     -42.130  59.043 -57.396  1.00  0.00     0.296 C 
BRANCH  22  23
HETATM   23  N   UNL     1     -42.939  59.227 -56.120  1.00  0.00    -0.066 N 
HETATM   24  H   UNL     1     -43.230  58.269 -55.834  1.00  0.00     0.280 HD
HETATM   25  C   UNL     1     -42.112  59.790 -54.996  1.00  0.00     0.235 C 
HETATM   26  C   UNL     1     -42.821  59.704 -53.650  1.00  0.00     0.028 C 
HETATM   27  C   UNL     1     -43.941  60.727 -53.497  1.00  0.00     0.002 C 
HETATM   28  C   UNL     1     -45.291  60.283 -54.044  1.00  0.00     0.002 C 
HETATM   29  C   UNL     1     -45.303  59.565 -55.390  1.00  0.00     0.028 C 
HETATM   30  C   UNL     1     -44.226  59.982 -56.383  1.00  0.00     0.235 C 
ENDBRANCH  22  23
ENDBRANCH   5  22
BRANCH   4  31
HETATM   31  C   UNL     1     -42.661  58.919 -60.479  1.00  0.00     0.229 A 
HETATM   32  N   UNL     1     -41.584  59.267 -61.185  1.00  0.00    -0.081 NA
HETATM   33  O   UNL     1     -42.008  60.382 -61.913  1.00  0.00    -0.103 OA
HETATM   34  N   UNL     1     -43.333  60.688 -61.636  1.00  0.00    -0.083 NA
HETATM   35  C   UNL     1     -43.737  59.787 -60.743  1.00  0.00     0.201 A 
BRANCH  35  36
HETATM   36  N   UNL     1     -44.970  59.739 -60.215  1.00  0.00    -0.379 N 
HETATM   37  H   UNL     1     -45.776  59.645 -60.828  1.00  0.00     0.158 HD
HETATM   38  H   UNL     1     -45.192  60.075 -59.280  1.00  0.00     0.158 HD
ENDBRANCH  35  36
ENDBRANCH   4  31
TORSDOF 8
ENDMDL
MODEL 8
REMARK VINA RESULT:      -7.6      4.313      9.245
REMARK  8 active torsions:
REMARK  status: ('A' for Active; 'I' for Inactive)
REMARK    1  A    between atoms: O_2  and  C_3 
REMARK    2  A    between atoms: C_10  and  C_11 
REMARK    3  A    between atoms: N_12  and  N_13 
REMARK       I    between atoms: N_13  and  C_14 
REMARK    4  A    between atoms: C_14  and  C_15 
REMARK    5  A    between atoms: N_18  and  C_19 
REMARK    6  A    between atoms: C_23  and  N_24 
REMARK    7  A    between atoms: C_25  and  C_26 
REMARK    8  A    between atoms: C_26  and  N_27 
ROOT
HETATM    1  C   UNL     1     -41.873  53.882 -54.357  1.00  0.00     0.176 C 
HETATM    2  N   UNL     1     -40.729  53.142 -54.414  1.00  0.00    -0.124 NA
HETATM    3  N   UNL     1     -40.297  52.958 -53.182  1.00  0.00    -0.058 NA
HETATM    4  N   UNL     1     -41.100  53.632 -52.317  1.00  0.00    -0.191 N 
HETATM    5  C   UNL     1     -42.202  54.126 -53.027  1.00  0.00     0.102 C 
ENDROOT
BRANCH   1   6
HETATM    6  C   UNL     1     -42.593  54.308 -55.549  1.00  0.00     0.294 C 
HETATM    7  N   UNL     1     -42.055  55.417 -56.172  1.00  0.00    -0.242 N 
HETATM    8  H   UNL     1     -41.230  55.872 -55.787  1.00  0.00     0.192 HD
HETATM    9  O   UNL     1     -43.583  53.683 -55.929  1.00  0.00    -0.264 OA
BRANCH   7  10
HETATM   10  N   UNL     1     -42.644  55.903 -57.300  1.00  0.00    -0.183 NA
HETATM   11  C   UNL     1     -42.910  57.172 -57.296  1.00  0.00     0.153 C 
BRANCH  11  12
HETATM   12  C   UNL     1     -43.553  57.824 -58.457  1.00  0.00     0.020 A 
HETATM   13  C   UNL     1     -42.894  58.853 -59.145  1.00  0.00     0.101 A 
HETATM   14  C   UNL     1     -43.489  59.407 -60.289  1.00  0.00     0.069 A 
HETATM   15 CL   UNL     1     -42.683  60.595 -61.249  1.00  0.00    -0.081 Cl
HETATM   16  C   UNL     1     -44.754  58.983 -60.702  1.00  0.00     0.050 A 
HETATM   17  C   UNL     1     -45.416  57.989 -59.985  1.00  0.00     0.036 A 
HETATM   18 CL   UNL     1     -46.974  57.465 -60.493  1.00  0.00    -0.084 Cl
HETATM   19  C   UNL     1     -44.822  57.401 -58.871  1.00  0.00     0.039 A 
BRANCH  13  20
HETATM   20  O   UNL     1     -41.643  59.241 -58.733  1.00  0.00    -0.353 OA
HETATM   21  C   UNL     1     -41.713  60.428 -57.936  1.00  0.00     0.210 C 
ENDBRANCH  13  20
ENDBRANCH  11  12
ENDBRANCH   7  10
ENDBRANCH   1   6
BRANCH   5  22
HETATM   22  C   UNL     1     -43.342  54.841 -52.386  1.00  0.00     0.296 C 
BRANCH  22  23
HETATM   23  N   UNL     1     -43.387  56.350 -52.584  1.00  0.00    -0.066 N 
HETATM   24  H   UNL     1     -42.438  56.614 -52.921  1.00  0.00     0.280 HD
HETATM   25  C   UNL     1     -44.364  56.755 -53.655  1.00  0.00     0.235 C 
HETATM   26  C   UNL     1     -44.207  58.214 -54.065  1.00  0.00     0.028 C 
HETATM   27  C   UNL     1     -44.755  59.189 -53.029  1.00  0.00     0.002 C 
HETATM   28  C   UNL     1     -43.774  59.571 -51.929  1.00  0.00     0.002 C 
HETATM   29  C   UNL     1     -42.925  58.455 -51.325  1.00  0.00     0.028 C 
HETATM   30  C   UNL     1     -43.570  57.077 -51.268  1.00  0.00     0.235 C 
ENDBRANCH  22  23
ENDBRANCH   5  22
BRANCH   4  31
HETATM   31  C   UNL     1     -40.770  53.783 -50.948  1.00  0.00     0.229 A 
HETATM   32  N   UNL     1     -40.727  54.997 -50.397  1.00  0.00    -0.081 NA
HETATM   33  O   UNL     1     -40.343  54.750 -49.076  1.00  0.00    -0.103 OA
HETATM   34  N   UNL     1     -40.162  53.393 -48.851  1.00  0.00    -0.083 NA
HETATM   35  C   UNL     1     -40.420  52.793 -50.011  1.00  0.00     0.201 A 
BRANCH  35  36
HETATM   36  N   UNL     1     -40.356  51.467 -50.214  1.00  0.00    -0.379 N 
HETATM   37  H   UNL     1     -40.620  51.084 -51.118  1.00  0.00     0.158 HD
HETATM   38  H   UNL     1     -40.341  50.786 -49.458  1.00  0.00     0.158 HD
ENDBRANCH  35  36
ENDBRANCH   4  31
TORSDOF 8
ENDMDL
MODEL 9
REMARK VINA RESULT:      -7.6     17.320     20.336
REMARK  8 active torsions:
REMARK  status: ('A' for Active; 'I' for Inactive)
REMARK    1  A    between atoms: O_2  and  C_3 
REMARK    2  A    between atoms: C_10  and  C_11 
REMARK    3  A    between atoms: N_12  and  N_13 
REMARK       I    between atoms: N_13  and  C_14 
REMARK    4  A    between atoms: C_14  and  C_15 
REMARK    5  A    between atoms: N_18  and  C_19 
REMARK    6  A    between atoms: C_23  and  N_24 
REMARK    7  A    between atoms: C_25  and  C_26 
REMARK    8  A    between atoms: C_26  and  N_27 
ROOT
HETATM    1  C   UNL     1     -35.987  41.463 -55.525  1.00  0.00     0.176 C 
HETATM    2  N   UNL     1     -36.254  42.625 -54.863  1.00  0.00    -0.124 NA
HETATM    3  N   UNL     1     -35.791  42.513 -53.632  1.00  0.00    -0.058 NA
HETATM    4  N   UNL     1     -35.290  41.262 -53.452  1.00  0.00    -0.191 N 
HETATM    5  C   UNL     1     -35.278  40.605 -54.689  1.00  0.00     0.102 C 
ENDROOT
BRANCH   1   6
HETATM    6  C   UNL     1     -36.405  41.229 -56.900  1.00  0.00     0.294 C 
HETATM    7  N   UNL     1     -37.647  40.639 -57.024  1.00  0.00    -0.242 N 
HETATM    8  H   UNL     1     -38.186  40.396 -56.195  1.00  0.00     0.192 HD
HETATM    9  O   UNL     1     -35.674  41.564 -57.832  1.00  0.00    -0.264 OA
BRANCH   7  10
HETATM   10  N   UNL     1     -38.143  40.377 -58.265  1.00  0.00    -0.183 NA
HETATM   11  C   UNL     1     -37.993  39.160 -58.688  1.00  0.00     0.153 C 
BRANCH  11  12
HETATM   12  C   UNL     1     -38.481  38.744 -60.020  1.00  0.00     0.020 A 
HETATM   13  C   UNL     1     -37.640  38.829 -61.140  1.00  0.00     0.101 A 
HETATM   14  C   UNL     1     -38.098  38.360 -62.380  1.00  0.00     0.069 A 
HETATM   15 CL   UNL     1     -37.078  38.329 -63.773  1.00  0.00    -0.081 Cl
HETATM   16  C   UNL     1     -39.399  37.871 -62.514  1.00  0.00     0.050 A 
HETATM   17  C   UNL     1     -40.237  37.830 -61.402  1.00  0.00     0.036 A 
HETATM   18 CL   UNL     1     -41.841  37.227 -61.565  1.00  0.00    -0.084 Cl
HETATM   19  C   UNL     1     -39.786  38.255 -60.156  1.00  0.00     0.039 A 
BRANCH  13  20
HETATM   20  O   UNL     1     -36.359  39.296 -60.982  1.00  0.00    -0.353 OA
HETATM   21  C   UNL     1     -35.437  38.213 -60.821  1.00  0.00     0.210 C 
ENDBRANCH  13  20
ENDBRANCH  11  12
ENDBRANCH   7  10
ENDBRANCH   1   6
BRANCH   5  22
HETATM   22  C   UNL     1     -34.708  39.243 -54.892  1.00  0.00     0.296 C 
BRANCH  22  23
HETATM   23  N   UNL     1     -33.194  39.159 -55.018  1.00  0.00    -0.066 N 
HETATM   24  H   UNL     1     -32.825  39.978 -54.492  1.00  0.00     0.280 HD
HETATM   25  C   UNL     1     -32.635  37.925 -54.360  1.00  0.00     0.235 C 
HETATM   26  C   UNL     1     -31.119  37.975 -54.220  1.00  0.00     0.028 C 
HETATM   27  C   UNL     1     -30.388  37.747 -55.539  1.00  0.00     0.002 C 
HETATM   28  C   UNL     1     -30.181  39.000 -56.379  1.00  0.00     0.002 C 
HETATM   29  C   UNL     1     -31.351  39.973 -56.492  1.00  0.00     0.028 C 
HETATM   30  C   UNL     1     -32.743  39.357 -56.451  1.00  0.00     0.235 C 
ENDBRANCH  22  23
ENDBRANCH   5  22
BRANCH   4  31
HETATM   31  C   UNL     1     -34.905  40.785 -52.175  1.00  0.00     0.229 A 
HETATM   32  N   UNL     1     -35.825  40.330 -51.322  1.00  0.00    -0.081 NA
HETATM   33  O   UNL     1     -35.086  39.988 -50.186  1.00  0.00    -0.103 OA
HETATM   34  N   UNL     1     -33.734  40.241 -50.372  1.00  0.00    -0.083 NA
HETATM   35  C   UNL     1     -33.622  40.740 -51.601  1.00  0.00     0.201 A 
BRANCH  35  36
HETATM   36  N   UNL     1     -32.463  41.117 -52.166  1.00  0.00    -0.379 N 
HETATM   37  H   UNL     1     -31.587  40.945 -51.679  1.00  0.00     0.158 HD
HETATM   38  H   UNL     1     -32.402  41.814 -52.905  1.00  0.00     0.158 HD
ENDBRANCH  35  36
ENDBRANCH   4  31
TORSDOF 8
ENDMDL
MODEL 10
REMARK VINA RESULT:      -7.4      1.452      2.014
REMARK  8 active torsions:
REMARK  status: ('A' for Active; 'I' for Inactive)
REMARK    1  A    between atoms: O_2  and  C_3 
REMARK    2  A    between atoms: C_10  and  C_11 
REMARK    3  A    between atoms: N_12  and  N_13 
REMARK       I    between atoms: N_13  and  C_14 
REMARK    4  A    between atoms: C_14  and  C_15 
REMARK    5  A    between atoms: N_18  and  C_19 
REMARK    6  A    between atoms: C_23  and  N_24 
REMARK    7  A    between atoms: C_25  and  C_26 
REMARK    8  A    between atoms: C_26  and  N_27 
ROOT
HETATM    1  C   UNL     1     -43.897  58.548 -55.191  1.00  0.00     0.176 C 
HETATM    2  N   UNL     1     -44.660  59.582 -54.735  1.00  0.00    -0.124 NA
HETATM    3  N   UNL     1     -44.748  60.483 -55.695  1.00  0.00    -0.058 NA
HETATM    4  N   UNL     1     -43.989  60.090 -56.752  1.00  0.00    -0.191 N 
HETATM    5  C   UNL     1     -43.536  58.785 -56.514  1.00  0.00     0.102 C 
ENDROOT
BRANCH   1   6
HETATM    6  C   UNL     1     -43.559  57.398 -54.365  1.00  0.00     0.294 C 
HETATM    7  N   UNL     1     -42.971  56.356 -55.055  1.00  0.00    -0.242 N 
HETATM    8  H   UNL     1     -42.816  56.427 -56.059  1.00  0.00     0.192 HD
HETATM    9  O   UNL     1     -43.789  57.417 -53.156  1.00  0.00    -0.264 OA
BRANCH   7  10
HETATM   10  N   UNL     1     -42.608  55.228 -54.383  1.00  0.00    -0.183 NA
HETATM   11  C   UNL     1     -41.337  55.082 -54.170  1.00  0.00     0.153 C 
BRANCH  11  12
HETATM   12  C   UNL     1     -40.810  53.899 -53.456  1.00  0.00     0.020 A 
HETATM   13  C   UNL     1     -40.707  53.905 -52.058  1.00  0.00     0.101 A 
HETATM   14  C   UNL     1     -40.275  52.746 -51.395  1.00  0.00     0.069 A 
HETATM   15 CL   UNL     1     -40.234  52.645 -49.672  1.00  0.00    -0.081 Cl
HETATM   16  C   UNL     1     -39.891  51.618 -52.124  1.00  0.00     0.050 A 
HETATM   17  C   UNL     1     -39.959  51.640 -53.514  1.00  0.00     0.036 A 
HETATM   18 CL   UNL     1     -39.486  50.251 -54.413  1.00  0.00    -0.084 Cl
HETATM   19  C   UNL     1     -40.422  52.768 -54.186  1.00  0.00     0.039 A 
BRANCH  13  20
HETATM   20  O   UNL     1     -41.108  55.017 -51.361  1.00  0.00    -0.353 OA
HETATM   21  C   UNL     1     -42.434  54.849 -50.848  1.00  0.00     0.210 C 
ENDBRANCH  13  20
ENDBRANCH  11  12
ENDBRANCH   7  10
ENDBRANCH   1   6
BRANCH   5  22
HETATM   22  C   UNL     1     -42.750  57.994 -57.502  1.00  0.00     0.296 C 
BRANCH  22  23
HETATM   23  N   UNL     1     -43.549  57.292 -58.591  1.00  0.00    -0.066 N 
HETATM   24  H   UNL     1     -43.372  57.836 -59.461  1.00  0.00     0.280 HD
HETATM   25  C   UNL     1     -43.062  55.890 -58.842  1.00  0.00     0.235 C 
HETATM   26  C   UNL     1     -43.649  55.288 -60.113  1.00  0.00     0.028 C 
HETATM   27  C   UNL     1     -45.110  54.879 -59.962  1.00  0.00     0.002 C 
HETATM   28  C   UNL     1     -46.114  55.992 -60.230  1.00  0.00     0.002 C 
HETATM   29  C   UNL     1     -45.806  57.372 -59.656  1.00  0.00     0.028 C 
HETATM   30  C   UNL     1     -45.040  57.396 -58.340  1.00  0.00     0.235 C 
ENDBRANCH  22  23
ENDBRANCH   5  22
BRANCH   4  31
HETATM   31  C   UNL     1     -43.731  60.947 -57.850  1.00  0.00     0.229 A 
HETATM   32  N   UNL     1     -44.628  61.074 -58.829  1.00  0.00    -0.081 NA
HETATM   33  O   UNL     1     -44.020  61.957 -59.726  1.00  0.00    -0.103 OA
HETATM   34  N   UNL     1     -42.767  62.347 -59.274  1.00  0.00    -0.083 NA
HETATM   35  C   UNL     1     -42.585  61.718 -58.116  1.00  0.00     0.201 A 
BRANCH  35  36
HETATM   36  N   UNL     1     -41.485  61.831 -57.353  1.00  0.00    -0.379 N 
HETATM   37  H   UNL     1     -40.998  62.723 -57.304  1.00  0.00     0.158 HD
HETATM   38  H   UNL     1     -40.931  61.034 -57.047  1.00  0.00     0.158 HD
ENDBRANCH  35  36
ENDBRANCH   4  31
TORSDOF 8
ENDMDL
