MODEL 1
REMARK VINA RESULT:      -7.8      0.000      0.000
REMARK  10 active torsions:
REMARK  status: ('A' for Active; 'I' for Inactive)
REMARK    1  A    between atoms: C_9  and  S_10 
REMARK    2  A    between atoms: S_10  and  C_11 
REMARK    3  A    between atoms: C_11  and  C_12 
REMARK       I    between atoms: C_12  and  N_13 
REMARK    4  A    between atoms: N_13  and  C_14 
REMARK    5  A    between atoms: C_14  and  C_15 
REMARK    6  A    between atoms: C_15  and  C_16 
REMARK    7  A    between atoms: C_19  and  S_20 
REMARK    8  A    between atoms: S_20  and  N_21 
REMARK    9  A    between atoms: N_27  and  C_28 
REMARK   10  A    between atoms: C_35  and  N_36 
ROOT
HETATM    1  C   UNL     1     -39.875  50.671 -54.324  1.00  0.00     0.073 C 
HETATM    2  C   UNL     1     -39.921  51.534 -53.114  1.00  0.00     0.068 A 
HETATM    3  N   UNL     1     -39.406  51.074 -51.967  1.00  0.00    -0.177 NA
HETATM    4  N   UNL     1     -39.635  52.056 -51.084  1.00  0.00    -0.260 N 
HETATM    5  H   UNL     1     -39.336  51.932 -50.122  1.00  0.00     0.191 HD
HETATM    6  C   UNL     1     -40.287  53.124 -51.629  1.00  0.00     0.162 A 
HETATM    7  C   UNL     1     -40.474  52.842 -52.966  1.00  0.00     0.081 A 
HETATM    8  N   UNL     1     -40.680  54.220 -50.979  1.00  0.00    -0.204 NA
HETATM    9  C   UNL     1     -41.325  55.086 -51.793  1.00  0.00     0.177 A 
HETATM   10  N   UNL     1     -41.543  54.896 -53.125  1.00  0.00    -0.276 N 
HETATM   11  C   UNL     1     -41.110  53.787 -53.788  1.00  0.00     0.124 A 
ENDROOT
BRANCH   9  12
HETATM   12  S   UNL     1     -42.046  56.475 -50.899  1.00  0.00    -0.082 SA
BRANCH  12  13
HETATM   13  C   UNL     1     -40.558  57.510 -50.705  1.00  0.00     0.185 C 
BRANCH  13  14
HETATM   14  C   UNL     1     -40.658  58.763 -51.564  1.00  0.00     0.227 C 
HETATM   15  N   UNL     1     -41.949  59.122 -51.886  1.00  0.00    -0.360 N 
HETATM   16  H   UNL     1     -42.710  58.701 -51.364  1.00  0.00     0.162 HD
HETATM   17  O   UNL     1     -39.663  59.385 -51.940  1.00  0.00    -0.273 OA
BRANCH  15  18
HETATM   18  C   UNL     1     -42.254  60.354 -52.599  1.00  0.00     0.127 C 
BRANCH  18  19
HETATM   19  C   UNL     1     -43.758  60.639 -52.607  1.00  0.00     0.058 C 
BRANCH  19  20
HETATM   20  C   UNL     1     -44.336  60.695 -51.216  1.00  0.00    -0.057 A 
HETATM   21  C   UNL     1     -43.907  61.671 -50.304  1.00  0.00     0.009 A 
HETATM   22  C   UNL     1     -44.431  61.707 -49.009  1.00  0.00     0.025 A 
HETATM   23  C   UNL     1     -45.391  60.768 -48.627  1.00  0.00     0.074 A 
HETATM   24  C   UNL     1     -45.818  59.782 -49.520  1.00  0.00     0.025 A 
HETATM   25  C   UNL     1     -45.293  59.751 -50.812  1.00  0.00     0.009 A 
BRANCH  23  26
HETATM   26  S   UNL     1     -46.015  60.775 -46.971  1.00  0.00     0.239 S 
HETATM   27  O   UNL     1     -46.507  59.457 -46.648  1.00  0.00    -0.206 OA
HETATM   28  O   UNL     1     -45.087  61.487 -46.123  1.00  0.00    -0.206 OA
BRANCH  26  29
HETATM   29  N   UNL     1     -47.368  61.759 -47.111  1.00  0.00    -0.225 NA
HETATM   30  H   UNL     1     -47.382  62.200 -48.031  1.00  0.00     0.136 HD
HETATM   31  H   UNL     1     -48.211  61.221 -46.907  1.00  0.00     0.136 HD
ENDBRANCH  26  29
ENDBRANCH  23  26
ENDBRANCH  19  20
ENDBRANCH  18  19
ENDBRANCH  15  18
ENDBRANCH  13  14
ENDBRANCH  12  13
ENDBRANCH   9  12
BRANCH  10  32
HETATM   32  C   UNL     1     -42.296  55.873 -53.859  1.00  0.00     0.043 A 
HETATM   33  C   UNL     1     -43.691  55.830 -53.817  1.00  0.00     0.031 A 
HETATM   34  C   UNL     1     -44.411  56.804 -54.511  1.00  0.00     0.021 A 
HETATM   35  C   UNL     1     -43.732  57.803 -55.214  1.00  0.00     0.011 A 
HETATM   36 BR   UNL     1     -44.716  59.118 -56.148  1.00  0.00    -0.051 Br
HETATM   37  C   UNL     1     -42.334  57.845 -55.230  1.00  0.00     0.021 A 
HETATM   38  C   UNL     1     -41.603  56.875 -54.545  1.00  0.00     0.031 A 
ENDBRANCH  10  32
BRANCH  11  39
HETATM   39  N   UNL     1     -41.312  53.589 -55.151  1.00  0.00    -0.384 N 
HETATM   40  H   UNL     1     -41.623  54.353 -55.740  1.00  0.00     0.157 HD
HETATM   41  H   UNL     1     -40.699  52.934 -55.627  1.00  0.00     0.157 HD
ENDBRANCH  11  39
TORSDOF 10
ENDMDL
MODEL 2
REMARK VINA RESULT:      -7.8      4.699      7.773
REMARK  10 active torsions:
REMARK  status: ('A' for Active; 'I' for Inactive)
REMARK    1  A    between atoms: C_9  and  S_10 
REMARK    2  A    between atoms: S_10  and  C_11 
REMARK    3  A    between atoms: C_11  and  C_12 
REMARK       I    between atoms: C_12  and  N_13 
REMARK    4  A    between atoms: N_13  and  C_14 
REMARK    5  A    between atoms: C_14  and  C_15 
REMARK    6  A    between atoms: C_15  and  C_16 
REMARK    7  A    between atoms: C_19  and  S_20 
REMARK    8  A    between atoms: S_20  and  N_21 
REMARK    9  A    between atoms: N_27  and  C_28 
REMARK   10  A    between atoms: C_35  and  N_36 
ROOT
HETATM    1  C   UNL     1     -39.876  53.590 -50.184  1.00  0.00     0.073 C 
HETATM    2  C   UNL     1     -40.516  53.793 -51.510  1.00  0.00     0.068 A 
HETATM    3  N   UNL     1     -40.207  52.964 -52.515  1.00  0.00    -0.177 NA
HETATM    4  N   UNL     1     -40.909  53.431 -53.557  1.00  0.00    -0.260 N 
HETATM    5  H   UNL     1     -40.830  52.962 -54.454  1.00  0.00     0.191 HD
HETATM    6  C   UNL     1     -41.650  54.537 -53.252  1.00  0.00     0.162 A 
HETATM    7  C   UNL     1     -41.446  54.799 -51.913  1.00  0.00     0.081 A 
HETATM    8  N   UNL     1     -42.407  55.235 -54.098  1.00  0.00    -0.204 NA
HETATM    9  C   UNL     1     -42.995  56.293 -53.497  1.00  0.00     0.177 A 
HETATM   10  N   UNL     1     -42.861  56.620 -52.179  1.00  0.00    -0.276 N 
HETATM   11  C   UNL     1     -42.109  55.883 -51.314  1.00  0.00     0.124 A 
ENDROOT
BRANCH   9  12
HETATM   12  S   UNL     1     -43.854  57.367 -54.661  1.00  0.00    -0.082 SA
BRANCH  12  13
HETATM   13  C   UNL     1     -42.429  58.296 -55.318  1.00  0.00     0.185 C 
BRANCH  13  14
HETATM   14  C   UNL     1     -42.890  59.372 -56.291  1.00  0.00     0.227 C 
HETATM   15  N   UNL     1     -41.881  59.894 -57.072  1.00  0.00    -0.360 N 
HETATM   16  H   UNL     1     -41.001  59.391 -57.119  1.00  0.00     0.162 HD
HETATM   17  O   UNL     1     -44.063  59.742 -56.357  1.00  0.00    -0.273 OA
BRANCH  15  18
HETATM   18  C   UNL     1     -42.144  60.846 -58.141  1.00  0.00     0.127 C 
BRANCH  18  19
HETATM   19  C   UNL     1     -41.821  60.250 -59.514  1.00  0.00     0.058 C 
BRANCH  19  20
HETATM   20  C   UNL     1     -42.576  58.971 -59.774  1.00  0.00    -0.057 A 
HETATM   21  C   UNL     1     -43.955  58.997 -60.030  1.00  0.00     0.009 A 
HETATM   22  C   UNL     1     -44.655  57.809 -60.252  1.00  0.00     0.025 A 
HETATM   23  C   UNL     1     -43.973  56.590 -60.223  1.00  0.00     0.074 A 
HETATM   24  C   UNL     1     -42.603  56.548 -59.956  1.00  0.00     0.025 A 
HETATM   25  C   UNL     1     -41.908  57.738 -59.737  1.00  0.00     0.009 A 
BRANCH  23  26
HETATM   26  S   UNL     1     -44.866  55.079 -60.447  1.00  0.00     0.239 S 
HETATM   27  O   UNL     1     -44.950  54.787 -61.858  1.00  0.00    -0.206 OA
HETATM   28  O   UNL     1     -44.399  54.112 -59.481  1.00  0.00    -0.206 OA
BRANCH  26  29
HETATM   29  N   UNL     1     -46.413  55.512 -59.964  1.00  0.00    -0.225 NA
HETATM   30  H   UNL     1     -46.515  55.371 -58.958  1.00  0.00     0.136 HD
HETATM   31  H   UNL     1     -46.615  56.468 -60.261  1.00  0.00     0.136 HD
ENDBRANCH  26  29
ENDBRANCH  23  26
ENDBRANCH  19  20
ENDBRANCH  18  19
ENDBRANCH  15  18
ENDBRANCH  13  14
ENDBRANCH  12  13
ENDBRANCH   9  12
BRANCH  10  32
HETATM   32  C   UNL     1     -43.495  57.808 -51.684  1.00  0.00     0.043 A 
HETATM   33  C   UNL     1     -44.830  57.751 -51.280  1.00  0.00     0.031 A 
HETATM   34  C   UNL     1     -45.426  58.906 -50.772  1.00  0.00     0.021 A 
HETATM   35  C   UNL     1     -44.680  60.083 -50.663  1.00  0.00     0.011 A 
HETATM   36 BR   UNL     1     -45.495  61.641 -49.971  1.00  0.00    -0.051 Br
HETATM   37  C   UNL     1     -43.338  60.121 -51.052  1.00  0.00     0.021 A 
HETATM   38  C   UNL     1     -42.732  58.974 -51.565  1.00  0.00     0.031 A 
ENDBRANCH  10  32
BRANCH  11  39
HETATM   39  N   UNL     1     -41.979  56.197 -49.964  1.00  0.00    -0.384 N 
HETATM   40  H   UNL     1     -42.768  56.098 -49.335  1.00  0.00     0.157 HD
HETATM   41  H   UNL     1     -41.084  56.012 -49.522  1.00  0.00     0.157 HD
ENDBRANCH  11  39
TORSDOF 10
ENDMDL
MODEL 3
REMARK VINA RESULT:      -7.8      5.439      9.510
REMARK  10 active torsions:
REMARK  status: ('A' for Active; 'I' for Inactive)
REMARK    1  A    between atoms: C_9  and  S_10 
REMARK    2  A    between atoms: S_10  and  C_11 
REMARK    3  A    between atoms: C_11  and  C_12 
REMARK       I    between atoms: C_12  and  N_13 
REMARK    4  A    between atoms: N_13  and  C_14 
REMARK    5  A    between atoms: C_14  and  C_15 
REMARK    6  A    between atoms: C_15  and  C_16 
REMARK    7  A    between atoms: C_19  and  S_20 
REMARK    8  A    between atoms: S_20  and  N_21 
REMARK    9  A    between atoms: N_27  and  C_28 
REMARK   10  A    between atoms: C_35  and  N_36 
ROOT
HETATM    1  C   UNL     1     -39.955  63.051 -61.658  1.00  0.00     0.073 C 
HETATM    2  C   UNL     1     -40.271  62.801 -60.227  1.00  0.00     0.068 A 
HETATM    3  N   UNL     1     -39.812  63.652 -59.301  1.00  0.00    -0.177 NA
HETATM    4  N   UNL     1     -40.231  63.133 -58.138  1.00  0.00    -0.260 N 
HETATM    5  H   UNL     1     -39.992  63.608 -57.274  1.00  0.00     0.191 HD
HETATM    6  C   UNL     1     -40.934  61.973 -58.291  1.00  0.00     0.162 A 
HETATM    7  C   UNL     1     -41.011  61.726 -59.646  1.00  0.00     0.081 A 
HETATM    8  N   UNL     1     -41.432  61.220 -57.311  1.00  0.00    -0.204 NA
HETATM    9  C   UNL     1     -42.056  60.118 -57.786  1.00  0.00     0.177 A 
HETATM   10  N   UNL     1     -42.190  59.802 -59.105  1.00  0.00    -0.276 N 
HETATM   11  C   UNL     1     -41.705  60.593 -60.102  1.00  0.00     0.124 A 
ENDROOT
BRANCH   9  12
HETATM   12  S   UNL     1     -42.554  58.983 -56.478  1.00  0.00    -0.082 SA
BRANCH  12  13
HETATM   13  C   UNL     1     -42.179  60.018 -55.025  1.00  0.00     0.185 C 
BRANCH  13  14
HETATM   14  C   UNL     1     -41.476  59.201 -53.949  1.00  0.00     0.227 C 
HETATM   15  N   UNL     1     -41.726  57.848 -54.017  1.00  0.00    -0.360 N 
HETATM   16  H   UNL     1     -42.137  57.477 -54.868  1.00  0.00     0.162 HD
HETATM   17  O   UNL     1     -40.758  59.720 -53.093  1.00  0.00    -0.273 OA
BRANCH  15  18
HETATM   18  C   UNL     1     -41.053  56.892 -53.151  1.00  0.00     0.127 C 
BRANCH  18  19
HETATM   19  C   UNL     1     -41.996  55.766 -52.719  1.00  0.00     0.058 C 
BRANCH  19  20
HETATM   20  C   UNL     1     -41.402  54.401 -52.959  1.00  0.00    -0.057 A 
HETATM   21  C   UNL     1     -41.677  53.702 -54.144  1.00  0.00     0.009 A 
HETATM   22  C   UNL     1     -41.141  52.429 -54.354  1.00  0.00     0.025 A 
HETATM   23  C   UNL     1     -40.321  51.855 -53.379  1.00  0.00     0.074 A 
HETATM   24  C   UNL     1     -40.049  52.534 -52.189  1.00  0.00     0.025 A 
HETATM   25  C   UNL     1     -40.587  53.806 -51.984  1.00  0.00     0.009 A 
BRANCH  23  26
HETATM   26  S   UNL     1     -39.686  50.221 -53.617  1.00  0.00     0.239 S 
HETATM   27  O   UNL     1     -38.445  50.301 -54.351  1.00  0.00    -0.206 OA
HETATM   28  O   UNL     1     -39.810  49.485 -52.380  1.00  0.00    -0.206 OA
BRANCH  26  29
HETATM   29  N   UNL     1     -40.812  49.558 -54.670  1.00  0.00    -0.225 NA
HETATM   30  H   UNL     1     -40.428  48.717 -55.103  1.00  0.00     0.136 HD
HETATM   31  H   UNL     1     -41.692  49.395 -54.179  1.00  0.00     0.136 HD
ENDBRANCH  26  29
ENDBRANCH  23  26
ENDBRANCH  19  20
ENDBRANCH  18  19
ENDBRANCH  15  18
ENDBRANCH  13  14
ENDBRANCH  12  13
ENDBRANCH   9  12
BRANCH  10  32
HETATM   32  C   UNL     1     -42.825  58.567 -59.468  1.00  0.00     0.043 A 
HETATM   33  C   UNL     1     -42.051  57.412 -59.587  1.00  0.00     0.031 A 
HETATM   34  C   UNL     1     -42.686  56.212 -59.911  1.00  0.00     0.021 A 
HETATM   35  C   UNL     1     -44.071  56.184 -60.095  1.00  0.00     0.011 A 
HETATM   36 BR   UNL     1     -44.921  54.554 -60.531  1.00  0.00    -0.051 Br
HETATM   37  C   UNL     1     -44.836  57.345 -59.952  1.00  0.00     0.021 A 
HETATM   38  C   UNL     1     -44.214  58.552 -59.633  1.00  0.00     0.031 A 
ENDBRANCH  10  32
BRANCH  11  39
HETATM   39  N   UNL     1     -41.851  60.289 -61.453  1.00  0.00    -0.384 N 
HETATM   40  H   UNL     1     -42.744  59.974 -61.815  1.00  0.00     0.157 HD
HETATM   41  H   UNL     1     -41.314  60.836 -62.119  1.00  0.00     0.157 HD
ENDBRANCH  11  39
TORSDOF 10
ENDMDL
MODEL 4
REMARK VINA RESULT:      -7.4      2.931      4.947
REMARK  10 active torsions:
REMARK  status: ('A' for Active; 'I' for Inactive)
REMARK    1  A    between atoms: C_9  and  S_10 
REMARK    2  A    between atoms: S_10  and  C_11 
REMARK    3  A    between atoms: C_11  and  C_12 
REMARK       I    between atoms: C_12  and  N_13 
REMARK    4  A    between atoms: N_13  and  C_14 
REMARK    5  A    between atoms: C_14  and  C_15 
REMARK    6  A    between atoms: C_15  and  C_16 
REMARK    7  A    between atoms: C_19  and  S_20 
REMARK    8  A    between atoms: S_20  and  N_21 
REMARK    9  A    between atoms: N_27  and  C_28 
REMARK   10  A    between atoms: C_35  and  N_36 
ROOT
HETATM    1  C   UNL     1     -44.682  56.917 -59.066  1.00  0.00     0.073 C 
HETATM    2  C   UNL     1     -44.090  57.794 -58.022  1.00  0.00     0.068 A 
HETATM    3  N   UNL     1     -44.225  59.121 -58.133  1.00  0.00    -0.177 NA
HETATM    4  N   UNL     1     -43.562  59.611 -57.076  1.00  0.00    -0.260 N 
HETATM    5  H   UNL     1     -43.516  60.617 -56.948  1.00  0.00     0.191 HD
HETATM    6  C   UNL     1     -43.002  58.639 -56.297  1.00  0.00     0.162 A 
HETATM    7  C   UNL     1     -43.342  57.427 -56.862  1.00  0.00     0.081 A 
HETATM    8  N   UNL     1     -42.255  58.835 -55.212  1.00  0.00    -0.204 NA
HETATM    9  C   UNL     1     -41.824  57.671 -54.676  1.00  0.00     0.177 A 
HETATM   10  N   UNL     1     -42.121  56.430 -55.158  1.00  0.00    -0.276 N 
HETATM   11  C   UNL     1     -42.912  56.238 -56.251  1.00  0.00     0.124 A 
ENDROOT
BRANCH   9  12
HETATM   12  S   UNL     1     -40.646  57.915 -53.334  1.00  0.00    -0.082 SA
BRANCH  12  13
HETATM   13  C   UNL     1     -41.812  58.213 -51.964  1.00  0.00     0.185 C 
BRANCH  13  14
HETATM   14  C   UNL     1     -41.892  59.698 -51.639  1.00  0.00     0.227 C 
HETATM   15  N   UNL     1     -42.527  60.450 -52.603  1.00  0.00    -0.360 N 
HETATM   16  H   UNL     1     -43.079  59.967 -53.304  1.00  0.00     0.162 HD
HETATM   17  O   UNL     1     -41.417  60.173 -50.607  1.00  0.00    -0.273 OA
BRANCH  15  18
HETATM   18  C   UNL     1     -42.806  61.867 -52.419  1.00  0.00     0.127 C 
BRANCH  18  19
HETATM   19  C   UNL     1     -44.297  62.119 -52.183  1.00  0.00     0.058 C 
BRANCH  19  20
HETATM   20  C   UNL     1     -44.729  61.726 -50.792  1.00  0.00    -0.057 A 
HETATM   21  C   UNL     1     -45.401  60.515 -50.570  1.00  0.00     0.009 A 
HETATM   22  C   UNL     1     -45.817  60.164 -49.284  1.00  0.00     0.025 A 
HETATM   23  C   UNL     1     -45.555  61.023 -48.214  1.00  0.00     0.074 A 
HETATM   24  C   UNL     1     -44.898  62.238 -48.423  1.00  0.00     0.025 A 
HETATM   25  C   UNL     1     -44.484  62.584 -49.710  1.00  0.00     0.009 A 
BRANCH  23  26
HETATM   26  S   UNL     1     -46.130  60.607 -46.593  1.00  0.00     0.239 S 
HETATM   27  O   UNL     1     -45.007  60.594 -45.685  1.00  0.00    -0.206 OA
HETATM   28  O   UNL     1     -47.339  61.349 -46.321  1.00  0.00    -0.206 OA
BRANCH  26  29
HETATM   29  N   UNL     1     -46.595  59.007 -46.787  1.00  0.00    -0.225 NA
HETATM   30  H   UNL     1     -47.558  58.965 -47.122  1.00  0.00     0.136 HD
HETATM   31  H   UNL     1     -45.933  58.523 -47.394  1.00  0.00     0.136 HD
ENDBRANCH  26  29
ENDBRANCH  23  26
ENDBRANCH  19  20
ENDBRANCH  18  19
ENDBRANCH  15  18
ENDBRANCH  13  14
ENDBRANCH  12  13
ENDBRANCH   9  12
BRANCH  10  32
HETATM   32  C   UNL     1     -41.548  55.277 -54.525  1.00  0.00     0.043 A 
HETATM   33  C   UNL     1     -42.169  54.738 -53.397  1.00  0.00     0.031 A 
HETATM   34  C   UNL     1     -41.618  53.599 -52.809  1.00  0.00     0.021 A 
HETATM   35  C   UNL     1     -40.476  53.014 -53.362  1.00  0.00     0.011 A 
HETATM   36 BR   UNL     1     -39.739  51.470 -52.560  1.00  0.00    -0.051 Br
HETATM   37  C   UNL     1     -39.876  53.552 -54.504  1.00  0.00     0.021 A 
HETATM   38  C   UNL     1     -40.414  54.693 -55.099  1.00  0.00     0.031 A 
ENDBRANCH  10  32
BRANCH  11  39
HETATM   39  N   UNL     1     -43.235  54.976 -56.742  1.00  0.00    -0.384 N 
HETATM   40  H   UNL     1     -43.445  54.845 -57.725  1.00  0.00     0.157 HD
HETATM   41  H   UNL     1     -42.781  54.174 -56.314  1.00  0.00     0.157 HD
ENDBRANCH  11  39
TORSDOF 10
ENDMDL
MODEL 5
REMARK VINA RESULT:      -7.3      5.492      9.076
REMARK  10 active torsions:
REMARK  status: ('A' for Active; 'I' for Inactive)
REMARK    1  A    between atoms: C_9  and  S_10 
REMARK    2  A    between atoms: S_10  and  C_11 
REMARK    3  A    between atoms: C_11  and  C_12 
REMARK       I    between atoms: C_12  and  N_13 
REMARK    4  A    between atoms: N_13  and  C_14 
REMARK    5  A    between atoms: C_14  and  C_15 
REMARK    6  A    between atoms: C_15  and  C_16 
REMARK    7  A    between atoms: C_19  and  S_20 
REMARK    8  A    between atoms: S_20  and  N_21 
REMARK    9  A    between atoms: N_27  and  C_28 
REMARK   10  A    between atoms: C_35  and  N_36 
ROOT
HETATM    1  C   UNL     1     -39.586  62.913 -62.227  1.00  0.00     0.073 C 
HETATM    2  C   UNL     1     -40.230  62.995 -60.889  1.00  0.00     0.068 A 
HETATM    3  N   UNL     1     -39.956  64.039 -60.098  1.00  0.00    -0.177 NA
HETATM    4  N   UNL     1     -40.651  63.797 -58.977  1.00  0.00    -0.260 N 
HETATM    5  H   UNL     1     -40.594  64.459 -58.211  1.00  0.00     0.191 HD
HETATM    6  C   UNL     1     -41.354  62.627 -59.026  1.00  0.00     0.162 A 
HETATM    7  C   UNL     1     -41.131  62.076 -60.270  1.00  0.00     0.081 A 
HETATM    8  N   UNL     1     -42.096  62.115 -58.044  1.00  0.00    -0.204 NA
HETATM    9  C   UNL     1     -42.645  60.929 -58.391  1.00  0.00     0.177 A 
HETATM   10  N   UNL     1     -42.490  60.318 -59.600  1.00  0.00    -0.276 N 
HETATM   11  C   UNL     1     -41.754  60.864 -60.609  1.00  0.00     0.124 A 
ENDROOT
BRANCH   9  12
HETATM   12  S   UNL     1     -43.479  60.119 -57.014  1.00  0.00    -0.082 SA
BRANCH  12  13
HETATM   13  C   UNL     1     -42.085  59.151 -56.348  1.00  0.00     0.185 C 
BRANCH  13  14
HETATM   14  C   UNL     1     -42.577  57.838 -55.753  1.00  0.00     0.227 C 
HETATM   15  N   UNL     1     -42.188  56.720 -56.459  1.00  0.00    -0.360 N 
HETATM   16  H   UNL     1     -41.446  56.818 -57.144  1.00  0.00     0.162 HD
HETATM   17  O   UNL     1     -43.270  57.795 -54.736  1.00  0.00    -0.273 OA
BRANCH  15  18
HETATM   18  C   UNL     1     -42.461  55.372 -55.984  1.00  0.00     0.127 C 
BRANCH  18  19
HETATM   19  C   UNL     1     -41.166  54.609 -55.691  1.00  0.00     0.058 C 
BRANCH  19  20
HETATM   20  C   UNL     1     -40.985  54.335 -54.219  1.00  0.00    -0.057 A 
HETATM   21  C   UNL     1     -41.366  55.290 -53.265  1.00  0.00     0.009 A 
HETATM   22  C   UNL     1     -41.178  55.041 -51.903  1.00  0.00     0.025 A 
HETATM   23  C   UNL     1     -40.614  53.830 -51.494  1.00  0.00     0.074 A 
HETATM   24  C   UNL     1     -40.218  52.876 -52.434  1.00  0.00     0.025 A 
HETATM   25  C   UNL     1     -40.409  53.129 -53.793  1.00  0.00     0.009 A 
BRANCH  23  26
HETATM   26  S   UNL     1     -40.323  53.535 -49.773  1.00  0.00     0.239 S 
HETATM   27  O   UNL     1     -40.508  52.129 -49.500  1.00  0.00    -0.206 OA
HETATM   28  O   UNL     1     -39.138  54.255 -49.368  1.00  0.00    -0.206 OA
BRANCH  26  29
HETATM   29  N   UNL     1     -41.618  54.326 -49.058  1.00  0.00    -0.225 NA
HETATM   30  H   UNL     1     -42.008  55.010 -49.708  1.00  0.00     0.136 HD
HETATM   31  H   UNL     1     -42.303  53.644 -48.729  1.00  0.00     0.136 HD
ENDBRANCH  26  29
ENDBRANCH  23  26
ENDBRANCH  19  20
ENDBRANCH  18  19
ENDBRANCH  15  18
ENDBRANCH  13  14
ENDBRANCH  12  13
ENDBRANCH   9  12
BRANCH  10  32
HETATM   32  C   UNL     1     -43.082  59.028 -59.814  1.00  0.00     0.043 A 
HETATM   33  C   UNL     1     -44.446  58.943 -60.099  1.00  0.00     0.031 A 
HETATM   34  C   UNL     1     -45.003  57.685 -60.335  1.00  0.00     0.021 A 
HETATM   35  C   UNL     1     -44.193  56.547 -60.298  1.00  0.00     0.011 A 
HETATM   36 BR   UNL     1     -44.956  54.849 -60.622  1.00  0.00    -0.051 Br
HETATM   37  C   UNL     1     -42.824  56.649 -60.033  1.00  0.00     0.021 A 
HETATM   38  C   UNL     1     -42.256  57.900 -59.790  1.00  0.00     0.031 A 
ENDBRANCH  10  32
BRANCH  11  39
HETATM   39  N   UNL     1     -41.603  60.257 -61.853  1.00  0.00    -0.384 N 
HETATM   40  H   UNL     1     -41.555  60.819 -62.696  1.00  0.00     0.157 HD
HETATM   41  H   UNL     1     -41.046  59.410 -61.898  1.00  0.00     0.157 HD
ENDBRANCH  11  39
TORSDOF 10
ENDMDL
MODEL 6
REMARK VINA RESULT:      -7.3      5.297      8.734
REMARK  10 active torsions:
REMARK  status: ('A' for Active; 'I' for Inactive)
REMARK    1  A    between atoms: C_9  and  S_10 
REMARK    2  A    between atoms: S_10  and  C_11 
REMARK    3  A    between atoms: C_11  and  C_12 
REMARK       I    between atoms: C_12  and  N_13 
REMARK    4  A    between atoms: N_13  and  C_14 
REMARK    5  A    between atoms: C_14  and  C_15 
REMARK    6  A    between atoms: C_15  and  C_16 
REMARK    7  A    between atoms: C_19  and  S_20 
REMARK    8  A    between atoms: S_20  and  N_21 
REMARK    9  A    between atoms: N_27  and  C_28 
REMARK   10  A    between atoms: C_35  and  N_36 
ROOT
HETATM    1  C   UNL     1     -39.886  62.958 -62.223  1.00  0.00     0.073 C 
HETATM    2  C   UNL     1     -40.153  62.822 -60.767  1.00  0.00     0.068 A 
HETATM    3  N   UNL     1     -39.653  63.736 -59.926  1.00  0.00    -0.177 NA
HETATM    4  N   UNL     1     -40.036  63.314 -58.712  1.00  0.00    -0.260 N 
HETATM    5  H   UNL     1     -39.761  63.850 -57.896  1.00  0.00     0.191 HD
HETATM    6  C   UNL     1     -40.757  62.155 -58.751  1.00  0.00     0.162 A 
HETATM    7  C   UNL     1     -40.885  61.806 -60.080  1.00  0.00     0.081 A 
HETATM    8  N   UNL     1     -41.228  61.487 -57.699  1.00  0.00    -0.204 NA
HETATM    9  C   UNL     1     -41.881  60.360 -58.066  1.00  0.00     0.177 A 
HETATM   10  N   UNL     1     -42.066  59.945 -59.351  1.00  0.00    -0.276 N 
HETATM   11  C   UNL     1     -41.607  60.651 -60.423  1.00  0.00     0.124 A 
ENDROOT
BRANCH   9  12
HETATM   12  S   UNL     1     -42.345  59.335 -56.658  1.00  0.00    -0.082 SA
BRANCH  12  13
HETATM   13  C   UNL     1     -42.416  60.619 -55.365  1.00  0.00     0.185 C 
BRANCH  13  14
HETATM   14  C   UNL     1     -42.014  60.044 -54.013  1.00  0.00     0.227 C 
HETATM   15  N   UNL     1     -43.008  60.101 -53.060  1.00  0.00    -0.360 N 
HETATM   16  H   UNL     1     -43.957  60.284 -53.366  1.00  0.00     0.162 HD
HETATM   17  O   UNL     1     -40.892  59.583 -53.802  1.00  0.00    -0.273 OA
BRANCH  15  18
HETATM   18  C   UNL     1     -42.854  59.496 -51.745  1.00  0.00     0.127 C 
BRANCH  18  19
HETATM   19  C   UNL     1     -43.709  58.234 -51.605  1.00  0.00     0.058 C 
BRANCH  19  20
HETATM   20  C   UNL     1     -43.034  57.018 -52.188  1.00  0.00    -0.057 A 
HETATM   21  C   UNL     1     -41.855  56.516 -51.619  1.00  0.00     0.009 A 
HETATM   22  C   UNL     1     -41.221  55.401 -52.173  1.00  0.00     0.025 A 
HETATM   23  C   UNL     1     -41.773  54.782 -53.297  1.00  0.00     0.074 A 
HETATM   24  C   UNL     1     -42.939  55.279 -53.882  1.00  0.00     0.025 A 
HETATM   25  C   UNL     1     -43.569  56.393 -53.324  1.00  0.00     0.009 A 
BRANCH  23  26
HETATM   26  S   UNL     1     -40.943  53.405 -54.036  1.00  0.00     0.239 S 
HETATM   27  O   UNL     1     -39.983  52.875 -53.096  1.00  0.00    -0.206 OA
HETATM   28  O   UNL     1     -41.918  52.572 -54.701  1.00  0.00    -0.206 OA
BRANCH  26  29
HETATM   29  N   UNL     1     -40.052  54.144 -55.250  1.00  0.00    -0.225 NA
HETATM   30  H   UNL     1     -40.286  53.729 -56.153  1.00  0.00     0.136 HD
HETATM   31  H   UNL     1     -40.194  55.154 -55.220  1.00  0.00     0.136 HD
ENDBRANCH  26  29
ENDBRANCH  23  26
ENDBRANCH  19  20
ENDBRANCH  18  19
ENDBRANCH  15  18
ENDBRANCH  13  14
ENDBRANCH  12  13
ENDBRANCH   9  12
BRANCH  10  32
HETATM   32  C   UNL     1     -42.727  58.696 -59.596  1.00  0.00     0.043 A 
HETATM   33  C   UNL     1     -41.969  57.526 -59.667  1.00  0.00     0.031 A 
HETATM   34  C   UNL     1     -42.628  56.313 -59.875  1.00  0.00     0.021 A 
HETATM   35  C   UNL     1     -44.020  56.288 -59.993  1.00  0.00     0.011 A 
HETATM   36 BR   UNL     1     -44.903  54.641 -60.273  1.00  0.00    -0.051 Br
HETATM   37  C   UNL     1     -44.768  57.466 -59.899  1.00  0.00     0.021 A 
HETATM   38  C   UNL     1     -44.122  58.684 -59.695  1.00  0.00     0.031 A 
ENDBRANCH  10  32
BRANCH  11  39
HETATM   39  N   UNL     1     -41.805  60.246 -61.740  1.00  0.00    -0.384 N 
HETATM   40  H   UNL     1     -41.166  60.543 -62.470  1.00  0.00     0.157 HD
HETATM   41  H   UNL     1     -42.195  59.322 -61.894  1.00  0.00     0.157 HD
ENDBRANCH  11  39
TORSDOF 10
ENDMDL
MODEL 7
REMARK VINA RESULT:      -7.3      4.883      8.483
REMARK  10 active torsions:
REMARK  status: ('A' for Active; 'I' for Inactive)
REMARK    1  A    between atoms: C_9  and  S_10 
REMARK    2  A    between atoms: S_10  and  C_11 
REMARK    3  A    between atoms: C_11  and  C_12 
REMARK       I    between atoms: C_12  and  N_13 
REMARK    4  A    between atoms: N_13  and  C_14 
REMARK    5  A    between atoms: C_14  and  C_15 
REMARK    6  A    between atoms: C_15  and  C_16 
REMARK    7  A    between atoms: C_19  and  S_20 
REMARK    8  A    between atoms: S_20  and  N_21 
REMARK    9  A    between atoms: N_27  and  C_28 
REMARK   10  A    between atoms: C_35  and  N_36 
ROOT
HETATM    1  C   UNL     1     -42.541  54.245 -52.195  1.00  0.00     0.073 C 
HETATM    2  C   UNL     1     -43.269  55.131 -53.140  1.00  0.00     0.068 A 
HETATM    3  N   UNL     1     -43.475  54.713 -54.395  1.00  0.00    -0.177 NA
HETATM    4  N   UNL     1     -44.111  55.736 -54.984  1.00  0.00    -0.260 N 
HETATM    5  H   UNL     1     -44.369  55.656 -55.963  1.00  0.00     0.191 HD
HETATM    6  C   UNL     1     -44.311  56.796 -54.147  1.00  0.00     0.162 A 
HETATM    7  C   UNL     1     -43.799  56.438 -52.917  1.00  0.00     0.081 A 
HETATM    8  N   UNL     1     -44.876  57.958 -54.472  1.00  0.00    -0.204 NA
HETATM    9  C   UNL     1     -44.905  58.816 -53.427  1.00  0.00     0.177 A 
HETATM   10  N   UNL     1     -44.436  58.543 -52.176  1.00  0.00    -0.276 N 
HETATM   11  C   UNL     1     -43.887  57.341 -51.845  1.00  0.00     0.124 A 
ENDROOT
BRANCH   9  12
HETATM   12  S   UNL     1     -45.474  60.461 -53.893  1.00  0.00    -0.082 SA
BRANCH  12  13
HETATM   13  C   UNL     1     -45.549  60.250 -55.703  1.00  0.00     0.185 C 
BRANCH  13  14
HETATM   14  C   UNL     1     -44.338  60.890 -56.369  1.00  0.00     0.227 C 
HETATM   15  N   UNL     1     -43.379  59.988 -56.777  1.00  0.00    -0.360 N 
HETATM   16  H   UNL     1     -43.631  59.007 -56.825  1.00  0.00     0.162 HD
HETATM   17  O   UNL     1     -44.235  62.108 -56.515  1.00  0.00    -0.273 OA
BRANCH  15  18
HETATM   18  C   UNL     1     -42.207  60.397 -57.537  1.00  0.00     0.127 C 
BRANCH  18  19
HETATM   19  C   UNL     1     -41.459  59.188 -58.106  1.00  0.00     0.058 C 
BRANCH  19  20
HETATM   20  C   UNL     1     -42.391  58.181 -58.730  1.00  0.00    -0.057 A 
HETATM   21  C   UNL     1     -42.937  58.407 -60.003  1.00  0.00     0.009 A 
HETATM   22  C   UNL     1     -43.816  57.481 -60.570  1.00  0.00     0.025 A 
HETATM   23  C   UNL     1     -44.146  56.321 -59.865  1.00  0.00     0.074 A 
HETATM   24  C   UNL     1     -43.621  56.089 -58.591  1.00  0.00     0.025 A 
HETATM   25  C   UNL     1     -42.743  57.017 -58.029  1.00  0.00     0.009 A 
BRANCH  23  26
HETATM   26  S   UNL     1     -45.302  55.174 -60.555  1.00  0.00     0.239 S 
HETATM   27  O   UNL     1     -46.643  55.628 -60.270  1.00  0.00    -0.206 OA
HETATM   28  O   UNL     1     -44.870  54.817 -61.886  1.00  0.00    -0.206 OA
BRANCH  26  29
HETATM   29  N   UNL     1     -45.056  53.814 -59.603  1.00  0.00    -0.225 NA
HETATM   30  H   UNL     1     -45.344  52.978 -60.112  1.00  0.00     0.136 HD
HETATM   31  H   UNL     1     -44.085  53.782 -59.288  1.00  0.00     0.136 HD
ENDBRANCH  26  29
ENDBRANCH  23  26
ENDBRANCH  19  20
ENDBRANCH  18  19
ENDBRANCH  15  18
ENDBRANCH  13  14
ENDBRANCH  12  13
ENDBRANCH   9  12
BRANCH  10  32
HETATM   32  C   UNL     1     -44.476  59.569 -51.174  1.00  0.00     0.043 A 
HETATM   33  C   UNL     1     -43.387  60.433 -51.040  1.00  0.00     0.031 A 
HETATM   34  C   UNL     1     -43.450  61.446 -50.081  1.00  0.00     0.021 A 
HETATM   35  C   UNL     1     -44.594  61.586 -49.291  1.00  0.00     0.011 A 
HETATM   36 BR   UNL     1     -44.671  62.961 -47.998  1.00  0.00    -0.051 Br
HETATM   37  C   UNL     1     -45.686  60.727 -49.451  1.00  0.00     0.021 A 
HETATM   38  C   UNL     1     -45.633  59.708 -50.402  1.00  0.00     0.031 A 
ENDBRANCH  10  32
BRANCH  11  39
HETATM   39  N   UNL     1     -43.421  57.045 -50.567  1.00  0.00    -0.384 N 
HETATM   40  H   UNL     1     -42.425  57.009 -50.379  1.00  0.00     0.157 HD
HETATM   41  H   UNL     1     -43.970  57.373 -49.778  1.00  0.00     0.157 HD
ENDBRANCH  11  39
TORSDOF 10
ENDMDL
MODEL 8
REMARK VINA RESULT:      -7.2      3.976      7.418
REMARK  10 active torsions:
REMARK  status: ('A' for Active; 'I' for Inactive)
REMARK    1  A    between atoms: C_9  and  S_10 
REMARK    2  A    between atoms: S_10  and  C_11 
REMARK    3  A    between atoms: C_11  and  C_12 
REMARK       I    between atoms: C_12  and  N_13 
REMARK    4  A    between atoms: N_13  and  C_14 
REMARK    5  A    between atoms: C_14  and  C_15 
REMARK    6  A    between atoms: C_15  and  C_16 
REMARK    7  A    between atoms: C_19  and  S_20 
REMARK    8  A    between atoms: S_20  and  N_21 
REMARK    9  A    between atoms: N_27  and  C_28 
REMARK   10  A    between atoms: C_35  and  N_36 
ROOT
HETATM    1  C   UNL     1     -41.815  58.066 -51.062  1.00  0.00     0.073 C 
HETATM    2  C   UNL     1     -43.084  58.072 -51.836  1.00  0.00     0.068 A 
HETATM    3  N   UNL     1     -44.144  57.413 -51.351  1.00  0.00    -0.177 NA
HETATM    4  N   UNL     1     -45.093  57.581 -52.283  1.00  0.00    -0.260 N 
HETATM    5  H   UNL     1     -46.003  57.156 -52.140  1.00  0.00     0.191 HD
HETATM    6  C   UNL     1     -44.670  58.319 -53.351  1.00  0.00     0.162 A 
HETATM    7  C   UNL     1     -43.366  58.687 -53.093  1.00  0.00     0.081 A 
HETATM    8  N   UNL     1     -45.383  58.607 -54.440  1.00  0.00    -0.204 NA
HETATM    9  C   UNL     1     -44.673  59.335 -55.331  1.00  0.00     0.177 A 
HETATM   10  N   UNL     1     -43.388  59.753 -55.155  1.00  0.00    -0.276 N 
HETATM   11  C   UNL     1     -42.676  59.480 -54.025  1.00  0.00     0.124 A 
ENDROOT
BRANCH   9  12
HETATM   12  S   UNL     1     -45.542  59.560 -56.894  1.00  0.00    -0.082 SA
BRANCH  12  13
HETATM   13  C   UNL     1     -45.693  57.816 -57.405  1.00  0.00     0.185 C 
BRANCH  13  14
HETATM   14  C   UNL     1     -44.320  57.164 -57.508  1.00  0.00     0.227 C 
HETATM   15  N   UNL     1     -43.928  56.497 -56.367  1.00  0.00    -0.360 N 
HETATM   16  H   UNL     1     -44.632  56.288 -55.666  1.00  0.00     0.162 HD
HETATM   17  O   UNL     1     -43.628  57.244 -58.523  1.00  0.00    -0.273 OA
BRANCH  15  18
HETATM   18  C   UNL     1     -42.703  55.714 -56.312  1.00  0.00     0.127 C 
BRANCH  18  19
HETATM   19  C   UNL     1     -42.950  54.328 -55.711  1.00  0.00     0.058 C 
BRANCH  19  20
HETATM   20  C   UNL     1     -42.369  54.194 -54.326  1.00  0.00    -0.057 A 
HETATM   21  C   UNL     1     -41.050  53.751 -54.146  1.00  0.00     0.009 A 
HETATM   22  C   UNL     1     -40.521  53.610 -52.861  1.00  0.00     0.025 A 
HETATM   23  C   UNL     1     -41.311  53.918 -51.752  1.00  0.00     0.074 A 
HETATM   24  C   UNL     1     -42.630  54.347 -51.915  1.00  0.00     0.025 A 
HETATM   25  C   UNL     1     -43.154  54.488 -53.201  1.00  0.00     0.009 A 
BRANCH  23  26
HETATM   26  S   UNL     1     -40.664  53.686 -50.121  1.00  0.00     0.239 S 
HETATM   27  O   UNL     1     -39.345  54.268 -50.052  1.00  0.00    -0.206 OA
HETATM   28  O   UNL     1     -41.698  53.989 -49.159  1.00  0.00    -0.206 OA
BRANCH  26  29
HETATM   29  N   UNL     1     -40.446  52.023 -50.065  1.00  0.00    -0.225 NA
HETATM   30  H   UNL     1     -40.602  51.622 -50.990  1.00  0.00     0.136 HD
HETATM   31  H   UNL     1     -39.527  51.806 -49.678  1.00  0.00     0.136 HD
ENDBRANCH  26  29
ENDBRANCH  23  26
ENDBRANCH  19  20
ENDBRANCH  18  19
ENDBRANCH  15  18
ENDBRANCH  13  14
ENDBRANCH  12  13
ENDBRANCH   9  12
BRANCH  10  32
HETATM   32  C   UNL     1     -42.733  60.471 -56.211  1.00  0.00     0.043 A 
HETATM   33  C   UNL     1     -41.941  59.769 -57.123  1.00  0.00     0.031 A 
HETATM   34  C   UNL     1     -41.334  60.474 -58.163  1.00  0.00     0.021 A 
HETATM   35  C   UNL     1     -41.538  61.851 -58.283  1.00  0.00     0.011 A 
HETATM   36 BR   UNL     1     -40.714  62.797 -59.696  1.00  0.00    -0.051 Br
HETATM   37  C   UNL     1     -42.351  62.538 -57.375  1.00  0.00     0.021 A 
HETATM   38  C   UNL     1     -42.959  61.845 -56.328  1.00  0.00     0.031 A 
ENDBRANCH  10  32
BRANCH  11  39
HETATM   39  N   UNL     1     -41.369  59.917 -53.826  1.00  0.00    -0.384 N 
HETATM   40  H   UNL     1     -41.068  60.816 -54.185  1.00  0.00     0.157 HD
HETATM   41  H   UNL     1     -40.912  59.653 -52.959  1.00  0.00     0.157 HD
ENDBRANCH  11  39
TORSDOF 10
ENDMDL
MODEL 9
REMARK VINA RESULT:      -7.2      4.548      7.727
REMARK  10 active torsions:
REMARK  status: ('A' for Active; 'I' for Inactive)
REMARK    1  A    between atoms: C_9  and  S_10 
REMARK    2  A    between atoms: S_10  and  C_11 
REMARK    3  A    between atoms: C_11  and  C_12 
REMARK       I    between atoms: C_12  and  N_13 
REMARK    4  A    between atoms: N_13  and  C_14 
REMARK    5  A    between atoms: C_14  and  C_15 
REMARK    6  A    between atoms: C_15  and  C_16 
REMARK    7  A    between atoms: C_19  and  S_20 
REMARK    8  A    between atoms: S_20  and  N_21 
REMARK    9  A    between atoms: N_27  and  C_28 
REMARK   10  A    between atoms: C_35  and  N_36 
ROOT
HETATM    1  C   UNL     1     -47.381  58.679 -61.073  1.00  0.00     0.073 C 
HETATM    2  C   UNL     1     -46.435  59.613 -60.407  1.00  0.00     0.068 A 
HETATM    3  N   UNL     1     -46.332  60.868 -60.861  1.00  0.00    -0.177 NA
HETATM    4  N   UNL     1     -45.391  61.424 -60.086  1.00  0.00    -0.260 N 
HETATM    5  H   UNL     1     -45.127  62.391 -60.249  1.00  0.00     0.191 HD
HETATM    6  C   UNL     1     -44.883  60.562 -59.157  1.00  0.00     0.162 A 
HETATM    7  C   UNL     1     -45.555  59.367 -59.309  1.00  0.00     0.081 A 
HETATM    8  N   UNL     1     -43.911  60.828 -58.285  1.00  0.00    -0.204 NA
HETATM    9  C   UNL     1     -43.615  59.757 -57.515  1.00  0.00     0.177 A 
HETATM   10  N   UNL     1     -44.234  58.545 -57.587  1.00  0.00    -0.276 N 
HETATM   11  C   UNL     1     -45.249  58.290 -58.460  1.00  0.00     0.124 A 
ENDROOT
BRANCH   9  12
HETATM   12  S   UNL     1     -42.168  60.027 -56.474  1.00  0.00    -0.082 SA
BRANCH  12  13
HETATM   13  C   UNL     1     -42.950  60.948 -55.109  1.00  0.00     0.185 C 
BRANCH  13  14
HETATM   14  C   UNL     1     -42.574  60.339 -53.765  1.00  0.00     0.227 C 
HETATM   15  N   UNL     1     -43.630  60.216 -52.888  1.00  0.00    -0.360 N 
HETATM   16  H   UNL     1     -44.572  60.305 -53.255  1.00  0.00     0.162 HD
HETATM   17  O   UNL     1     -41.421  60.001 -53.494  1.00  0.00    -0.273 OA
BRANCH  15  18
HETATM   18  C   UNL     1     -43.494  59.551 -51.601  1.00  0.00     0.127 C 
BRANCH  18  19
HETATM   19  C   UNL     1     -44.159  58.172 -51.609  1.00  0.00     0.058 C 
BRANCH  19  20
HETATM   20  C   UNL     1     -43.225  57.084 -51.145  1.00  0.00    -0.057 A 
HETATM   21  C   UNL     1     -43.712  55.800 -50.858  1.00  0.00     0.009 A 
HETATM   22  C   UNL     1     -42.847  54.799 -50.409  1.00  0.00     0.025 A 
HETATM   23  C   UNL     1     -41.488  55.081 -50.252  1.00  0.00     0.074 A 
HETATM   24  C   UNL     1     -40.991  56.359 -50.521  1.00  0.00     0.025 A 
HETATM   25  C   UNL     1     -41.859  57.355 -50.970  1.00  0.00     0.009 A 
BRANCH  23  26
HETATM   26  S   UNL     1     -40.399  53.833 -49.630  1.00  0.00     0.239 S 
HETATM   27  O   UNL     1     -40.705  52.578 -50.274  1.00  0.00    -0.206 OA
HETATM   28  O   UNL     1     -39.058  54.368 -49.571  1.00  0.00    -0.206 OA
BRANCH  26  29
HETATM   29  N   UNL     1     -40.912  53.683 -48.040  1.00  0.00    -0.225 NA
HETATM   30  H   UNL     1     -41.619  54.389 -47.835  1.00  0.00     0.136 HD
HETATM   31  H   UNL     1     -41.231  52.728 -47.866  1.00  0.00     0.136 HD
ENDBRANCH  26  29
ENDBRANCH  23  26
ENDBRANCH  19  20
ENDBRANCH  18  19
ENDBRANCH  15  18
ENDBRANCH  13  14
ENDBRANCH  12  13
ENDBRANCH   9  12
BRANCH  10  32
HETATM   32  C   UNL     1     -43.779  57.473 -56.748  1.00  0.00     0.043 A 
HETATM   33  C   UNL     1     -44.263  57.377 -55.442  1.00  0.00     0.031 A 
HETATM   34  C   UNL     1     -43.835  56.314 -54.646  1.00  0.00     0.021 A 
HETATM   35  C   UNL     1     -42.951  55.365 -55.168  1.00  0.00     0.011 A 
HETATM   36 BR   UNL     1     -42.380  53.928 -54.083  1.00  0.00    -0.051 Br
HETATM   37  C   UNL     1     -42.491  55.462 -56.485  1.00  0.00     0.021 A 
HETATM   38  C   UNL     1     -42.908  56.523 -57.289  1.00  0.00     0.031 A 
ENDBRANCH  10  32
BRANCH  11  39
HETATM   39  N   UNL     1     -45.901  57.062 -58.531  1.00  0.00    -0.384 N 
HETATM   40  H   UNL     1     -46.723  56.950 -59.113  1.00  0.00     0.157 HD
HETATM   41  H   UNL     1     -45.331  56.224 -58.468  1.00  0.00     0.157 HD
ENDBRANCH  11  39
TORSDOF 10
ENDMDL
MODEL 10
REMARK VINA RESULT:      -7.1      3.919      6.015
REMARK  10 active torsions:
REMARK  status: ('A' for Active; 'I' for Inactive)
REMARK    1  A    between atoms: C_9  and  S_10 
REMARK    2  A    between atoms: S_10  and  C_11 
REMARK    3  A    between atoms: C_11  and  C_12 
REMARK       I    between atoms: C_12  and  N_13 
REMARK    4  A    between atoms: N_13  and  C_14 
REMARK    5  A    between atoms: C_14  and  C_15 
REMARK    6  A    between atoms: C_15  and  C_16 
REMARK    7  A    between atoms: C_19  and  S_20 
REMARK    8  A    between atoms: S_20  and  N_21 
REMARK    9  A    between atoms: N_27  and  C_28 
REMARK   10  A    between atoms: C_35  and  N_36 
ROOT
HETATM    1  C   UNL     1     -41.884  53.899 -54.793  1.00  0.00     0.073 C 
HETATM    2  C   UNL     1     -41.655  55.361 -54.645  1.00  0.00     0.068 A 
HETATM    3  N   UNL     1     -40.834  55.797 -53.682  1.00  0.00    -0.177 NA
HETATM    4  N   UNL     1     -40.874  57.132 -53.793  1.00  0.00    -0.260 N 
HETATM    5  H   UNL     1     -40.327  57.695 -53.150  1.00  0.00     0.191 HD
HETATM    6  C   UNL     1     -41.701  57.563 -54.790  1.00  0.00     0.162 A 
HETATM    7  C   UNL     1     -42.218  56.437 -55.397  1.00  0.00     0.081 A 
HETATM    8  N   UNL     1     -41.966  58.832 -55.098  1.00  0.00    -0.204 NA
HETATM    9  C   UNL     1     -42.846  58.931 -56.120  1.00  0.00     0.177 A 
HETATM   10  N   UNL     1     -43.396  57.876 -56.786  1.00  0.00    -0.276 N 
HETATM   11  C   UNL     1     -43.095  56.581 -56.484  1.00  0.00     0.124 A 
ENDROOT
BRANCH   9  12
HETATM   12  S   UNL     1     -43.379  60.627 -56.419  1.00  0.00    -0.082 SA
BRANCH  12  13
HETATM   13  C   UNL     1     -44.795  60.701 -55.273  1.00  0.00     0.185 C 
BRANCH  13  14
HETATM   14  C   UNL     1     -44.355  60.381 -53.851  1.00  0.00     0.227 C 
HETATM   15  N   UNL     1     -44.613  59.085 -53.460  1.00  0.00    -0.360 N 
HETATM   16  H   UNL     1     -44.842  58.404 -54.176  1.00  0.00     0.162 HD
HETATM   17  O   UNL     1     -43.824  61.220 -53.122  1.00  0.00    -0.273 OA
BRANCH  15  18
HETATM   18  C   UNL     1     -44.160  58.558 -52.181  1.00  0.00     0.127 C 
BRANCH  18  19
HETATM   19  C   UNL     1     -44.578  57.097 -51.997  1.00  0.00     0.058 C 
BRANCH  19  20
HETATM   20  C   UNL     1     -43.515  56.282 -51.306  1.00  0.00    -0.057 A 
HETATM   21  C   UNL     1     -42.426  56.910 -50.685  1.00  0.00     0.009 A 
HETATM   22  C   UNL     1     -41.432  56.150 -50.062  1.00  0.00     0.025 A 
HETATM   23  C   UNL     1     -41.531  54.757 -50.056  1.00  0.00     0.074 A 
HETATM   24  C   UNL     1     -42.603  54.117 -50.683  1.00  0.00     0.025 A 
HETATM   25  C   UNL     1     -43.593  54.881 -51.302  1.00  0.00     0.009 A 
BRANCH  23  26
HETATM   26  S   UNL     1     -40.246  53.789 -49.319  1.00  0.00     0.239 S 
HETATM   27  O   UNL     1     -40.464  52.398 -49.638  1.00  0.00    -0.206 OA
HETATM   28  O   UNL     1     -38.979  54.447 -49.540  1.00  0.00    -0.206 OA
BRANCH  26  29
HETATM   29  N   UNL     1     -40.579  53.954 -47.683  1.00  0.00    -0.225 NA
HETATM   30  H   UNL     1     -41.119  54.805 -47.523  1.00  0.00     0.136 HD
HETATM   31  H   UNL     1     -41.039  53.111 -47.335  1.00  0.00     0.136 HD
ENDBRANCH  26  29
ENDBRANCH  23  26
ENDBRANCH  19  20
ENDBRANCH  18  19
ENDBRANCH  15  18
ENDBRANCH  13  14
ENDBRANCH  12  13
ENDBRANCH   9  12
BRANCH  10  32
HETATM   32  C   UNL     1     -44.365  58.124 -57.815  1.00  0.00     0.043 A 
HETATM   33  C   UNL     1     -43.928  58.357 -59.120  1.00  0.00     0.031 A 
HETATM   34  C   UNL     1     -44.881  58.567 -60.118  1.00  0.00     0.021 A 
HETATM   35  C   UNL     1     -46.242  58.526 -59.800  1.00  0.00     0.011 A 
HETATM   36 BR   UNL     1     -47.525  58.809 -61.158  1.00  0.00    -0.051 Br
HETATM   37  C   UNL     1     -46.665  58.270 -58.492  1.00  0.00     0.021 A 
HETATM   38  C   UNL     1     -45.722  58.063 -57.485  1.00  0.00     0.031 A 
ENDBRANCH  10  32
BRANCH  11  39
HETATM   39  N   UNL     1     -43.638  55.496 -57.168  1.00  0.00    -0.384 N 
HETATM   40  H   UNL     1     -43.110  54.636 -57.267  1.00  0.00     0.157 HD
HETATM   41  H   UNL     1     -44.640  55.351 -57.099  1.00  0.00     0.157 HD
ENDBRANCH  11  39
TORSDOF 10
ENDMDL
