MODEL 1
REMARK VINA RESULT:      -8.1      0.000      0.000
REMARK  4 active torsions:
REMARK  status: ('A' for Active; 'I' for Inactive)
REMARK    1  A    between atoms: C_9  and  C_10 
REMARK    2  A    between atoms: C_13  and  O_14 
REMARK    3  A    between atoms: C_18  and  C_19 
REMARK       I    between atoms: C_19  and  N_20 
REMARK    4  A    between atoms: N_20  and  C_21 
ROOT
HETATM    1  C   UNL     1     -43.236  54.551 -56.336  1.00  0.00     0.070 C 
HETATM    2  C   UNL     1     -43.419  55.826 -55.552  1.00  0.00     0.037 C 
HETATM    3  N   UNL     1     -43.870  56.920 -56.285  1.00  0.00    -0.192 N 
HETATM    4  C   UNL     1     -44.333  58.047 -55.708  1.00  0.00     0.725 A 
HETATM    5  N   UNL     1     -44.215  58.207 -54.354  1.00  0.00    -0.084 N 
HETATM    6  N   UNL     1     -44.812  59.345 -53.942  1.00  0.00    -0.149 NA
HETATM    7  C   UNL     1     -45.225  59.843 -55.113  1.00  0.00     0.275 A 
HETATM    8  N   UNL     1     -44.950  59.081 -56.219  1.00  0.00    -0.054 NA
HETATM    9  C   UNL     1     -43.566  57.235 -53.466  1.00  0.00     0.202 C 
HETATM   10  C   UNL     1     -43.244  55.943 -54.211  1.00  0.00     0.062 C 
HETATM   11  H   UNL     1     -44.079  56.772 -57.269  1.00  0.00     0.184 HD
ENDROOT
BRANCH  10  12
HETATM   12  C   UNL     1     -42.848  54.820 -53.321  1.00  0.00     0.256 C 
HETATM   13  N   UNL     1     -41.539  54.423 -53.488  1.00  0.00    -0.323 N 
HETATM   14  H   UNL     1     -40.984  54.944 -54.155  1.00  0.00     0.169 HD
HETATM   15  O   UNL     1     -43.666  54.387 -52.522  1.00  0.00    -0.267 OA
BRANCH  13  16
HETATM   16  C   UNL     1     -40.886  53.351 -52.846  1.00  0.00     0.035 A 
HETATM   17  C   UNL     1     -40.695  53.267 -51.464  1.00  0.00     0.031 A 
HETATM   18  C   UNL     1     -40.054  52.157 -50.901  1.00  0.00     0.026 A 
HETATM   19  C   UNL     1     -39.606  51.124 -51.719  1.00  0.00     0.034 A 
HETATM   20 CL   UNL     1     -38.828  49.755 -51.025  1.00  0.00    -0.084 Cl
HETATM   21  C   UNL     1     -39.786  51.194 -53.096  1.00  0.00     0.026 A 
HETATM   22  C   UNL     1     -40.420  52.307 -53.658  1.00  0.00     0.031 A 
ENDBRANCH  13  16
ENDBRANCH  10  12
BRANCH   9  23
HETATM   23  C   UNL     1     -42.324  57.850 -52.824  1.00  0.00    -0.028 A 
HETATM   24  C   UNL     1     -41.239  58.225 -53.629  1.00  0.00     0.012 A 
HETATM   25  C   UNL     1     -40.092  58.781 -53.060  1.00  0.00     0.037 A 
HETATM   26  C   UNL     1     -40.000  58.976 -51.681  1.00  0.00     0.068 A 
HETATM   27  C   UNL     1     -41.081  58.628 -50.873  1.00  0.00     0.037 A 
HETATM   28  C   UNL     1     -42.236  58.074 -51.439  1.00  0.00     0.012 A 
BRANCH  26  29
HETATM   29  O   UNL     1     -38.818  59.512 -51.254  1.00  0.00    -0.356 OA
HETATM   30  C   UNL     1     -38.781  60.007 -49.922  1.00  0.00     0.210 C 
ENDBRANCH  26  29
ENDBRANCH   9  23
TORSDOF 4
ENDMDL
MODEL 2
REMARK VINA RESULT:      -8.0      3.742      6.732
REMARK  4 active torsions:
REMARK  status: ('A' for Active; 'I' for Inactive)
REMARK    1  A    between atoms: C_9  and  C_10 
REMARK    2  A    between atoms: C_13  and  O_14 
REMARK    3  A    between atoms: C_18  and  C_19 
REMARK       I    between atoms: C_19  and  N_20 
REMARK    4  A    between atoms: N_20  and  C_21 
ROOT
HETATM    1  C   UNL     1     -42.092  60.095 -55.474  1.00  0.00     0.070 C 
HETATM    2  C   UNL     1     -41.893  59.045 -54.411  1.00  0.00     0.037 C 
HETATM    3  N   UNL     1     -41.052  59.407 -53.362  1.00  0.00    -0.192 N 
HETATM    4  C   UNL     1     -40.972  58.707 -52.213  1.00  0.00     0.725 A 
HETATM    5  N   UNL     1     -41.610  57.500 -52.115  1.00  0.00    -0.084 N 
HETATM    6  N   UNL     1     -41.498  56.987 -50.871  1.00  0.00    -0.149 NA
HETATM    7  C   UNL     1     -40.735  57.918 -50.289  1.00  0.00     0.275 A 
HETATM    8  N   UNL     1     -40.389  58.987 -51.076  1.00  0.00    -0.054 NA
HETATM    9  C   UNL     1     -42.361  56.877 -53.211  1.00  0.00     0.202 C 
HETATM   10  C   UNL     1     -42.518  57.841 -54.383  1.00  0.00     0.062 C 
HETATM   11  H   UNL     1     -40.674  60.351 -53.367  1.00  0.00     0.184 HD
ENDROOT
BRANCH  10  12
HETATM   12  C   UNL     1     -43.498  57.387 -55.405  1.00  0.00     0.256 C 
HETATM   13  N   UNL     1     -42.927  57.108 -56.629  1.00  0.00    -0.323 N 
HETATM   14  H   UNL     1     -41.921  57.203 -56.696  1.00  0.00     0.169 HD
HETATM   15  O   UNL     1     -44.671  57.266 -55.082  1.00  0.00    -0.267 OA
BRANCH  13  16
HETATM   16  C   UNL     1     -43.591  56.725 -57.811  1.00  0.00     0.035 A 
HETATM   17  C   UNL     1     -44.496  57.539 -58.498  1.00  0.00     0.031 A 
HETATM   18  C   UNL     1     -45.098  57.091 -59.680  1.00  0.00     0.026 A 
HETATM   19  C   UNL     1     -44.795  55.829 -60.181  1.00  0.00     0.034 A 
HETATM   20 CL   UNL     1     -45.528  55.284 -61.639  1.00  0.00    -0.084 Cl
HETATM   21  C   UNL     1     -43.898  55.006 -59.508  1.00  0.00     0.026 A 
HETATM   22  C   UNL     1     -43.302  55.452 -58.323  1.00  0.00     0.031 A 
ENDBRANCH  13  16
ENDBRANCH  10  12
BRANCH   9  23
HETATM   23  C   UNL     1     -41.697  55.568 -53.632  1.00  0.00    -0.028 A 
HETATM   24  C   UNL     1     -42.186  54.350 -53.139  1.00  0.00     0.012 A 
HETATM   25  C   UNL     1     -41.588  53.143 -53.507  1.00  0.00     0.037 A 
HETATM   26  C   UNL     1     -40.492  53.122 -54.372  1.00  0.00     0.068 A 
HETATM   27  C   UNL     1     -40.012  54.325 -54.887  1.00  0.00     0.037 A 
HETATM   28  C   UNL     1     -40.611  55.537 -54.526  1.00  0.00     0.012 A 
BRANCH  26  29
HETATM   29  O   UNL     1     -39.993  51.878 -54.637  1.00  0.00    -0.356 OA
HETATM   30  C   UNL     1     -39.621  51.085 -53.518  1.00  0.00     0.210 C 
ENDBRANCH  26  29
ENDBRANCH   9  23
TORSDOF 4
ENDMDL
MODEL 3
REMARK VINA RESULT:      -8.0      3.045      5.692
REMARK  4 active torsions:
REMARK  status: ('A' for Active; 'I' for Inactive)
REMARK    1  A    between atoms: C_9  and  C_10 
REMARK    2  A    between atoms: C_13  and  O_14 
REMARK    3  A    between atoms: C_18  and  C_19 
REMARK       I    between atoms: C_19  and  N_20 
REMARK    4  A    between atoms: N_20  and  C_21 
ROOT
HETATM    1  C   UNL     1     -43.687  58.523 -52.999  1.00  0.00     0.070 C 
HETATM    2  C   UNL     1     -43.291  58.654 -54.448  1.00  0.00     0.037 C 
HETATM    3  N   UNL     1     -43.299  59.951 -54.956  1.00  0.00    -0.192 N 
HETATM    4  C   UNL     1     -42.730  60.280 -56.132  1.00  0.00     0.725 A 
HETATM    5  N   UNL     1     -42.261  59.290 -56.953  1.00  0.00    -0.084 N 
HETATM    6  N   UNL     1     -41.645  59.804 -58.038  1.00  0.00    -0.149 NA
HETATM    7  C   UNL     1     -41.825  61.112 -57.826  1.00  0.00     0.275 A 
HETATM    8  N   UNL     1     -42.486  61.446 -56.672  1.00  0.00    -0.054 NA
HETATM    9  C   UNL     1     -42.375  57.856 -56.658  1.00  0.00     0.202 C 
HETATM   10  C   UNL     1     -42.876  57.630 -55.234  1.00  0.00     0.062 C 
HETATM   11  H   UNL     1     -43.526  60.706 -54.313  1.00  0.00     0.184 HD
ENDROOT
BRANCH  10  12
HETATM   12  C   UNL     1     -42.749  56.223 -54.771  1.00  0.00     0.256 C 
HETATM   13  N   UNL     1     -41.468  55.885 -54.387  1.00  0.00    -0.323 N 
HETATM   14  H   UNL     1     -40.772  56.618 -54.423  1.00  0.00     0.169 HD
HETATM   15  O   UNL     1     -43.751  55.523 -54.732  1.00  0.00    -0.267 OA
BRANCH  13  16
HETATM   16  C   UNL     1     -41.011  54.620 -53.966  1.00  0.00     0.035 A 
HETATM   17  C   UNL     1     -40.575  53.617 -54.837  1.00  0.00     0.031 A 
HETATM   18  C   UNL     1     -40.115  52.393 -54.337  1.00  0.00     0.026 A 
HETATM   19  C   UNL     1     -40.086  52.168 -52.964  1.00  0.00     0.034 A 
HETATM   20 CL   UNL     1     -39.510  50.668 -52.352  1.00  0.00    -0.084 Cl
HETATM   21  C   UNL     1     -40.518  53.155 -52.085  1.00  0.00     0.026 A 
HETATM   22  C   UNL     1     -40.984  54.376 -52.585  1.00  0.00     0.031 A 
ENDBRANCH  13  16
ENDBRANCH  10  12
BRANCH   9  23
HETATM   23  C   UNL     1     -43.262  57.169 -57.693  1.00  0.00    -0.028 A 
HETATM   24  C   UNL     1     -44.531  57.693 -57.978  1.00  0.00     0.012 A 
HETATM   25  C   UNL     1     -45.361  57.075 -58.916  1.00  0.00     0.037 A 
HETATM   26  C   UNL     1     -44.946  55.924 -59.589  1.00  0.00     0.068 A 
HETATM   27  C   UNL     1     -43.677  55.408 -59.331  1.00  0.00     0.037 A 
HETATM   28  C   UNL     1     -42.840  56.026 -58.395  1.00  0.00     0.012 A 
BRANCH  26  29
HETATM   29  O   UNL     1     -45.859  55.411 -60.466  1.00  0.00    -0.356 OA
HETATM   30  C   UNL     1     -47.020  56.194 -60.715  1.00  0.00     0.210 C 
ENDBRANCH  26  29
ENDBRANCH   9  23
TORSDOF 4
ENDMDL
MODEL 4
REMARK VINA RESULT:      -7.7      2.574      4.650
REMARK  4 active torsions:
REMARK  status: ('A' for Active; 'I' for Inactive)
REMARK    1  A    between atoms: C_9  and  C_10 
REMARK    2  A    between atoms: C_13  and  O_14 
REMARK    3  A    between atoms: C_18  and  C_19 
REMARK       I    between atoms: C_19  and  N_20 
REMARK    4  A    between atoms: N_20  and  C_21 
ROOT
HETATM    1  C   UNL     1     -44.379  56.481 -50.900  1.00  0.00     0.070 C 
HETATM    2  C   UNL     1     -43.868  57.351 -52.020  1.00  0.00     0.037 C 
HETATM    3  N   UNL     1     -44.052  58.720 -51.846  1.00  0.00    -0.192 N 
HETATM    4  C   UNL     1     -43.433  59.644 -52.608  1.00  0.00     0.725 A 
HETATM    5  N   UNL     1     -42.718  59.243 -53.704  1.00  0.00    -0.084 N 
HETATM    6  N   UNL     1     -42.094  60.287 -54.290  1.00  0.00    -0.149 NA
HETATM    7  C   UNL     1     -42.522  61.293 -53.519  1.00  0.00     0.275 A 
HETATM    8  N   UNL     1     -43.345  60.943 -52.480  1.00  0.00    -0.054 NA
HETATM    9  C   UNL     1     -42.607  57.848 -54.146  1.00  0.00     0.202 C 
HETATM   10  C   UNL     1     -43.202  56.897 -53.112  1.00  0.00     0.062 C 
HETATM   11  H   UNL     1     -44.472  59.031 -50.974  1.00  0.00     0.184 HD
ENDROOT
BRANCH  10  12
HETATM   12  C   UNL     1     -42.877  55.467 -53.355  1.00  0.00     0.256 C 
HETATM   13  N   UNL     1     -41.602  55.119 -52.962  1.00  0.00    -0.323 N 
HETATM   14  H   UNL     1     -41.044  55.843 -52.527  1.00  0.00     0.169 HD
HETATM   15  O   UNL     1     -43.740  54.740 -53.825  1.00  0.00    -0.267 OA
BRANCH  13  16
HETATM   16  C   UNL     1     -40.975  53.867 -53.118  1.00  0.00     0.035 A 
HETATM   17  C   UNL     1     -40.432  53.128 -52.063  1.00  0.00     0.031 A 
HETATM   18  C   UNL     1     -39.843  51.879 -52.299  1.00  0.00     0.026 A 
HETATM   19  C   UNL     1     -39.799  51.364 -53.591  1.00  0.00     0.034 A 
HETATM   20 CL   UNL     1     -39.086  49.825 -53.877  1.00  0.00    -0.084 Cl
HETATM   21  C   UNL     1     -40.333  52.088 -54.651  1.00  0.00     0.026 A 
HETATM   22  C   UNL     1     -40.915  53.338 -54.416  1.00  0.00     0.031 A 
ENDBRANCH  13  16
ENDBRANCH  10  12
BRANCH   9  23
HETATM   23  C   UNL     1     -43.251  57.674 -55.520  1.00  0.00    -0.028 A 
HETATM   24  C   UNL     1     -42.537  57.039 -56.546  1.00  0.00     0.012 A 
HETATM   25  C   UNL     1     -43.106  56.877 -57.812  1.00  0.00     0.037 A 
HETATM   26  C   UNL     1     -44.395  57.342 -58.081  1.00  0.00     0.068 A 
HETATM   27  C   UNL     1     -45.122  57.953 -57.061  1.00  0.00     0.037 A 
HETATM   28  C   UNL     1     -44.559  58.114 -55.790  1.00  0.00     0.012 A 
BRANCH  26  29
HETATM   29  O   UNL     1     -44.824  57.135 -59.362  1.00  0.00    -0.356 OA
HETATM   30  C   UNL     1     -43.828  56.849 -60.334  1.00  0.00     0.210 C 
ENDBRANCH  26  29
ENDBRANCH   9  23
TORSDOF 4
ENDMDL
MODEL 5
REMARK VINA RESULT:      -7.6      2.571      4.664
REMARK  4 active torsions:
REMARK  status: ('A' for Active; 'I' for Inactive)
REMARK    1  A    between atoms: C_9  and  C_10 
REMARK    2  A    between atoms: C_13  and  O_14 
REMARK    3  A    between atoms: C_18  and  C_19 
REMARK       I    between atoms: C_19  and  N_20 
REMARK    4  A    between atoms: N_20  and  C_21 
ROOT
HETATM    1  C   UNL     1     -44.268  55.654 -50.429  1.00  0.00     0.070 C 
HETATM    2  C   UNL     1     -43.776  56.717 -51.378  1.00  0.00     0.037 C 
HETATM    3  N   UNL     1     -43.962  58.031 -50.955  1.00  0.00    -0.192 N 
HETATM    4  C   UNL     1     -43.358  59.082 -51.543  1.00  0.00     0.725 A 
HETATM    5  N   UNL     1     -42.657  58.892 -52.703  1.00  0.00    -0.084 N 
HETATM    6  N   UNL     1     -42.046  60.029 -53.098  1.00  0.00    -0.149 NA
HETATM    7  C   UNL     1     -42.465  60.875 -52.150  1.00  0.00     0.275 A 
HETATM    8  N   UNL     1     -43.272  60.336 -51.180  1.00  0.00    -0.054 NA
HETATM    9  C   UNL     1     -42.549  57.602 -53.395  1.00  0.00     0.202 C 
HETATM   10  C   UNL     1     -43.125  56.475 -52.544  1.00  0.00     0.062 C 
HETATM   11  H   UNL     1     -44.370  58.174 -50.034  1.00  0.00     0.184 HD
ENDROOT
BRANCH  10  12
HETATM   12  C   UNL     1     -42.799  55.115 -53.049  1.00  0.00     0.256 C 
HETATM   13  N   UNL     1     -41.569  54.655 -52.631  1.00  0.00    -0.323 N 
HETATM   14  H   UNL     1     -41.042  55.256 -52.011  1.00  0.00     0.169 HD
HETATM   15  O   UNL     1     -43.628  54.526 -53.729  1.00  0.00    -0.267 OA
BRANCH  13  16
HETATM   16  C   UNL     1     -40.947  53.441 -52.990  1.00  0.00     0.035 A 
HETATM   17  C   UNL     1     -40.925  52.929 -54.290  1.00  0.00     0.031 A 
HETATM   18  C   UNL     1     -40.267  51.725 -54.569  1.00  0.00     0.026 A 
HETATM   19  C   UNL     1     -39.624  51.032 -53.548  1.00  0.00     0.034 A 
HETATM   20 CL   UNL     1     -38.806  49.559 -53.894  1.00  0.00    -0.084 Cl
HETATM   21  C   UNL     1     -39.638  51.527 -52.249  1.00  0.00     0.026 A 
HETATM   22  C   UNL     1     -40.302  52.727 -51.970  1.00  0.00     0.031 A 
ENDBRANCH  13  16
ENDBRANCH  10  12
BRANCH   9  23
HETATM   23  C   UNL     1     -43.212  57.678 -54.768  1.00  0.00    -0.028 A 
HETATM   24  C   UNL     1     -44.576  57.992 -54.865  1.00  0.00     0.012 A 
HETATM   25  C   UNL     1     -45.202  58.059 -56.111  1.00  0.00     0.037 A 
HETATM   26  C   UNL     1     -44.487  57.816 -57.285  1.00  0.00     0.068 A 
HETATM   27  C   UNL     1     -43.126  57.526 -57.203  1.00  0.00     0.037 A 
HETATM   28  C   UNL     1     -42.492  57.462 -55.957  1.00  0.00     0.012 A 
BRANCH  26  29
HETATM   29  O   UNL     1     -45.224  57.897 -58.433  1.00  0.00    -0.356 OA
HETATM   30  C   UNL     1     -44.505  58.087 -59.645  1.00  0.00     0.210 C 
ENDBRANCH  26  29
ENDBRANCH   9  23
TORSDOF 4
ENDMDL
MODEL 6
REMARK VINA RESULT:      -7.5      2.921      5.483
REMARK  4 active torsions:
REMARK  status: ('A' for Active; 'I' for Inactive)
REMARK    1  A    between atoms: C_9  and  C_10 
REMARK    2  A    between atoms: C_13  and  O_14 
REMARK    3  A    between atoms: C_18  and  C_19 
REMARK       I    between atoms: C_19  and  N_20 
REMARK    4  A    between atoms: N_20  and  C_21 
ROOT
HETATM    1  C   UNL     1     -44.802  58.001 -52.718  1.00  0.00     0.070 C 
HETATM    2  C   UNL     1     -44.585  58.674 -54.050  1.00  0.00     0.037 C 
HETATM    3  N   UNL     1     -45.537  59.628 -54.401  1.00  0.00    -0.192 N 
HETATM    4  C   UNL     1     -45.359  60.501 -55.413  1.00  0.00     0.725 A 
HETATM    5  N   UNL     1     -44.282  60.357 -56.244  1.00  0.00    -0.084 N 
HETATM    6  N   UNL     1     -44.214  61.367 -57.137  1.00  0.00    -0.149 NA
HETATM    7  C   UNL     1     -45.315  62.055 -56.813  1.00  0.00     0.275 A 
HETATM    8  N   UNL     1     -46.045  61.558 -55.765  1.00  0.00    -0.054 NA
HETATM    9  C   UNL     1     -43.302  59.269 -56.138  1.00  0.00     0.202 C 
HETATM   10  C   UNL     1     -43.519  58.462 -54.861  1.00  0.00     0.062 C 
HETATM   11  H   UNL     1     -46.272  59.829 -53.727  1.00  0.00     0.184 HD
ENDROOT
BRANCH  10  12
HETATM   12  C   UNL     1     -42.404  57.530 -54.545  1.00  0.00     0.256 C 
HETATM   13  N   UNL     1     -42.729  56.203 -54.726  1.00  0.00    -0.323 N 
HETATM   14  H   UNL     1     -43.656  56.003 -55.081  1.00  0.00     0.169 HD
HETATM   15  O   UNL     1     -41.326  57.997 -54.204  1.00  0.00    -0.267 OA
BRANCH  13  16
HETATM   16  C   UNL     1     -41.919  55.082 -54.451  1.00  0.00     0.035 A 
HETATM   17  C   UNL     1     -40.964  54.573 -55.336  1.00  0.00     0.031 A 
HETATM   18  C   UNL     1     -40.183  53.467 -54.978  1.00  0.00     0.026 A 
HETATM   19  C   UNL     1     -40.352  52.869 -53.733  1.00  0.00     0.034 A 
HETATM   20 CL   UNL     1     -39.385  51.517 -53.291  1.00  0.00    -0.084 Cl
HETATM   21  C   UNL     1     -41.299  53.363 -52.843  1.00  0.00     0.026 A 
HETATM   22  C   UNL     1     -42.084  54.464 -53.204  1.00  0.00     0.031 A 
ENDBRANCH  13  16
ENDBRANCH  10  12
BRANCH   9  23
HETATM   23  C   UNL     1     -43.349  58.389 -57.385  1.00  0.00    -0.028 A 
HETATM   24  C   UNL     1     -44.536  57.725 -57.723  1.00  0.00     0.012 A 
HETATM   25  C   UNL     1     -44.596  56.909 -58.856  1.00  0.00     0.037 A 
HETATM   26  C   UNL     1     -43.478  56.740 -59.674  1.00  0.00     0.068 A 
HETATM   27  C   UNL     1     -42.299  57.414 -59.361  1.00  0.00     0.037 A 
HETATM   28  C   UNL     1     -42.235  58.236 -58.230  1.00  0.00     0.012 A 
BRANCH  26  29
HETATM   29  O   UNL     1     -43.667  55.903 -60.739  1.00  0.00    -0.356 OA
HETATM   30  C   UNL     1     -44.962  55.338 -60.888  1.00  0.00     0.210 C 
ENDBRANCH  26  29
ENDBRANCH   9  23
TORSDOF 4
ENDMDL
MODEL 7
REMARK VINA RESULT:      -7.2      2.543      3.122
REMARK  4 active torsions:
REMARK  status: ('A' for Active; 'I' for Inactive)
REMARK    1  A    between atoms: C_9  and  C_10 
REMARK    2  A    between atoms: C_13  and  O_14 
REMARK    3  A    between atoms: C_18  and  C_19 
REMARK       I    between atoms: C_19  and  N_20 
REMARK    4  A    between atoms: N_20  and  C_21 
ROOT
HETATM    1  C   UNL     1     -40.911  54.285 -55.643  1.00  0.00     0.070 C 
HETATM    2  C   UNL     1     -41.914  55.407 -55.723  1.00  0.00     0.037 C 
HETATM    3  N   UNL     1     -42.079  55.976 -56.983  1.00  0.00    -0.192 N 
HETATM    4  C   UNL     1     -43.105  56.795 -57.288  1.00  0.00     0.725 A 
HETATM    5  N   UNL     1     -43.939  57.228 -56.293  1.00  0.00    -0.084 N 
HETATM    6  N   UNL     1     -44.957  57.960 -56.792  1.00  0.00    -0.149 NA
HETATM    7  C   UNL     1     -44.641  57.967 -58.092  1.00  0.00     0.275 A 
HETATM    8  N   UNL     1     -43.513  57.268 -58.438  1.00  0.00    -0.054 NA
HETATM    9  C   UNL     1     -43.770  56.890 -54.875  1.00  0.00     0.202 C 
HETATM   10  C   UNL     1     -42.688  55.830 -54.691  1.00  0.00     0.062 C 
HETATM   11  H   UNL     1     -41.551  55.573 -57.753  1.00  0.00     0.184 HD
ENDROOT
BRANCH  10  12
HETATM   12  C   UNL     1     -42.655  55.237 -53.328  1.00  0.00     0.256 C 
HETATM   13  N   UNL     1     -41.570  55.641 -52.579  1.00  0.00    -0.323 N 
HETATM   14  H   UNL     1     -40.942  56.309 -53.007  1.00  0.00     0.169 HD
HETATM   15  O   UNL     1     -43.572  54.505 -52.983  1.00  0.00    -0.267 OA
BRANCH  13  16
HETATM   16  C   UNL     1     -41.221  55.209 -51.284  1.00  0.00     0.035 A 
HETATM   17  C   UNL     1     -41.584  55.880 -50.112  1.00  0.00     0.031 A 
HETATM   18  C   UNL     1     -41.216  55.373 -48.860  1.00  0.00     0.026 A 
HETATM   19  C   UNL     1     -40.486  54.191 -48.775  1.00  0.00     0.034 A 
HETATM   20 CL   UNL     1     -40.044  53.564 -47.236  1.00  0.00    -0.084 Cl
HETATM   21  C   UNL     1     -40.116  53.513 -49.931  1.00  0.00     0.026 A 
HETATM   22  C   UNL     1     -40.479  54.024 -51.183  1.00  0.00     0.031 A 
ENDBRANCH  13  16
ENDBRANCH  10  12
BRANCH   9  23
HETATM   23  C   UNL     1     -43.481  58.149 -54.060  1.00  0.00    -0.028 A 
HETATM   24  C   UNL     1     -44.326  58.497 -52.997  1.00  0.00     0.012 A 
HETATM   25  C   UNL     1     -44.082  59.649 -52.245  1.00  0.00     0.037 A 
HETATM   26  C   UNL     1     -42.996  60.476 -52.534  1.00  0.00     0.068 A 
HETATM   27  C   UNL     1     -42.136  60.127 -53.575  1.00  0.00     0.037 A 
HETATM   28  C   UNL     1     -42.373  58.972 -54.329  1.00  0.00     0.012 A 
BRANCH  26  29
HETATM   29  O   UNL     1     -42.883  61.578 -51.733  1.00  0.00    -0.356 OA
HETATM   30  C   UNL     1     -43.318  61.439 -50.388  1.00  0.00     0.210 C 
ENDBRANCH  26  29
ENDBRANCH   9  23
TORSDOF 4
ENDMDL
MODEL 8
REMARK VINA RESULT:      -7.2      4.132      5.711
REMARK  4 active torsions:
REMARK  status: ('A' for Active; 'I' for Inactive)
REMARK    1  A    between atoms: C_9  and  C_10 
REMARK    2  A    between atoms: C_13  and  O_14 
REMARK    3  A    between atoms: C_18  and  C_19 
REMARK       I    between atoms: C_19  and  N_20 
REMARK    4  A    between atoms: N_20  and  C_21 
ROOT
HETATM    1  C   UNL     1     -44.779  55.076 -60.755  1.00  0.00     0.070 C 
HETATM    2  C   UNL     1     -44.994  56.439 -60.150  1.00  0.00     0.037 C 
HETATM    3  N   UNL     1     -45.956  57.228 -60.776  1.00  0.00    -0.192 N 
HETATM    4  C   UNL     1     -46.457  58.350 -60.221  1.00  0.00     0.725 A 
HETATM    5  N   UNL     1     -45.898  58.840 -59.072  1.00  0.00    -0.084 N 
HETATM    6  N   UNL     1     -46.582  59.909 -58.612  1.00  0.00    -0.149 NA
HETATM    7  C   UNL     1     -47.512  60.034 -59.565  1.00  0.00     0.275 A 
HETATM    8  N   UNL     1     -47.470  59.101 -60.570  1.00  0.00    -0.054 NA
HETATM    9  C   UNL     1     -44.735  58.242 -58.405  1.00  0.00     0.202 C 
HETATM   10  C   UNL     1     -44.378  56.897 -59.030  1.00  0.00     0.062 C 
HETATM   11  H   UNL     1     -46.464  56.819 -61.556  1.00  0.00     0.184 HD
ENDROOT
BRANCH  10  12
HETATM   12  C   UNL     1     -43.400  56.107 -58.237  1.00  0.00     0.256 C 
HETATM   13  N   UNL     1     -43.707  56.042 -56.894  1.00  0.00    -0.323 N 
HETATM   14  H   UNL     1     -44.563  56.494 -56.599  1.00  0.00     0.169 HD
HETATM   15  O   UNL     1     -42.467  55.571 -58.818  1.00  0.00    -0.267 OA
BRANCH  13  16
HETATM   16  C   UNL     1     -42.949  55.430 -55.875  1.00  0.00     0.035 A 
HETATM   17  C   UNL     1     -43.046  54.078 -55.534  1.00  0.00     0.031 A 
HETATM   18  C   UNL     1     -42.240  53.542 -54.522  1.00  0.00     0.026 A 
HETATM   19  C   UNL     1     -41.332  54.355 -53.851  1.00  0.00     0.034 A 
HETATM   20 CL   UNL     1     -40.336  53.692 -52.616  1.00  0.00    -0.084 Cl
HETATM   21  C   UNL     1     -41.225  55.702 -54.178  1.00  0.00     0.026 A 
HETATM   22  C   UNL     1     -42.036  56.239 -55.185  1.00  0.00     0.031 A 
ENDBRANCH  13  16
ENDBRANCH  10  12
BRANCH   9  23
HETATM   23  C   UNL     1     -43.556  59.212 -58.423  1.00  0.00    -0.028 A 
HETATM   24  C   UNL     1     -42.993  59.644 -57.214  1.00  0.00     0.012 A 
HETATM   25  C   UNL     1     -41.918  60.536 -57.209  1.00  0.00     0.037 A 
HETATM   26  C   UNL     1     -41.383  61.016 -58.406  1.00  0.00     0.068 A 
HETATM   27  C   UNL     1     -41.919  60.575 -59.614  1.00  0.00     0.037 A 
HETATM   28  C   UNL     1     -42.993  59.677 -59.625  1.00  0.00     0.012 A 
BRANCH  26  29
HETATM   29  O   UNL     1     -40.347  61.896 -58.259  1.00  0.00    -0.356 OA
HETATM   30  C   UNL     1     -39.937  62.604 -59.421  1.00  0.00     0.210 C 
ENDBRANCH  26  29
ENDBRANCH   9  23
TORSDOF 4
ENDMDL
MODEL 9
REMARK VINA RESULT:      -7.0      4.316      7.352
REMARK  4 active torsions:
REMARK  status: ('A' for Active; 'I' for Inactive)
REMARK    1  A    between atoms: C_9  and  C_10 
REMARK    2  A    between atoms: C_13  and  O_14 
REMARK    3  A    between atoms: C_18  and  C_19 
REMARK       I    between atoms: C_19  and  N_20 
REMARK    4  A    between atoms: N_20  and  C_21 
ROOT
HETATM    1  C   UNL     1     -41.889  60.604 -56.978  1.00  0.00     0.070 C 
HETATM    2  C   UNL     1     -42.152  59.661 -55.832  1.00  0.00     0.037 C 
HETATM    3  N   UNL     1     -41.791  60.133 -54.573  1.00  0.00    -0.192 N 
HETATM    4  C   UNL     1     -42.189  59.543 -53.428  1.00  0.00     0.725 A 
HETATM    5  N   UNL     1     -42.839  58.340 -53.482  1.00  0.00    -0.084 N 
HETATM    6  N   UNL     1     -43.242  57.946 -52.256  1.00  0.00    -0.149 NA
HETATM    7  C   UNL     1     -42.755  58.940 -51.506  1.00  0.00     0.275 A 
HETATM    8  N   UNL     1     -42.101  59.937 -52.184  1.00  0.00    -0.054 NA
HETATM    9  C   UNL     1     -43.104  57.605 -54.725  1.00  0.00     0.202 C 
HETATM   10  C   UNL     1     -42.761  58.454 -55.946  1.00  0.00     0.062 C 
HETATM   11  H   UNL     1     -41.422  61.079 -54.514  1.00  0.00     0.184 HD
ENDROOT
BRANCH  10  12
HETATM   12  C   UNL     1     -43.262  57.891 -57.227  1.00  0.00     0.256 C 
HETATM   13  N   UNL     1     -44.581  58.199 -57.484  1.00  0.00    -0.323 N 
HETATM   14  H   UNL     1     -45.051  58.791 -56.811  1.00  0.00     0.169 HD
HETATM   15  O   UNL     1     -42.488  57.262 -57.936  1.00  0.00    -0.267 OA
BRANCH  13  16
HETATM   16  C   UNL     1     -45.361  57.762 -58.574  1.00  0.00     0.035 A 
HETATM   17  C   UNL     1     -45.221  56.512 -59.184  1.00  0.00     0.031 A 
HETATM   18  C   UNL     1     -46.051  56.146 -60.250  1.00  0.00     0.026 A 
HETATM   19  C   UNL     1     -47.027  57.026 -60.707  1.00  0.00     0.034 A 
HETATM   20 CL   UNL     1     -48.053  56.570 -62.010  1.00  0.00    -0.084 Cl
HETATM   21  C   UNL     1     -47.177  58.274 -60.112  1.00  0.00     0.026 A 
HETATM   22  C   UNL     1     -46.343  58.642 -59.051  1.00  0.00     0.031 A 
ENDBRANCH  13  16
ENDBRANCH  10  12
BRANCH   9  23
HETATM   23  C   UNL     1     -42.355  56.274 -54.725  1.00  0.00    -0.028 A 
HETATM   24  C   UNL     1     -43.072  55.073 -54.807  1.00  0.00     0.012 A 
HETATM   25  C   UNL     1     -42.405  53.845 -54.801  1.00  0.00     0.037 A 
HETATM   26  C   UNL     1     -41.013  53.789 -54.714  1.00  0.00     0.068 A 
HETATM   27  C   UNL     1     -40.288  54.977 -54.655  1.00  0.00     0.037 A 
HETATM   28  C   UNL     1     -40.951  56.210 -54.666  1.00  0.00     0.012 A 
BRANCH  26  29
HETATM   29  O   UNL     1     -40.490  52.526 -54.700  1.00  0.00    -0.356 OA
HETATM   30  C   UNL     1     -40.035  52.033 -53.447  1.00  0.00     0.210 C 
ENDBRANCH  26  29
ENDBRANCH   9  23
TORSDOF 4
ENDMDL
MODEL 10
REMARK VINA RESULT:      -6.6      3.565      6.251
REMARK  4 active torsions:
REMARK  status: ('A' for Active; 'I' for Inactive)
REMARK    1  A    between atoms: C_9  and  C_10 
REMARK    2  A    between atoms: C_13  and  O_14 
REMARK    3  A    between atoms: C_18  and  C_19 
REMARK       I    between atoms: C_19  and  N_20 
REMARK    4  A    between atoms: N_20  and  C_21 
ROOT
HETATM    1  C   UNL     1     -42.554  60.652 -55.007  1.00  0.00     0.070 C 
HETATM    2  C   UNL     1     -43.131  59.719 -53.972  1.00  0.00     0.037 C 
HETATM    3  N   UNL     1     -43.480  60.310 -52.761  1.00  0.00    -0.192 N 
HETATM    4  C   UNL     1     -44.240  59.689 -51.836  1.00  0.00     0.725 A 
HETATM    5  N   UNL     1     -44.556  58.368 -52.002  1.00  0.00    -0.084 N 
HETATM    6  N   UNL     1     -45.394  57.940 -51.034  1.00  0.00    -0.149 NA
HETATM    7  C   UNL     1     -45.498  59.048 -50.292  1.00  0.00     0.275 A 
HETATM    8  N   UNL     1     -44.806  60.141 -50.747  1.00  0.00    -0.054 NA
HETATM    9  C   UNL     1     -44.082  57.544 -53.120  1.00  0.00     0.202 C 
HETATM   10  C   UNL     1     -43.383  58.400 -54.172  1.00  0.00     0.062 C 
HETATM   11  H   UNL     1     -43.363  61.316 -52.678  1.00  0.00     0.184 HD
ENDROOT
BRANCH  10  12
HETATM   12  C   UNL     1     -43.129  57.688 -55.452  1.00  0.00     0.256 C 
HETATM   13  N   UNL     1     -44.214  57.682 -56.303  1.00  0.00    -0.323 N 
HETATM   14  H   UNL     1     -45.039  58.181 -55.995  1.00  0.00     0.169 HD
HETATM   15  O   UNL     1     -42.016  57.221 -55.654  1.00  0.00    -0.267 OA
BRANCH  13  16
HETATM   16  C   UNL     1     -44.312  57.039 -57.553  1.00  0.00     0.035 A 
HETATM   17  C   UNL     1     -43.422  56.057 -57.999  1.00  0.00     0.031 A 
HETATM   18  C   UNL     1     -43.602  55.449 -59.247  1.00  0.00     0.026 A 
HETATM   19  C   UNL     1     -44.675  55.818 -60.052  1.00  0.00     0.034 A 
HETATM   20 CL   UNL     1     -44.901  55.063 -61.581  1.00  0.00    -0.084 Cl
HETATM   21  C   UNL     1     -45.568  56.794 -59.624  1.00  0.00     0.026 A 
HETATM   22  C   UNL     1     -45.384  57.406 -58.379  1.00  0.00     0.031 A 
ENDBRANCH  13  16
ENDBRANCH  10  12
BRANCH   9  23
HETATM   23  C   UNL     1     -43.182  56.421 -52.608  1.00  0.00    -0.028 A 
HETATM   24  C   UNL     1     -42.088  56.727 -51.787  1.00  0.00     0.012 A 
HETATM   25  C   UNL     1     -41.249  55.715 -51.315  1.00  0.00     0.037 A 
HETATM   26  C   UNL     1     -41.482  54.380 -51.649  1.00  0.00     0.068 A 
HETATM   27  C   UNL     1     -42.580  54.062 -52.445  1.00  0.00     0.037 A 
HETATM   28  C   UNL     1     -43.427  55.071 -52.917  1.00  0.00     0.012 A 
BRANCH  26  29
HETATM   29  O   UNL     1     -40.577  53.493 -51.135  1.00  0.00    -0.356 OA
HETATM   30  C   UNL     1     -40.035  52.536 -52.035  1.00  0.00     0.210 C 
ENDBRANCH  26  29
ENDBRANCH   9  23
TORSDOF 4
ENDMDL
