MODEL 1
REMARK VINA RESULT:      -8.7      0.000      0.000
REMARK  6 active torsions:
REMARK  status: ('A' for Active; 'I' for Inactive)
REMARK    1  A    between atoms: C_2  and  C_3 
REMARK    2  A    between atoms: C_3  and  C_4 
REMARK    3  A    between atoms: C_3  and  C_10 
REMARK    4  A    between atoms: C_10  and  C_11 
REMARK       I    between atoms: C_11  and  N_12 
REMARK    5  A    between atoms: N_12  and  C_13 
REMARK    6  A    between atoms: C_20  and  C_21 
REMARK       I    between atoms: C_21  and  N_22 
ROOT
HETATM    1  C   UNL     1     -42.541  56.447 -56.832  1.00  0.00     0.035 A 
HETATM    2  C   UNL     1     -43.175  55.770 -57.882  1.00  0.00     0.046 A 
HETATM    3  C   UNL     1     -44.055  56.472 -58.735  1.00  0.00     0.030 A 
HETATM    4  C   UNL     1     -44.280  57.824 -58.501  1.00  0.00     0.063 A 
HETATM    5  N   UNL     1     -45.167  58.217 -59.464  1.00  0.00    -0.277 N 
HETATM    6  H   UNL     1     -45.560  59.142 -59.595  1.00  0.00     0.189 HD
HETATM    7  N   UNL     1     -45.529  57.246 -60.317  1.00  0.00    -0.168 NA
HETATM    8  C   UNL     1     -44.848  56.161 -59.882  1.00  0.00     0.156 A 
HETATM    9  C   UNL     1     -43.669  58.529 -57.465  1.00  0.00     0.034 A 
HETATM   10  C   UNL     1     -42.791  57.814 -56.642  1.00  0.00     0.032 A 
ENDROOT
BRANCH   1  11
HETATM   11  N   UNL     1     -41.635  55.843 -55.933  1.00  0.00    -0.327 N 
HETATM   12  C   UNL     1     -41.922  55.234 -54.725  1.00  0.00     0.223 C 
HETATM   13  O   UNL     1     -43.037  55.088 -54.234  1.00  0.00    -0.273 OA
HETATM   14  H   UNL     1     -40.662  55.903 -56.198  1.00  0.00     0.169 HD
BRANCH  12  15
HETATM   15  C   UNL     1     -40.706  54.641 -54.025  1.00  0.00     0.116 C 
BRANCH  15  16
HETATM   16  C   UNL     1     -41.016  53.708 -52.838  1.00  0.00     0.049 C 
BRANCH  16  17
HETATM   17  C   UNL     1     -40.609  54.390 -51.539  1.00  0.00    -0.027 C 
HETATM   18  C   UNL     1     -41.160  55.466 -50.960  1.00  0.00     0.007 C 
ENDBRANCH  16  17
BRANCH  16  19
HETATM   19  C   UNL     1     -40.472  52.296 -53.013  1.00  0.00    -0.050 A 
HETATM   20  C   UNL     1     -40.503  51.637 -54.252  1.00  0.00     0.008 A 
HETATM   21  C   UNL     1     -40.000  50.341 -54.383  1.00  0.00     0.001 A 
HETATM   22  C   UNL     1     -39.456  49.687 -53.279  1.00  0.00     0.000 A 
HETATM   23  C   UNL     1     -39.409  50.330 -52.046  1.00  0.00     0.001 A 
HETATM   24  C   UNL     1     -39.909  51.627 -51.914  1.00  0.00     0.008 A 
ENDBRANCH  16  19
ENDBRANCH  15  16
ENDBRANCH  12  15
ENDBRANCH   1  11
BRANCH   8  25
HETATM   25  C   UNL     1     -44.964  54.867 -60.570  1.00  0.00     0.270 C 
HETATM   26  N   UNL     1     -45.147  53.802 -59.729  1.00  0.00    -0.365 N 
HETATM   27  H   UNL     1     -45.197  53.976 -58.733  1.00  0.00     0.159 HD
HETATM   28  H   UNL     1     -45.252  52.877 -60.113  1.00  0.00     0.159 HD
HETATM   29  O   UNL     1     -44.916  54.713 -61.786  1.00  0.00    -0.266 OA
ENDBRANCH   8  25
TORSDOF 6
ENDMDL
MODEL 2
REMARK VINA RESULT:      -8.5      1.405      3.079
REMARK  6 active torsions:
REMARK  status: ('A' for Active; 'I' for Inactive)
REMARK    1  A    between atoms: C_2  and  C_3 
REMARK    2  A    between atoms: C_3  and  C_4 
REMARK    3  A    between atoms: C_3  and  C_10 
REMARK    4  A    between atoms: C_10  and  C_11 
REMARK       I    between atoms: C_11  and  N_12 
REMARK    5  A    between atoms: N_12  and  C_13 
REMARK    6  A    between atoms: C_20  and  C_21 
REMARK       I    between atoms: C_21  and  N_22 
ROOT
HETATM    1  C   UNL     1     -42.798  55.520 -56.380  1.00  0.00     0.035 A 
HETATM    2  C   UNL     1     -43.441  55.118 -57.558  1.00  0.00     0.046 A 
HETATM    3  C   UNL     1     -43.545  56.022 -58.640  1.00  0.00     0.030 A 
HETATM    4  C   UNL     1     -43.013  57.298 -58.501  1.00  0.00     0.063 A 
HETATM    5  N   UNL     1     -43.272  57.931 -59.684  1.00  0.00    -0.277 N 
HETATM    6  H   UNL     1     -43.030  58.882 -59.937  1.00  0.00     0.189 HD
HETATM    7  N   UNL     1     -43.911  57.175 -60.591  1.00  0.00    -0.168 NA
HETATM    8  C   UNL     1     -44.086  55.990 -59.962  1.00  0.00     0.156 A 
HETATM    9  C   UNL     1     -42.369  57.733 -57.343  1.00  0.00     0.034 A 
HETATM   10  C   UNL     1     -42.268  56.815 -56.291  1.00  0.00     0.032 A 
ENDROOT
BRANCH   1  11
HETATM   11  N   UNL     1     -42.629  54.692 -55.249  1.00  0.00    -0.327 N 
HETATM   12  C   UNL     1     -41.487  54.015 -54.858  1.00  0.00     0.223 C 
HETATM   13  O   UNL     1     -40.399  54.045 -55.424  1.00  0.00    -0.273 OA
HETATM   14  H   UNL     1     -43.458  54.555 -54.689  1.00  0.00     0.169 HD
BRANCH  12  15
HETATM   15  C   UNL     1     -41.639  53.243 -53.554  1.00  0.00     0.116 C 
BRANCH  15  16
HETATM   16  C   UNL     1     -40.379  53.185 -52.670  1.00  0.00     0.049 C 
BRANCH  16  17
HETATM   17  C   UNL     1     -39.800  51.777 -52.707  1.00  0.00    -0.027 C 
HETATM   18  C   UNL     1     -39.420  51.064 -53.777  1.00  0.00     0.007 C 
ENDBRANCH  16  17
BRANCH  16  19
HETATM   19  C   UNL     1     -40.587  53.751 -51.272  1.00  0.00    -0.050 A 
HETATM   20  C   UNL     1     -40.238  53.030 -50.119  1.00  0.00     0.008 A 
HETATM   21  C   UNL     1     -40.443  53.574 -48.849  1.00  0.00     0.001 A 
HETATM   22  C   UNL     1     -40.996  54.846 -48.714  1.00  0.00     0.000 A 
HETATM   23  C   UNL     1     -41.339  55.578 -49.847  1.00  0.00     0.001 A 
HETATM   24  C   UNL     1     -41.132  55.036 -51.117  1.00  0.00     0.008 A 
ENDBRANCH  16  19
ENDBRANCH  15  16
ENDBRANCH  12  15
ENDBRANCH   1  11
BRANCH   8  25
HETATM   25  C   UNL     1     -44.750  54.865 -60.635  1.00  0.00     0.270 C 
HETATM   26  N   UNL     1     -45.222  53.905 -59.781  1.00  0.00    -0.365 N 
HETATM   27  H   UNL     1     -45.094  54.038 -58.785  1.00  0.00     0.159 HD
HETATM   28  H   UNL     1     -45.706  53.104 -60.152  1.00  0.00     0.159 HD
HETATM   29  O   UNL     1     -44.897  54.761 -61.848  1.00  0.00    -0.266 OA
ENDBRANCH   8  25
TORSDOF 6
ENDMDL
MODEL 3
REMARK VINA RESULT:      -8.1      1.928      2.666
REMARK  6 active torsions:
REMARK  status: ('A' for Active; 'I' for Inactive)
REMARK    1  A    between atoms: C_2  and  C_3 
REMARK    2  A    between atoms: C_3  and  C_4 
REMARK    3  A    between atoms: C_3  and  C_10 
REMARK    4  A    between atoms: C_10  and  C_11 
REMARK       I    between atoms: C_11  and  N_12 
REMARK    5  A    between atoms: N_12  and  C_13 
REMARK    6  A    between atoms: C_20  and  C_21 
REMARK       I    between atoms: C_21  and  N_22 
ROOT
HETATM    1  C   UNL     1     -43.096  56.178 -57.819  1.00  0.00     0.035 A 
HETATM    2  C   UNL     1     -44.068  57.178 -57.678  1.00  0.00     0.046 A 
HETATM    3  C   UNL     1     -44.965  57.434 -58.740  1.00  0.00     0.030 A 
HETATM    4  C   UNL     1     -44.850  56.691 -59.908  1.00  0.00     0.063 A 
HETATM    5  N   UNL     1     -45.828  57.165 -60.738  1.00  0.00    -0.277 N 
HETATM    6  H   UNL     1     -46.035  56.856 -61.681  1.00  0.00     0.189 HD
HETATM    7  N   UNL     1     -46.582  58.140 -60.209  1.00  0.00    -0.168 NA
HETATM    8  C   UNL     1     -46.063  58.318 -58.972  1.00  0.00     0.156 A 
HETATM    9  C   UNL     1     -43.894  55.691 -60.085  1.00  0.00     0.034 A 
HETATM   10  C   UNL     1     -43.027  55.448 -59.014  1.00  0.00     0.032 A 
ENDROOT
BRANCH   1  11
HETATM   11  N   UNL     1     -42.163  55.835 -56.816  1.00  0.00    -0.327 N 
HETATM   12  C   UNL     1     -42.288  54.859 -55.844  1.00  0.00     0.223 C 
HETATM   13  O   UNL     1     -43.235  54.092 -55.704  1.00  0.00    -0.273 OA
HETATM   14  H   UNL     1     -41.329  56.403 -56.793  1.00  0.00     0.169 HD
BRANCH  12  15
HETATM   15  C   UNL     1     -41.067  54.722 -54.943  1.00  0.00     0.116 C 
BRANCH  15  16
HETATM   16  C   UNL     1     -41.331  54.088 -53.564  1.00  0.00     0.049 C 
BRANCH  16  17
HETATM   17  C   UNL     1     -40.993  55.094 -52.471  1.00  0.00    -0.027 C 
HETATM   18  C   UNL     1     -41.656  56.210 -52.138  1.00  0.00     0.007 C 
ENDBRANCH  16  17
BRANCH  16  19
HETATM   19  C   UNL     1     -40.689  52.718 -53.389  1.00  0.00    -0.050 A 
HETATM   20  C   UNL     1     -40.675  51.767 -54.422  1.00  0.00     0.008 A 
HETATM   21  C   UNL     1     -40.081  50.518 -54.232  1.00  0.00     0.001 A 
HETATM   22  C   UNL     1     -39.490  50.202 -53.010  1.00  0.00     0.000 A 
HETATM   23  C   UNL     1     -39.487  51.137 -51.980  1.00  0.00     0.001 A 
HETATM   24  C   UNL     1     -40.078  52.388 -52.168  1.00  0.00     0.008 A 
ENDBRANCH  16  19
ENDBRANCH  15  16
ENDBRANCH  12  15
ENDBRANCH   1  11
BRANCH   8  25
HETATM   25  C   UNL     1     -46.629  59.311 -58.048  1.00  0.00     0.270 C 
HETATM   26  N   UNL     1     -47.719  58.864 -57.349  1.00  0.00    -0.365 N 
HETATM   27  H   UNL     1     -48.039  57.915 -57.506  1.00  0.00     0.159 HD
HETATM   28  H   UNL     1     -48.164  59.471 -56.680  1.00  0.00     0.159 HD
HETATM   29  O   UNL     1     -46.191  60.443 -57.881  1.00  0.00    -0.266 OA
ENDBRANCH   8  25
TORSDOF 6
ENDMDL
MODEL 4
REMARK VINA RESULT:      -8.0      2.772      8.835
REMARK  6 active torsions:
REMARK  status: ('A' for Active; 'I' for Inactive)
REMARK    1  A    between atoms: C_2  and  C_3 
REMARK    2  A    between atoms: C_3  and  C_4 
REMARK    3  A    between atoms: C_3  and  C_10 
REMARK    4  A    between atoms: C_10  and  C_11 
REMARK       I    between atoms: C_11  and  N_12 
REMARK    5  A    between atoms: N_12  and  C_13 
REMARK    6  A    between atoms: C_20  and  C_21 
REMARK       I    between atoms: C_21  and  N_22 
ROOT
HETATM    1  C   UNL     1     -41.126  54.595 -54.622  1.00  0.00     0.035 A 
HETATM    2  C   UNL     1     -41.511  54.738 -53.282  1.00  0.00     0.046 A 
HETATM    3  C   UNL     1     -41.067  53.798 -52.325  1.00  0.00     0.030 A 
HETATM    4  C   UNL     1     -40.265  52.742 -52.742  1.00  0.00     0.063 A 
HETATM    5  N   UNL     1     -40.011  52.011 -51.616  1.00  0.00    -0.277 N 
HETATM    6  H   UNL     1     -39.460  51.163 -51.547  1.00  0.00     0.189 HD
HETATM    7  N   UNL     1     -40.562  52.504 -50.496  1.00  0.00    -0.168 NA
HETATM    8  C   UNL     1     -41.217  53.611 -50.916  1.00  0.00     0.156 A 
HETATM    9  C   UNL     1     -39.866  52.567 -54.067  1.00  0.00     0.034 A 
HETATM   10  C   UNL     1     -40.307  53.519 -54.993  1.00  0.00     0.032 A 
ENDROOT
BRANCH   1  11
HETATM   11  N   UNL     1     -41.503  55.484 -55.652  1.00  0.00    -0.327 N 
HETATM   12  C   UNL     1     -42.565  55.361 -56.530  1.00  0.00     0.223 C 
HETATM   13  O   UNL     1     -43.392  54.455 -56.544  1.00  0.00    -0.273 OA
HETATM   14  H   UNL     1     -40.894  56.281 -55.776  1.00  0.00     0.169 HD
BRANCH  12  15
HETATM   15  C   UNL     1     -42.711  56.531 -57.494  1.00  0.00     0.116 C 
BRANCH  15  16
HETATM   16  C   UNL     1     -42.986  56.149 -58.961  1.00  0.00     0.049 C 
BRANCH  16  17
HETATM   17  C   UNL     1     -41.974  56.843 -59.863  1.00  0.00    -0.027 C 
HETATM   18  C   UNL     1     -41.967  58.119 -60.273  1.00  0.00     0.007 C 
ENDBRANCH  16  17
BRANCH  16  19
HETATM   19  C   UNL     1     -44.440  56.330 -59.377  1.00  0.00    -0.050 A 
HETATM   20  C   UNL     1     -45.285  57.252 -58.740  1.00  0.00     0.008 A 
HETATM   21  C   UNL     1     -46.615  57.395 -59.141  1.00  0.00     0.001 A 
HETATM   22  C   UNL     1     -47.118  56.622 -60.185  1.00  0.00     0.000 A 
HETATM   23  C   UNL     1     -46.291  55.710 -60.833  1.00  0.00     0.001 A 
HETATM   24  C   UNL     1     -44.960  55.567 -60.435  1.00  0.00     0.008 A 
ENDBRANCH  16  19
ENDBRANCH  15  16
ENDBRANCH  12  15
ENDBRANCH   1  11
BRANCH   8  25
HETATM   25  C   UNL     1     -41.955  54.459 -49.970  1.00  0.00     0.270 C 
HETATM   26  N   UNL     1     -43.219  54.786 -50.383  1.00  0.00    -0.365 N 
HETATM   27  H   UNL     1     -43.546  54.425 -51.271  1.00  0.00     0.159 HD
HETATM   28  H   UNL     1     -43.806  55.352 -49.791  1.00  0.00     0.159 HD
HETATM   29  O   UNL     1     -41.519  54.854 -48.894  1.00  0.00    -0.266 OA
ENDBRANCH   8  25
TORSDOF 6
ENDMDL
MODEL 5
REMARK VINA RESULT:      -8.0      4.349      6.164
REMARK  6 active torsions:
REMARK  status: ('A' for Active; 'I' for Inactive)
REMARK    1  A    between atoms: C_2  and  C_3 
REMARK    2  A    between atoms: C_3  and  C_4 
REMARK    3  A    between atoms: C_3  and  C_10 
REMARK    4  A    between atoms: C_10  and  C_11 
REMARK       I    between atoms: C_11  and  N_12 
REMARK    5  A    between atoms: N_12  and  C_13 
REMARK    6  A    between atoms: C_20  and  C_21 
REMARK       I    between atoms: C_21  and  N_22 
ROOT
HETATM    1  C   UNL     1     -44.052  56.885 -52.887  1.00  0.00     0.035 A 
HETATM    2  C   UNL     1     -44.273  57.809 -51.857  1.00  0.00     0.046 A 
HETATM    3  C   UNL     1     -44.937  59.024 -52.140  1.00  0.00     0.030 A 
HETATM    4  C   UNL     1     -45.344  59.277 -53.445  1.00  0.00     0.063 A 
HETATM    5  N   UNL     1     -45.934  60.510 -53.408  1.00  0.00    -0.277 N 
HETATM    6  H   UNL     1     -46.344  61.016 -54.184  1.00  0.00     0.189 HD
HETATM    7  N   UNL     1     -45.965  61.076 -52.192  1.00  0.00    -0.168 NA
HETATM    8  C   UNL     1     -45.354  60.169 -51.396  1.00  0.00     0.156 A 
HETATM    9  C   UNL     1     -45.137  58.383 -54.494  1.00  0.00     0.034 A 
HETATM   10  C   UNL     1     -44.490  57.181 -54.185  1.00  0.00     0.032 A 
ENDROOT
BRANCH   1  11
HETATM   11  N   UNL     1     -43.412  55.639 -52.707  1.00  0.00    -0.327 N 
HETATM   12  C   UNL     1     -42.125  55.406 -52.255  1.00  0.00     0.223 C 
HETATM   13  O   UNL     1     -41.317  56.258 -51.899  1.00  0.00    -0.273 OA
HETATM   14  H   UNL     1     -43.955  54.833 -52.981  1.00  0.00     0.169 HD
BRANCH  12  15
HETATM   15  C   UNL     1     -41.767  53.930 -52.137  1.00  0.00     0.116 C 
BRANCH  15  16
HETATM   16  C   UNL     1     -40.539  53.480 -52.952  1.00  0.00     0.049 C 
BRANCH  16  17
HETATM   17  C   UNL     1     -40.741  53.850 -54.416  1.00  0.00    -0.027 C 
HETATM   18  C   UNL     1     -40.060  54.744 -55.146  1.00  0.00     0.007 C 
ENDBRANCH  16  17
BRANCH  16  19
HETATM   19  C   UNL     1     -40.144  52.030 -52.710  1.00  0.00    -0.050 A 
HETATM   20  C   UNL     1     -39.851  51.544 -51.426  1.00  0.00     0.008 A 
HETATM   21  C   UNL     1     -39.489  50.210 -51.234  1.00  0.00     0.001 A 
HETATM   22  C   UNL     1     -39.417  49.341 -52.321  1.00  0.00     0.000 A 
HETATM   23  C   UNL     1     -39.713  49.804 -53.600  1.00  0.00     0.001 A 
HETATM   24  C   UNL     1     -40.079  51.138 -53.793  1.00  0.00     0.008 A 
ENDBRANCH  16  19
ENDBRANCH  15  16
ENDBRANCH  12  15
ENDBRANCH   1  11
BRANCH   8  25
HETATM   25  C   UNL     1     -45.193  60.413 -49.955  1.00  0.00     0.270 C 
HETATM   26  N   UNL     1     -43.897  60.631 -49.568  1.00  0.00    -0.365 N 
HETATM   27  H   UNL     1     -43.172  60.619 -50.276  1.00  0.00     0.159 HD
HETATM   28  H   UNL     1     -43.692  60.822 -48.601  1.00  0.00     0.159 HD
HETATM   29  O   UNL     1     -46.109  60.436 -49.141  1.00  0.00    -0.266 OA
ENDBRANCH   8  25
TORSDOF 6
ENDMDL
MODEL 6
REMARK VINA RESULT:      -7.9      4.789      6.386
REMARK  6 active torsions:
REMARK  status: ('A' for Active; 'I' for Inactive)
REMARK    1  A    between atoms: C_2  and  C_3 
REMARK    2  A    between atoms: C_3  and  C_4 
REMARK    3  A    between atoms: C_3  and  C_10 
REMARK    4  A    between atoms: C_10  and  C_11 
REMARK       I    between atoms: C_11  and  N_12 
REMARK    5  A    between atoms: N_12  and  C_13 
REMARK    6  A    between atoms: C_20  and  C_21 
REMARK       I    between atoms: C_21  and  N_22 
ROOT
HETATM    1  C   UNL     1     -41.940  57.665 -52.164  1.00  0.00     0.035 A 
HETATM    2  C   UNL     1     -42.831  58.385 -51.358  1.00  0.00     0.046 A 
HETATM    3  C   UNL     1     -43.104  59.739 -51.656  1.00  0.00     0.030 A 
HETATM    4  C   UNL     1     -42.467  60.328 -52.742  1.00  0.00     0.063 A 
HETATM    5  N   UNL     1     -42.915  61.619 -52.771  1.00  0.00    -0.277 N 
HETATM    6  H   UNL     1     -42.656  62.343 -53.429  1.00  0.00     0.189 HD
HETATM    7  N   UNL     1     -43.801  61.921 -51.809  1.00  0.00    -0.168 NA
HETATM    8  C   UNL     1     -43.931  60.769 -51.112  1.00  0.00     0.156 A 
HETATM    9  C   UNL     1     -41.573  59.643 -53.564  1.00  0.00     0.034 A 
HETATM   10  C   UNL     1     -41.330  58.299 -53.256  1.00  0.00     0.032 A 
ENDROOT
BRANCH   1  11
HETATM   11  N   UNL     1     -41.610  56.307 -51.960  1.00  0.00    -0.327 N 
HETATM   12  C   UNL     1     -42.401  55.198 -52.207  1.00  0.00     0.223 C 
HETATM   13  O   UNL     1     -43.532  55.206 -52.681  1.00  0.00    -0.273 OA
HETATM   14  H   UNL     1     -40.703  56.141 -51.550  1.00  0.00     0.169 HD
BRANCH  12  15
HETATM   15  C   UNL     1     -41.714  53.870 -51.915  1.00  0.00     0.116 C 
BRANCH  15  16
HETATM   16  C   UNL     1     -40.546  53.510 -52.854  1.00  0.00     0.049 C 
BRANCH  16  17
HETATM   17  C   UNL     1     -40.837  54.041 -54.251  1.00  0.00    -0.027 C 
HETATM   18  C   UNL     1     -40.084  54.857 -55.002  1.00  0.00     0.007 C 
ENDBRANCH  16  17
BRANCH  16  19
HETATM   19  C   UNL     1     -40.150  52.041 -52.801  1.00  0.00    -0.050 A 
HETATM   20  C   UNL     1     -40.107  51.241 -53.953  1.00  0.00     0.008 A 
HETATM   21  C   UNL     1     -39.743  49.895 -53.874  1.00  0.00     0.001 A 
HETATM   22  C   UNL     1     -39.414  49.331 -52.644  1.00  0.00     0.000 A 
HETATM   23  C   UNL     1     -39.442  50.112 -51.492  1.00  0.00     0.001 A 
HETATM   24  C   UNL     1     -39.804  51.459 -51.570  1.00  0.00     0.008 A 
ENDBRANCH  16  19
ENDBRANCH  15  16
ENDBRANCH  12  15
ENDBRANCH   1  11
BRANCH   8  25
HETATM   25  C   UNL     1     -44.840  60.678 -49.961  1.00  0.00     0.270 C 
HETATM   26  N   UNL     1     -44.250  60.971 -48.761  1.00  0.00    -0.365 N 
HETATM   27  H   UNL     1     -43.270  61.229 -48.753  1.00  0.00     0.159 HD
HETATM   28  H   UNL     1     -44.800  60.950 -47.917  1.00  0.00     0.159 HD
HETATM   29  O   UNL     1     -46.027  60.379 -50.026  1.00  0.00    -0.266 OA
ENDBRANCH   8  25
TORSDOF 6
ENDMDL
MODEL 7
REMARK VINA RESULT:      -7.9      2.382      4.360
REMARK  6 active torsions:
REMARK  status: ('A' for Active; 'I' for Inactive)
REMARK    1  A    between atoms: C_2  and  C_3 
REMARK    2  A    between atoms: C_3  and  C_4 
REMARK    3  A    between atoms: C_3  and  C_10 
REMARK    4  A    between atoms: C_10  and  C_11 
REMARK       I    between atoms: C_11  and  N_12 
REMARK    5  A    between atoms: N_12  and  C_13 
REMARK    6  A    between atoms: C_20  and  C_21 
REMARK       I    between atoms: C_21  and  N_22 
ROOT
HETATM    1  C   UNL     1     -42.672  55.785 -56.764  1.00  0.00     0.035 A 
HETATM    2  C   UNL     1     -42.338  57.135 -56.594  1.00  0.00     0.046 A 
HETATM    3  C   UNL     1     -42.514  58.038 -57.668  1.00  0.00     0.030 A 
HETATM    4  C   UNL     1     -43.006  57.556 -58.875  1.00  0.00     0.063 A 
HETATM    5  N   UNL     1     -43.055  58.640 -59.706  1.00  0.00    -0.277 N 
HETATM    6  H   UNL     1     -43.361  58.659 -60.672  1.00  0.00     0.189 HD
HETATM    7  N   UNL     1     -42.654  59.791 -59.143  1.00  0.00    -0.168 NA
HETATM    8  C   UNL     1     -42.318  59.436 -57.882  1.00  0.00     0.156 A 
HETATM    9  C   UNL     1     -43.346  56.220 -59.080  1.00  0.00     0.034 A 
HETATM   10  C   UNL     1     -43.176  55.348 -57.998  1.00  0.00     0.032 A 
ENDROOT
BRANCH   1  11
HETATM   11  N   UNL     1     -42.547  54.807 -55.753  1.00  0.00    -0.327 N 
HETATM   12  C   UNL     1     -41.386  54.358 -55.149  1.00  0.00     0.223 C 
HETATM   13  O   UNL     1     -40.250  54.763 -55.373  1.00  0.00    -0.273 OA
HETATM   14  H   UNL     1     -43.411  54.363 -55.475  1.00  0.00     0.169 HD
BRANCH  12  15
HETATM   15  C   UNL     1     -41.617  53.321 -54.058  1.00  0.00     0.116 C 
BRANCH  15  16
HETATM   16  C   UNL     1     -40.441  53.115 -53.082  1.00  0.00     0.049 C 
BRANCH  16  17
HETATM   17  C   UNL     1     -39.972  51.668 -53.153  1.00  0.00    -0.027 C 
HETATM   18  C   UNL     1     -40.000  50.838 -54.204  1.00  0.00     0.007 C 
ENDBRANCH  16  17
BRANCH  16  19
HETATM   19  C   UNL     1     -40.719  53.628 -51.676  1.00  0.00    -0.050 A 
HETATM   20  C   UNL     1     -41.976  54.131 -51.303  1.00  0.00     0.008 A 
HETATM   21  C   UNL     1     -42.201  54.596 -50.006  1.00  0.00     0.001 A 
HETATM   22  C   UNL     1     -41.176  54.562 -49.062  1.00  0.00     0.000 A 
HETATM   23  C   UNL     1     -39.927  54.057 -49.413  1.00  0.00     0.001 A 
HETATM   24  C   UNL     1     -39.701  53.589 -50.709  1.00  0.00     0.008 A 
ENDBRANCH  16  19
ENDBRANCH  15  16
ENDBRANCH  12  15
ENDBRANCH   1  11
BRANCH   8  25
HETATM   25  C   UNL     1     -41.832  60.434 -56.918  1.00  0.00     0.270 C 
HETATM   26  N   UNL     1     -41.450  61.619 -57.488  1.00  0.00    -0.365 N 
HETATM   27  H   UNL     1     -41.537  61.724 -58.492  1.00  0.00     0.159 HD
HETATM   28  H   UNL     1     -41.118  62.369 -56.903  1.00  0.00     0.159 HD
HETATM   29  O   UNL     1     -41.765  60.264 -55.706  1.00  0.00    -0.266 OA
ENDBRANCH   8  25
TORSDOF 6
ENDMDL
MODEL 8
REMARK VINA RESULT:      -7.9      1.667      2.219
REMARK  6 active torsions:
REMARK  status: ('A' for Active; 'I' for Inactive)
REMARK    1  A    between atoms: C_2  and  C_3 
REMARK    2  A    between atoms: C_3  and  C_4 
REMARK    3  A    between atoms: C_3  and  C_10 
REMARK    4  A    between atoms: C_10  and  C_11 
REMARK       I    between atoms: C_11  and  N_12 
REMARK    5  A    between atoms: N_12  and  C_13 
REMARK    6  A    between atoms: C_20  and  C_21 
REMARK       I    between atoms: C_21  and  N_22 
ROOT
HETATM    1  C   UNL     1     -42.508  56.356 -54.898  1.00  0.00     0.035 A 
HETATM    2  C   UNL     1     -42.510  56.118 -56.278  1.00  0.00     0.046 A 
HETATM    3  C   UNL     1     -43.516  56.697 -57.085  1.00  0.00     0.030 A 
HETATM    4  C   UNL     1     -44.491  57.482 -56.481  1.00  0.00     0.063 A 
HETATM    5  N   UNL     1     -45.314  57.884 -57.495  1.00  0.00    -0.277 N 
HETATM    6  H   UNL     1     -46.139  58.468 -57.420  1.00  0.00     0.189 HD
HETATM    7  N   UNL     1     -44.954  57.445 -58.711  1.00  0.00    -0.168 NA
HETATM    8  C   UNL     1     -43.842  56.711 -58.475  1.00  0.00     0.156 A 
HETATM    9  C   UNL     1     -44.522  57.737 -55.110  1.00  0.00     0.034 A 
HETATM   10  C   UNL     1     -43.507  57.164 -54.335  1.00  0.00     0.032 A 
ENDROOT
BRANCH   1  11
HETATM   11  N   UNL     1     -41.542  55.837 -54.007  1.00  0.00    -0.327 N 
HETATM   12  C   UNL     1     -41.683  54.776 -53.131  1.00  0.00     0.223 C 
HETATM   13  O   UNL     1     -42.680  54.073 -52.999  1.00  0.00    -0.273 OA
HETATM   14  H   UNL     1     -40.663  56.333 -53.991  1.00  0.00     0.169 HD
BRANCH  12  15
HETATM   15  C   UNL     1     -40.420  54.450 -52.344  1.00  0.00     0.116 C 
BRANCH  15  16
HETATM   16  C   UNL     1     -40.597  53.429 -51.204  1.00  0.00     0.049 C 
BRANCH  16  17
HETATM   17  C   UNL     1     -39.925  53.957 -49.943  1.00  0.00    -0.027 C 
HETATM   18  C   UNL     1     -40.441  54.062 -48.711  1.00  0.00     0.007 C 
ENDBRANCH  16  17
BRANCH  16  19
HETATM   19  C   UNL     1     -40.202  52.010 -51.589  1.00  0.00    -0.050 A 
HETATM   20  C   UNL     1     -40.046  50.996 -50.630  1.00  0.00     0.008 A 
HETATM   21  C   UNL     1     -39.681  49.704 -51.013  1.00  0.00     0.001 A 
HETATM   22  C   UNL     1     -39.470  49.405 -52.357  1.00  0.00     0.000 A 
HETATM   23  C   UNL     1     -39.630  50.396 -53.321  1.00  0.00     0.001 A 
HETATM   24  C   UNL     1     -39.997  51.688 -52.941  1.00  0.00     0.008 A 
ENDBRANCH  16  19
ENDBRANCH  15  16
ENDBRANCH  12  15
ENDBRANCH   1  11
BRANCH   8  25
HETATM   25  C   UNL     1     -43.120  56.055 -59.575  1.00  0.00     0.270 C 
HETATM   26  N   UNL     1     -41.836  56.499 -59.741  1.00  0.00    -0.365 N 
HETATM   27  H   UNL     1     -41.485  57.212 -59.114  1.00  0.00     0.159 HD
HETATM   28  H   UNL     1     -41.259  56.095 -60.461  1.00  0.00     0.159 HD
HETATM   29  O   UNL     1     -43.586  55.179 -60.296  1.00  0.00    -0.266 OA
ENDBRANCH   8  25
TORSDOF 6
ENDMDL
MODEL 9
REMARK VINA RESULT:      -7.7      2.474      3.754
REMARK  6 active torsions:
REMARK  status: ('A' for Active; 'I' for Inactive)
REMARK    1  A    between atoms: C_2  and  C_3 
REMARK    2  A    between atoms: C_3  and  C_4 
REMARK    3  A    between atoms: C_3  and  C_10 
REMARK    4  A    between atoms: C_10  and  C_11 
REMARK       I    between atoms: C_11  and  N_12 
REMARK    5  A    between atoms: N_12  and  C_13 
REMARK    6  A    between atoms: C_20  and  C_21 
REMARK       I    between atoms: C_21  and  N_22 
ROOT
HETATM    1  C   UNL     1     -42.875  56.487 -58.262  1.00  0.00     0.035 A 
HETATM    2  C   UNL     1     -42.323  57.774 -58.304  1.00  0.00     0.046 A 
HETATM    3  C   UNL     1     -42.716  58.669 -59.325  1.00  0.00     0.030 A 
HETATM    4  C   UNL     1     -43.635  58.240 -60.275  1.00  0.00     0.063 A 
HETATM    5  N   UNL     1     -43.805  59.301 -61.121  1.00  0.00    -0.277 N 
HETATM    6  H   UNL     1     -44.404  59.344 -61.937  1.00  0.00     0.189 HD
HETATM    7  N   UNL     1     -43.090  60.390 -60.798  1.00  0.00    -0.168 NA
HETATM    8  C   UNL     1     -42.412  60.017 -59.688  1.00  0.00     0.156 A 
HETATM    9  C   UNL     1     -44.202  56.966 -60.266  1.00  0.00     0.034 A 
HETATM   10  C   UNL     1     -43.808  56.104 -59.237  1.00  0.00     0.032 A 
ENDROOT
BRANCH   1  11
HETATM   11  N   UNL     1     -42.561  55.524 -57.278  1.00  0.00    -0.327 N 
HETATM   12  C   UNL     1     -43.004  55.477 -55.968  1.00  0.00     0.223 C 
HETATM   13  O   UNL     1     -43.782  56.264 -55.438  1.00  0.00    -0.273 OA
HETATM   14  H   UNL     1     -41.905  54.812 -57.567  1.00  0.00     0.169 HD
BRANCH  12  15
HETATM   15  C   UNL     1     -42.504  54.269 -55.187  1.00  0.00     0.116 C 
BRANCH  15  16
HETATM   16  C   UNL     1     -41.656  54.591 -53.942  1.00  0.00     0.049 C 
BRANCH  16  17
HETATM   17  C   UNL     1     -40.808  55.827 -54.213  1.00  0.00    -0.027 C 
HETATM   18  C   UNL     1     -40.799  56.989 -53.545  1.00  0.00     0.007 C 
ENDBRANCH  16  17
BRANCH  16  19
HETATM   19  C   UNL     1     -40.883  53.395 -53.403  1.00  0.00    -0.050 A 
HETATM   20  C   UNL     1     -40.557  53.273 -52.043  1.00  0.00     0.008 A 
HETATM   21  C   UNL     1     -39.845  52.166 -51.577  1.00  0.00     0.001 A 
HETATM   22  C   UNL     1     -39.453  51.163 -52.462  1.00  0.00     0.000 A 
HETATM   23  C   UNL     1     -39.777  51.264 -53.811  1.00  0.00     0.001 A 
HETATM   24  C   UNL     1     -40.491  52.370 -54.279  1.00  0.00     0.008 A 
ENDBRANCH  16  19
ENDBRANCH  15  16
ENDBRANCH  12  15
ENDBRANCH   1  11
BRANCH   8  25
HETATM   25  C   UNL     1     -41.507  60.950 -59.003  1.00  0.00     0.270 C 
HETATM   26  N   UNL     1     -41.236  62.087 -59.716  1.00  0.00    -0.365 N 
HETATM   27  H   UNL     1     -41.668  62.204 -60.625  1.00  0.00     0.159 HD
HETATM   28  H   UNL     1     -40.637  62.793 -59.319  1.00  0.00     0.159 HD
HETATM   29  O   UNL     1     -41.025  60.771 -57.891  1.00  0.00    -0.266 OA
ENDBRANCH   8  25
TORSDOF 6
ENDMDL
MODEL 10
REMARK VINA RESULT:      -7.6     14.856     17.316
REMARK  6 active torsions:
REMARK  status: ('A' for Active; 'I' for Inactive)
REMARK    1  A    between atoms: C_2  and  C_3 
REMARK    2  A    between atoms: C_3  and  C_4 
REMARK    3  A    between atoms: C_3  and  C_10 
REMARK    4  A    between atoms: C_10  and  C_11 
REMARK       I    between atoms: C_11  and  N_12 
REMARK    5  A    between atoms: N_12  and  C_13 
REMARK    6  A    between atoms: C_20  and  C_21 
REMARK       I    between atoms: C_21  and  N_22 
ROOT
HETATM    1  C   UNL     1     -36.759  41.526 -56.969  1.00  0.00     0.035 A 
HETATM    2  C   UNL     1     -37.392  41.227 -55.755  1.00  0.00     0.046 A 
HETATM    3  C   UNL     1     -36.783  41.611 -54.538  1.00  0.00     0.030 A 
HETATM    4  C   UNL     1     -35.560  42.268 -54.578  1.00  0.00     0.063 A 
HETATM    5  N   UNL     1     -35.226  42.496 -53.272  1.00  0.00    -0.277 N 
HETATM    6  H   UNL     1     -34.391  42.952 -52.924  1.00  0.00     0.189 HD
HETATM    7  N   UNL     1     -36.131  42.059 -52.383  1.00  0.00    -0.168 NA
HETATM    8  C   UNL     1     -37.102  41.511 -53.149  1.00  0.00     0.156 A 
HETATM    9  C   UNL     1     -34.901  42.580 -55.767  1.00  0.00     0.034 A 
HETATM   10  C   UNL     1     -35.530  42.201 -56.959  1.00  0.00     0.032 A 
ENDROOT
BRANCH   1  11
HETATM   11  N   UNL     1     -37.288  41.200 -58.237  1.00  0.00    -0.327 N 
HETATM   12  C   UNL     1     -36.871  40.198 -59.095  1.00  0.00     0.223 C 
HETATM   13  O   UNL     1     -35.973  39.390 -58.883  1.00  0.00    -0.273 OA
HETATM   14  H   UNL     1     -38.033  41.801 -58.560  1.00  0.00     0.169 HD
BRANCH  12  15
HETATM   15  C   UNL     1     -37.696  40.092 -60.372  1.00  0.00     0.116 C 
BRANCH  15  16
HETATM   16  C   UNL     1     -37.736  38.694 -61.018  1.00  0.00     0.049 C 
BRANCH  16  17
HETATM   17  C   UNL     1     -36.738  38.638 -62.167  1.00  0.00    -0.027 C 
HETATM   18  C   UNL     1     -35.626  37.897 -62.263  1.00  0.00     0.007 C 
ENDBRANCH  16  17
BRANCH  16  19
HETATM   19  C   UNL     1     -39.141  38.225 -61.371  1.00  0.00    -0.050 A 
HETATM   20  C   UNL     1     -40.144  38.086 -60.398  1.00  0.00     0.008 A 
HETATM   21  C   UNL     1     -41.424  37.652 -60.751  1.00  0.00     0.001 A 
HETATM   22  C   UNL     1     -41.720  37.354 -62.080  1.00  0.00     0.000 A 
HETATM   23  C   UNL     1     -40.740  37.496 -63.057  1.00  0.00     0.001 A 
HETATM   24  C   UNL     1     -39.461  37.932 -62.707  1.00  0.00     0.008 A 
ENDBRANCH  16  19
ENDBRANCH  15  16
ENDBRANCH  12  15
ENDBRANCH   1  11
BRANCH   8  25
HETATM   25  C   UNL     1     -38.303  40.920 -52.542  1.00  0.00     0.270 C 
HETATM   26  N   UNL     1     -39.373  41.772 -52.481  1.00  0.00    -0.365 N 
HETATM   27  H   UNL     1     -39.268  42.709 -52.852  1.00  0.00     0.159 HD
HETATM   28  H   UNL     1     -40.245  41.449 -52.095  1.00  0.00     0.159 HD
HETATM   29  O   UNL     1     -38.385  39.770 -52.125  1.00  0.00    -0.266 OA
ENDBRANCH   8  25
TORSDOF 6
ENDMDL
