MODEL 1
REMARK VINA RESULT:      -7.3      0.000      0.000
REMARK  6 active torsions:
REMARK  status: ('A' for Active; 'I' for Inactive)
REMARK    1  A    between atoms: C_6  and  C_7 
REMARK       I    between atoms: C_7  and  N_8 
REMARK    2  A    between atoms: N_8  and  C_9 
REMARK    3  A    between atoms: C_9  and  C_10 
REMARK    4  A    between atoms: C_10  and  O_11 
REMARK    5  A    between atoms: C_10  and  C_12 
REMARK    6  A    between atoms: C_15  and  O_16 
ROOT
HETATM    1  C   UNL     1     -40.677  54.257 -54.177  1.00  0.00     0.258 C 
HETATM    2  N   UNL     1     -41.865  54.949 -54.268  1.00  0.00    -0.350 N 
HETATM    3  O   UNL     1     -39.838  54.245 -55.070  1.00  0.00    -0.267 OA
HETATM    4  H   UNL     1     -42.434  54.965 -53.423  1.00  0.00     0.163 HD
ENDROOT
BRANCH   2   5
HETATM    5  C   UNL     1     -42.183  55.848 -55.381  1.00  0.00     0.114 C 
HETATM    6  C   UNL     1     -42.928  55.083 -56.482  1.00  0.00     0.035 C 
BRANCH   5   7
HETATM    7  C   UNL     1     -42.991  57.071 -54.855  1.00  0.00     0.173 C 
BRANCH   7   8
HETATM    8  O   UNL     1     -43.226  58.022 -55.900  1.00  0.00    -0.389 OA
HETATM    9  H   UNL     1     -44.066  57.774 -56.324  1.00  0.00     0.210 HD
ENDBRANCH   7   8
BRANCH   7  10
HETATM   10  C   UNL     1     -42.343  57.738 -53.659  1.00  0.00    -0.028 A 
HETATM   11  C   UNL     1     -41.005  58.150 -53.740  1.00  0.00     0.012 A 
HETATM   12  C   UNL     1     -40.392  58.793 -52.662  1.00  0.00     0.037 A 
HETATM   13  C   UNL     1     -41.102  59.047 -51.487  1.00  0.00     0.068 A 
HETATM   14  C   UNL     1     -42.430  58.635 -51.394  1.00  0.00     0.037 A 
HETATM   15  C   UNL     1     -43.044  57.984 -52.471  1.00  0.00     0.012 A 
BRANCH  13  16
HETATM   16  O   UNL     1     -40.388  59.693 -50.516  1.00  0.00    -0.356 OA
HETATM   17  C   UNL     1     -38.974  59.560 -50.567  1.00  0.00     0.210 C 
ENDBRANCH  13  16
ENDBRANCH   7  10
ENDBRANCH   5   7
ENDBRANCH   2   5
BRANCH   1  18
HETATM   18  C   UNL     1     -40.484  53.552 -52.921  1.00  0.00     0.105 A 
HETATM   19  C   UNL     1     -40.059  52.210 -52.726  1.00  0.00     0.071 A 
HETATM   20  C   UNL     1     -39.726  51.203 -53.768  1.00  0.00     0.073 C 
HETATM   21  N   UNL     1     -39.969  51.886 -51.431  1.00  0.00    -0.170 NA
HETATM   22  N   UNL     1     -40.323  53.007 -50.768  1.00  0.00    -0.225 N 
HETATM   23  C   UNL     1     -40.659  54.048 -51.639  1.00  0.00     0.168 A 
HETATM   24  C   UNL     1     -40.371  53.197 -49.391  1.00  0.00     0.122 A 
HETATM   25  N   UNL     1     -41.055  55.283 -51.181  1.00  0.00    -0.240 NA
HETATM   26  C   UNL     1     -41.085  55.420 -49.887  1.00  0.00     0.120 A 
HETATM   27  C   UNL     1     -40.741  54.379 -48.881  1.00  0.00     0.038 A 
ENDBRANCH   1  18
TORSDOF 6
ENDMDL
MODEL 2
REMARK VINA RESULT:      -7.1      0.991      2.761
REMARK  6 active torsions:
REMARK  status: ('A' for Active; 'I' for Inactive)
REMARK    1  A    between atoms: C_6  and  C_7 
REMARK       I    between atoms: C_7  and  N_8 
REMARK    2  A    between atoms: N_8  and  C_9 
REMARK    3  A    between atoms: C_9  and  C_10 
REMARK    4  A    between atoms: C_10  and  O_11 
REMARK    5  A    between atoms: C_10  and  C_12 
REMARK    6  A    between atoms: C_15  and  O_16 
ROOT
HETATM    1  C   UNL     1     -40.631  54.224 -54.236  1.00  0.00     0.258 C 
HETATM    2  N   UNL     1     -41.935  54.651 -54.345  1.00  0.00    -0.350 N 
HETATM    3  O   UNL     1     -39.746  54.566 -55.012  1.00  0.00    -0.267 OA
HETATM    4  H   UNL     1     -42.556  54.381 -53.583  1.00  0.00     0.163 HD
ENDROOT
BRANCH   2   5
HETATM    5  C   UNL     1     -42.367  55.663 -55.313  1.00  0.00     0.114 C 
HETATM    6  C   UNL     1     -43.113  54.997 -56.476  1.00  0.00     0.035 C 
BRANCH   5   7
HETATM    7  C   UNL     1     -43.227  56.745 -54.596  1.00  0.00     0.173 C 
BRANCH   7   8
HETATM    8  O   UNL     1     -43.862  57.612 -55.545  1.00  0.00    -0.389 OA
HETATM    9  H   UNL     1     -44.821  57.483 -55.445  1.00  0.00     0.210 HD
ENDBRANCH   7   8
BRANCH   7  10
HETATM   10  C   UNL     1     -42.440  57.549 -53.581  1.00  0.00    -0.028 A 
HETATM   11  C   UNL     1     -42.970  57.748 -52.298  1.00  0.00     0.012 A 
HETATM   12  C   UNL     1     -42.252  58.462 -51.335  1.00  0.00     0.037 A 
HETATM   13  C   UNL     1     -40.990  58.981 -51.628  1.00  0.00     0.068 A 
HETATM   14  C   UNL     1     -40.458  58.796 -52.902  1.00  0.00     0.037 A 
HETATM   15  C   UNL     1     -41.179  58.087 -53.871  1.00  0.00     0.012 A 
BRANCH  13  16
HETATM   16  O   UNL     1     -40.392  59.646 -50.593  1.00  0.00    -0.356 OA
HETATM   17  C   UNL     1     -38.974  59.578 -50.525  1.00  0.00     0.210 C 
ENDBRANCH  13  16
ENDBRANCH   7  10
ENDBRANCH   5   7
ENDBRANCH   2   5
BRANCH   1  18
HETATM   18  C   UNL     1     -40.376  53.343 -53.108  1.00  0.00     0.105 A 
HETATM   19  C   UNL     1     -40.418  53.660 -51.724  1.00  0.00     0.071 A 
HETATM   20  C   UNL     1     -40.716  54.978 -51.102  1.00  0.00     0.073 C 
HETATM   21  N   UNL     1     -40.148  52.603 -50.949  1.00  0.00    -0.170 NA
HETATM   22  N   UNL     1     -39.938  51.586 -51.812  1.00  0.00    -0.225 N 
HETATM   23  C   UNL     1     -40.055  51.996 -53.144  1.00  0.00     0.168 A 
HETATM   24  C   UNL     1     -39.643  50.263 -51.505  1.00  0.00     0.122 A 
HETATM   25  N   UNL     1     -39.876  51.125 -54.193  1.00  0.00    -0.240 NA
HETATM   26  C   UNL     1     -39.604  49.896 -53.864  1.00  0.00     0.120 A 
HETATM   27  C   UNL     1     -39.466  49.362 -52.481  1.00  0.00     0.038 A 
ENDBRANCH   1  18
TORSDOF 6
ENDMDL
MODEL 3
REMARK VINA RESULT:      -7.1      2.821      6.506
REMARK  6 active torsions:
REMARK  status: ('A' for Active; 'I' for Inactive)
REMARK    1  A    between atoms: C_6  and  C_7 
REMARK       I    between atoms: C_7  and  N_8 
REMARK    2  A    between atoms: N_8  and  C_9 
REMARK    3  A    between atoms: C_9  and  C_10 
REMARK    4  A    between atoms: C_10  and  O_11 
REMARK    5  A    between atoms: C_10  and  C_12 
REMARK    6  A    between atoms: C_15  and  O_16 
ROOT
HETATM    1  C   UNL     1     -42.642  56.521 -52.360  1.00  0.00     0.258 C 
HETATM    2  N   UNL     1     -42.707  56.149 -53.684  1.00  0.00    -0.350 N 
HETATM    3  O   UNL     1     -42.499  55.719 -51.444  1.00  0.00    -0.267 OA
HETATM    4  H   UNL     1     -42.723  56.913 -54.359  1.00  0.00     0.163 HD
ENDROOT
BRANCH   2   5
HETATM    5  C   UNL     1     -42.475  54.776 -54.141  1.00  0.00     0.114 C 
HETATM    6  C   UNL     1     -43.288  54.498 -55.411  1.00  0.00     0.035 C 
BRANCH   5   7
HETATM    7  C   UNL     1     -40.949  54.540 -54.348  1.00  0.00     0.173 C 
BRANCH   7   8
HETATM    8  O   UNL     1     -40.610  54.547 -55.740  1.00  0.00    -0.389 OA
HETATM    9  H   UNL     1     -40.149  55.387 -55.913  1.00  0.00     0.210 HD
ENDBRANCH   7   8
BRANCH   7  10
HETATM   10  C   UNL     1     -40.452  53.273 -53.683  1.00  0.00    -0.028 A 
HETATM   11  C   UNL     1     -40.259  53.252 -52.294  1.00  0.00     0.012 A 
HETATM   12  C   UNL     1     -39.828  52.088 -51.653  1.00  0.00     0.037 A 
HETATM   13  C   UNL     1     -39.589  50.921 -52.380  1.00  0.00     0.068 A 
HETATM   14  C   UNL     1     -39.769  50.934 -53.762  1.00  0.00     0.037 A 
HETATM   15  C   UNL     1     -40.195  52.101 -54.407  1.00  0.00     0.012 A 
BRANCH  13  16
HETATM   16  O   UNL     1     -39.183  49.853 -51.629  1.00  0.00    -0.356 OA
HETATM   17  C   UNL     1     -39.896  49.612 -50.423  1.00  0.00     0.210 C 
ENDBRANCH  13  16
ENDBRANCH   7  10
ENDBRANCH   5   7
ENDBRANCH   2   5
BRANCH   1  18
HETATM   18  C   UNL     1     -42.735  57.953 -52.130  1.00  0.00     0.105 A 
HETATM   19  C   UNL     1     -41.758  58.948 -52.400  1.00  0.00     0.071 A 
HETATM   20  C   UNL     1     -40.397  58.755 -52.968  1.00  0.00     0.073 C 
HETATM   21  N   UNL     1     -42.179  60.178 -52.083  1.00  0.00    -0.170 NA
HETATM   22  N   UNL     1     -43.434  60.003 -51.613  1.00  0.00    -0.225 N 
HETATM   23  C   UNL     1     -43.810  58.657 -51.612  1.00  0.00     0.168 A 
HETATM   24  C   UNL     1     -44.316  60.982 -51.171  1.00  0.00     0.122 A 
HETATM   25  N   UNL     1     -45.047  58.246 -51.170  1.00  0.00    -0.240 NA
HETATM   26  C   UNL     1     -45.843  59.193 -50.766  1.00  0.00     0.120 A 
HETATM   27  C   UNL     1     -45.538  60.649 -50.735  1.00  0.00     0.038 A 
ENDBRANCH   1  18
TORSDOF 6
ENDMDL
MODEL 4
REMARK VINA RESULT:      -7.0      3.696      7.375
REMARK  6 active torsions:
REMARK  status: ('A' for Active; 'I' for Inactive)
REMARK    1  A    between atoms: C_6  and  C_7 
REMARK       I    between atoms: C_7  and  N_8 
REMARK    2  A    between atoms: N_8  and  C_9 
REMARK    3  A    between atoms: C_9  and  C_10 
REMARK    4  A    between atoms: C_10  and  O_11 
REMARK    5  A    between atoms: C_10  and  C_12 
REMARK    6  A    between atoms: C_15  and  O_16 
ROOT
HETATM    1  C   UNL     1     -43.195  56.707 -56.979  1.00  0.00     0.258 C 
HETATM    2  N   UNL     1     -42.357  55.680 -56.604  1.00  0.00    -0.350 N 
HETATM    3  O   UNL     1     -44.035  57.194 -56.230  1.00  0.00    -0.267 OA
HETATM    4  H   UNL     1     -41.634  55.430 -57.277  1.00  0.00     0.163 HD
ENDROOT
BRANCH   2   5
HETATM    5  C   UNL     1     -42.293  55.160 -55.236  1.00  0.00     0.114 C 
HETATM    6  C   UNL     1     -43.159  53.900 -55.108  1.00  0.00     0.035 C 
BRANCH   5   7
HETATM    7  C   UNL     1     -40.808  54.904 -54.839  1.00  0.00     0.173 C 
BRANCH   7   8
HETATM    8  O   UNL     1     -40.147  54.087 -55.814  1.00  0.00    -0.389 OA
HETATM    9  H   UNL     1     -39.709  54.692 -56.438  1.00  0.00     0.210 HD
ENDBRANCH   7   8
BRANCH   7  10
HETATM   10  C   UNL     1     -40.660  54.309 -53.454  1.00  0.00    -0.028 A 
HETATM   11  C   UNL     1     -41.039  55.063 -52.334  1.00  0.00     0.012 A 
HETATM   12  C   UNL     1     -40.938  54.527 -51.048  1.00  0.00     0.037 A 
HETATM   13  C   UNL     1     -40.470  53.227 -50.853  1.00  0.00     0.068 A 
HETATM   14  C   UNL     1     -40.083  52.471 -51.958  1.00  0.00     0.037 A 
HETATM   15  C   UNL     1     -40.177  53.009 -53.248  1.00  0.00     0.012 A 
BRANCH  13  16
HETATM   16  O   UNL     1     -40.434  52.822 -49.547  1.00  0.00    -0.356 OA
HETATM   17  C   UNL     1     -40.582  53.834 -48.560  1.00  0.00     0.210 C 
ENDBRANCH  13  16
ENDBRANCH   7  10
ENDBRANCH   5   7
ENDBRANCH   2   5
BRANCH   1  18
HETATM   18  C   UNL     1     -42.990  57.189 -58.335  1.00  0.00     0.105 A 
HETATM   19  C   UNL     1     -43.267  56.514 -59.554  1.00  0.00     0.071 A 
HETATM   20  C   UNL     1     -43.817  55.144 -59.730  1.00  0.00     0.073 C 
HETATM   21  N   UNL     1     -42.974  57.258 -60.627  1.00  0.00    -0.170 NA
HETATM   22  N   UNL     1     -42.516  58.424 -60.125  1.00  0.00    -0.225 N 
HETATM   23  C   UNL     1     -42.496  58.422 -58.727  1.00  0.00     0.168 A 
HETATM   24  C   UNL     1     -42.099  59.545 -60.834  1.00  0.00     0.122 A 
HETATM   25  N   UNL     1     -42.061  59.507 -58.002  1.00  0.00    -0.240 NA
HETATM   26  C   UNL     1     -41.681  60.536 -58.703  1.00  0.00     0.120 A 
HETATM   27  C   UNL     1     -41.671  60.638 -60.188  1.00  0.00     0.038 A 
ENDBRANCH   1  18
TORSDOF 6
ENDMDL
MODEL 5
REMARK VINA RESULT:      -6.9      1.892      4.807
REMARK  6 active torsions:
REMARK  status: ('A' for Active; 'I' for Inactive)
REMARK    1  A    between atoms: C_6  and  C_7 
REMARK       I    between atoms: C_7  and  N_8 
REMARK    2  A    between atoms: N_8  and  C_9 
REMARK    3  A    between atoms: C_9  and  C_10 
REMARK    4  A    between atoms: C_10  and  O_11 
REMARK    5  A    between atoms: C_10  and  C_12 
REMARK    6  A    between atoms: C_15  and  O_16 
ROOT
HETATM    1  C   UNL     1     -42.134  55.421 -52.059  1.00  0.00     0.258 C 
HETATM    2  N   UNL     1     -41.465  56.625 -52.081  1.00  0.00    -0.350 N 
HETATM    3  O   UNL     1     -43.311  55.303 -52.376  1.00  0.00    -0.267 OA
HETATM    4  H   UNL     1     -40.464  56.579 -51.895  1.00  0.00     0.163 HD
ENDROOT
BRANCH   2   5
HETATM    5  C   UNL     1     -42.053  57.857 -52.613  1.00  0.00     0.114 C 
HETATM    6  C   UNL     1     -42.014  58.963 -51.551  1.00  0.00     0.035 C 
BRANCH   5   7
HETATM    7  C   UNL     1     -41.321  58.266 -53.925  1.00  0.00     0.173 C 
BRANCH   7   8
HETATM    8  O   UNL     1     -41.021  59.667 -53.935  1.00  0.00    -0.389 OA
HETATM    9  H   UNL     1     -40.732  59.887 -54.837  1.00  0.00     0.210 HD
ENDBRANCH   7   8
BRANCH   7  10
HETATM   10  C   UNL     1     -42.082  57.873 -55.175  1.00  0.00    -0.028 A 
HETATM   11  C   UNL     1     -42.059  56.540 -55.607  1.00  0.00     0.012 A 
HETATM   12  C   UNL     1     -42.776  56.147 -56.740  1.00  0.00     0.037 A 
HETATM   13  C   UNL     1     -43.536  57.071 -57.458  1.00  0.00     0.068 A 
HETATM   14  C   UNL     1     -43.559  58.401 -57.042  1.00  0.00     0.037 A 
HETATM   15  C   UNL     1     -42.837  58.798 -55.910  1.00  0.00     0.012 A 
BRANCH  13  16
HETATM   16  O   UNL     1     -44.198  56.553 -58.537  1.00  0.00    -0.356 OA
HETATM   17  C   UNL     1     -43.467  55.657 -59.364  1.00  0.00     0.210 C 
ENDBRANCH  13  16
ENDBRANCH   7  10
ENDBRANCH   5   7
ENDBRANCH   2   5
BRANCH   1  18
HETATM   18  C   UNL     1     -41.322  54.287 -51.648  1.00  0.00     0.105 A 
HETATM   19  C   UNL     1     -40.893  53.947 -50.337  1.00  0.00     0.071 A 
HETATM   20  C   UNL     1     -41.161  54.685 -49.074  1.00  0.00     0.073 C 
HETATM   21  N   UNL     1     -40.170  52.822 -50.311  1.00  0.00    -0.170 NA
HETATM   22  N   UNL     1     -40.127  52.410 -51.597  1.00  0.00    -0.225 N 
HETATM   23  C   UNL     1     -40.807  53.283 -52.451  1.00  0.00     0.168 A 
HETATM   24  C   UNL     1     -39.511  51.269 -52.099  1.00  0.00     0.122 A 
HETATM   25  N   UNL     1     -40.888  53.061 -53.806  1.00  0.00    -0.240 NA
HETATM   26  C   UNL     1     -40.300  51.982 -54.236  1.00  0.00     0.120 A 
HETATM   27  C   UNL     1     -39.559  50.991 -53.409  1.00  0.00     0.038 A 
ENDBRANCH   1  18
TORSDOF 6
ENDMDL
MODEL 6
REMARK VINA RESULT:      -6.8      4.223      8.054
REMARK  6 active torsions:
REMARK  status: ('A' for Active; 'I' for Inactive)
REMARK    1  A    between atoms: C_6  and  C_7 
REMARK       I    between atoms: C_7  and  N_8 
REMARK    2  A    between atoms: N_8  and  C_9 
REMARK    3  A    between atoms: C_9  and  C_10 
REMARK    4  A    between atoms: C_10  and  O_11 
REMARK    5  A    between atoms: C_10  and  C_12 
REMARK    6  A    between atoms: C_15  and  O_16 
ROOT
HETATM    1  C   UNL     1     -43.427  56.784 -57.952  1.00  0.00     0.258 C 
HETATM    2  N   UNL     1     -43.804  56.163 -56.782  1.00  0.00    -0.350 N 
HETATM    3  O   UNL     1     -42.283  57.165 -58.171  1.00  0.00    -0.267 OA
HETATM    4  H   UNL     1     -44.756  55.801 -56.759  1.00  0.00     0.163 HD
ENDROOT
BRANCH   2   5
HETATM    5  C   UNL     1     -42.849  55.775 -55.740  1.00  0.00     0.114 C 
HETATM    6  C   UNL     1     -42.590  56.955 -54.795  1.00  0.00     0.035 C 
BRANCH   5   7
HETATM    7  C   UNL     1     -43.373  54.515 -54.989  1.00  0.00     0.173 C 
BRANCH   7   8
HETATM    8  O   UNL     1     -44.571  54.809 -54.261  1.00  0.00    -0.389 OA
HETATM    9  H   UNL     1     -44.482  54.386 -53.389  1.00  0.00     0.210 HD
ENDBRANCH   7   8
BRANCH   7  10
HETATM   10  C   UNL     1     -42.333  53.894 -54.080  1.00  0.00    -0.028 A 
HETATM   11  C   UNL     1     -41.240  53.219 -54.641  1.00  0.00     0.012 A 
HETATM   12  C   UNL     1     -40.253  52.661 -53.825  1.00  0.00     0.037 A 
HETATM   13  C   UNL     1     -40.330  52.773 -52.436  1.00  0.00     0.068 A 
HETATM   14  C   UNL     1     -41.416  53.435 -51.868  1.00  0.00     0.037 A 
HETATM   15  C   UNL     1     -42.411  53.989 -52.683  1.00  0.00     0.012 A 
BRANCH  13  16
HETATM   16  O   UNL     1     -39.293  52.195 -51.757  1.00  0.00    -0.356 OA
HETATM   17  C   UNL     1     -39.454  50.832 -51.386  1.00  0.00     0.210 C 
ENDBRANCH  13  16
ENDBRANCH   7  10
ENDBRANCH   5   7
ENDBRANCH   2   5
BRANCH   1  18
HETATM   18  C   UNL     1     -44.496  56.935 -58.927  1.00  0.00     0.105 A 
HETATM   19  C   UNL     1     -45.034  55.947 -59.795  1.00  0.00     0.071 A 
HETATM   20  C   UNL     1     -44.617  54.526 -59.923  1.00  0.00     0.073 C 
HETATM   21  N   UNL     1     -46.027  56.422 -60.555  1.00  0.00    -0.170 NA
HETATM   22  N   UNL     1     -46.156  57.715 -60.187  1.00  0.00    -0.225 N 
HETATM   23  C   UNL     1     -45.231  58.076 -59.203  1.00  0.00     0.168 A 
HETATM   24  C   UNL     1     -47.071  58.645 -60.669  1.00  0.00     0.122 A 
HETATM   25  N   UNL     1     -45.178  59.348 -58.683  1.00  0.00    -0.240 NA
HETATM   26  C   UNL     1     -46.051  60.187 -59.159  1.00  0.00     0.120 A 
HETATM   27  C   UNL     1     -47.077  59.899 -60.198  1.00  0.00     0.038 A 
ENDBRANCH   1  18
TORSDOF 6
ENDMDL
MODEL 7
REMARK VINA RESULT:      -6.8      2.357      4.904
REMARK  6 active torsions:
REMARK  status: ('A' for Active; 'I' for Inactive)
REMARK    1  A    between atoms: C_6  and  C_7 
REMARK       I    between atoms: C_7  and  N_8 
REMARK    2  A    between atoms: N_8  and  C_9 
REMARK    3  A    between atoms: C_9  and  C_10 
REMARK    4  A    between atoms: C_10  and  O_11 
REMARK    5  A    between atoms: C_10  and  C_12 
REMARK    6  A    between atoms: C_15  and  O_16 
ROOT
HETATM    1  C   UNL     1     -42.641  55.123 -53.414  1.00  0.00     0.258 C 
HETATM    2  N   UNL     1     -42.316  56.458 -53.509  1.00  0.00    -0.350 N 
HETATM    3  O   UNL     1     -43.596  54.623 -53.997  1.00  0.00    -0.267 OA
HETATM    4  H   UNL     1     -41.442  56.734 -53.062  1.00  0.00     0.163 HD
ENDROOT
BRANCH   2   5
HETATM    5  C   UNL     1     -42.995  57.384 -54.419  1.00  0.00     0.114 C 
HETATM    6  C   UNL     1     -43.499  58.609 -53.646  1.00  0.00     0.035 C 
BRANCH   5   7
HETATM    7  C   UNL     1     -42.041  57.769 -55.588  1.00  0.00     0.173 C 
BRANCH   7   8
HETATM    8  O   UNL     1     -41.835  59.186 -55.641  1.00  0.00    -0.389 OA
HETATM    9  H   UNL     1     -42.055  59.469 -56.545  1.00  0.00     0.210 HD
ENDBRANCH   7   8
BRANCH   7  10
HETATM   10  C   UNL     1     -42.509  57.246 -56.930  1.00  0.00    -0.028 A 
HETATM   11  C   UNL     1     -42.526  58.106 -58.038  1.00  0.00     0.012 A 
HETATM   12  C   UNL     1     -42.927  57.641 -59.293  1.00  0.00     0.037 A 
HETATM   13  C   UNL     1     -43.309  56.310 -59.471  1.00  0.00     0.068 A 
HETATM   14  C   UNL     1     -43.304  55.450 -58.375  1.00  0.00     0.037 A 
HETATM   15  C   UNL     1     -42.908  55.915 -57.115  1.00  0.00     0.012 A 
BRANCH  13  16
HETATM   16  O   UNL     1     -43.666  55.984 -60.750  1.00  0.00    -0.356 OA
HETATM   17  C   UNL     1     -44.987  55.495 -60.940  1.00  0.00     0.210 C 
ENDBRANCH  13  16
ENDBRANCH   7  10
ENDBRANCH   5   7
ENDBRANCH   2   5
BRANCH   1  18
HETATM   18  C   UNL     1     -41.743  54.341 -52.581  1.00  0.00     0.105 A 
HETATM   19  C   UNL     1     -40.935  53.235 -52.962  1.00  0.00     0.071 A 
HETATM   20  C   UNL     1     -40.832  52.606 -54.305  1.00  0.00     0.073 C 
HETATM   21  N   UNL     1     -40.211  52.757 -51.944  1.00  0.00    -0.170 NA
HETATM   22  N   UNL     1     -40.526  53.546 -50.894  1.00  0.00    -0.225 N 
HETATM   23  C   UNL     1     -41.470  54.520 -51.235  1.00  0.00     0.168 A 
HETATM   24  C   UNL     1     -40.022  53.475 -49.600  1.00  0.00     0.122 A 
HETATM   25  N   UNL     1     -41.940  55.431 -50.318  1.00  0.00    -0.240 NA
HETATM   26  C   UNL     1     -41.442  55.333 -49.120  1.00  0.00     0.120 A 
HETATM   27  C   UNL     1     -40.433  54.338 -48.663  1.00  0.00     0.038 A 
ENDBRANCH   1  18
TORSDOF 6
ENDMDL
MODEL 8
REMARK VINA RESULT:      -6.8      2.061      4.871
REMARK  6 active torsions:
REMARK  status: ('A' for Active; 'I' for Inactive)
REMARK    1  A    between atoms: C_6  and  C_7 
REMARK       I    between atoms: C_7  and  N_8 
REMARK    2  A    between atoms: N_8  and  C_9 
REMARK    3  A    between atoms: C_9  and  C_10 
REMARK    4  A    between atoms: C_10  and  O_11 
REMARK    5  A    between atoms: C_10  and  C_12 
REMARK    6  A    between atoms: C_15  and  O_16 
ROOT
HETATM    1  C   UNL     1     -41.671  55.726 -51.375  1.00  0.00     0.258 C 
HETATM    2  N   UNL     1     -41.507  56.350 -52.592  1.00  0.00    -0.350 N 
HETATM    3  O   UNL     1     -42.339  56.200 -50.464  1.00  0.00    -0.267 OA
HETATM    4  H   UNL     1     -41.016  55.810 -53.304  1.00  0.00     0.163 HD
ENDROOT
BRANCH   2   5
HETATM    5  C   UNL     1     -42.223  57.573 -52.966  1.00  0.00     0.114 C 
HETATM    6  C   UNL     1     -41.343  58.442 -53.874  1.00  0.00     0.035 C 
BRANCH   5   7
HETATM    7  C   UNL     1     -43.582  57.205 -53.631  1.00  0.00     0.173 C 
BRANCH   7   8
HETATM    8  O   UNL     1     -44.284  56.222 -52.860  1.00  0.00    -0.389 OA
HETATM    9  H   UNL     1     -44.512  55.497 -53.468  1.00  0.00     0.210 HD
ENDBRANCH   7   8
BRANCH   7  10
HETATM   10  C   UNL     1     -43.434  56.751 -55.069  1.00  0.00    -0.028 A 
HETATM   11  C   UNL     1     -43.721  57.648 -56.109  1.00  0.00     0.012 A 
HETATM   12  C   UNL     1     -43.565  57.263 -57.442  1.00  0.00     0.037 A 
HETATM   13  C   UNL     1     -43.113  55.983 -57.766  1.00  0.00     0.068 A 
HETATM   14  C   UNL     1     -42.833  55.082 -56.741  1.00  0.00     0.037 A 
HETATM   15  C   UNL     1     -42.994  55.463 -55.403  1.00  0.00     0.012 A 
BRANCH  13  16
HETATM   16  O   UNL     1     -42.993  55.741 -59.107  1.00  0.00    -0.356 OA
HETATM   17  C   UNL     1     -42.372  56.755 -59.886  1.00  0.00     0.210 C 
ENDBRANCH  13  16
ENDBRANCH   7  10
ENDBRANCH   5   7
ENDBRANCH   2   5
BRANCH   1  18
HETATM   18  C   UNL     1     -41.004  54.440 -51.261  1.00  0.00     0.105 A 
HETATM   19  C   UNL     1     -40.597  53.766 -50.079  1.00  0.00     0.071 A 
HETATM   20  C   UNL     1     -40.744  54.230 -48.673  1.00  0.00     0.073 C 
HETATM   21  N   UNL     1     -40.023  52.585 -50.335  1.00  0.00    -0.170 NA
HETATM   22  N   UNL     1     -40.057  52.469 -51.680  1.00  0.00    -0.225 N 
HETATM   23  C   UNL     1     -40.636  53.586 -52.288  1.00  0.00     0.168 A 
HETATM   24  C   UNL     1     -39.601  51.404 -52.448  1.00  0.00     0.122 A 
HETATM   25  N   UNL     1     -40.770  53.684 -53.654  1.00  0.00    -0.240 NA
HETATM   26  C   UNL     1     -40.333  52.667 -54.337  1.00  0.00     0.120 A 
HETATM   27  C   UNL     1     -39.709  51.434 -53.783  1.00  0.00     0.038 A 
ENDBRANCH   1  18
TORSDOF 6
ENDMDL
MODEL 9
REMARK VINA RESULT:      -6.8      3.072      7.295
REMARK  6 active torsions:
REMARK  status: ('A' for Active; 'I' for Inactive)
REMARK    1  A    between atoms: C_6  and  C_7 
REMARK       I    between atoms: C_7  and  N_8 
REMARK    2  A    between atoms: N_8  and  C_9 
REMARK    3  A    between atoms: C_9  and  C_10 
REMARK    4  A    between atoms: C_10  and  O_11 
REMARK    5  A    between atoms: C_10  and  C_12 
REMARK    6  A    between atoms: C_15  and  O_16 
ROOT
HETATM    1  C   UNL     1     -43.304  57.210 -54.786  1.00  0.00     0.258 C 
HETATM    2  N   UNL     1     -42.321  56.945 -53.858  1.00  0.00    -0.350 N 
HETATM    3  O   UNL     1     -44.484  56.934 -54.609  1.00  0.00    -0.267 OA
HETATM    4  H   UNL     1     -41.395  57.313 -54.076  1.00  0.00     0.163 HD
ENDROOT
BRANCH   2   5
HETATM    5  C   UNL     1     -42.607  56.435 -52.515  1.00  0.00     0.114 C 
HETATM    6  C   UNL     1     -43.563  57.384 -51.781  1.00  0.00     0.035 C 
BRANCH   5   7
HETATM    7  C   UNL     1     -43.166  54.984 -52.611  1.00  0.00     0.173 C 
BRANCH   7   8
HETATM    8  O   UNL     1     -43.964  54.661 -51.465  1.00  0.00    -0.389 OA
HETATM    9  H   UNL     1     -43.500  53.949 -50.990  1.00  0.00     0.210 HD
ENDBRANCH   7   8
BRANCH   7  10
HETATM   10  C   UNL     1     -42.083  53.945 -52.818  1.00  0.00    -0.028 A 
HETATM   11  C   UNL     1     -41.913  53.368 -54.085  1.00  0.00     0.012 A 
HETATM   12  C   UNL     1     -40.904  52.429 -54.309  1.00  0.00     0.037 A 
HETATM   13  C   UNL     1     -40.039  52.054 -53.280  1.00  0.00     0.068 A 
HETATM   14  C   UNL     1     -40.204  52.615 -52.016  1.00  0.00     0.037 A 
HETATM   15  C   UNL     1     -41.219  53.552 -51.787  1.00  0.00     0.012 A 
BRANCH  13  16
HETATM   16  O   UNL     1     -39.089  51.136 -53.637  1.00  0.00    -0.356 OA
HETATM   17  C   UNL     1     -39.548  49.971 -54.310  1.00  0.00     0.210 C 
ENDBRANCH  13  16
ENDBRANCH   7  10
ENDBRANCH   5   7
ENDBRANCH   2   5
BRANCH   1  18
HETATM   18  C   UNL     1     -42.832  57.866 -55.994  1.00  0.00     0.105 A 
HETATM   19  C   UNL     1     -42.328  59.187 -56.133  1.00  0.00     0.071 A 
HETATM   20  C   UNL     1     -42.182  60.219 -55.072  1.00  0.00     0.073 C 
HETATM   21  N   UNL     1     -41.963  59.466 -57.389  1.00  0.00    -0.170 NA
HETATM   22  N   UNL     1     -42.213  58.333 -58.081  1.00  0.00    -0.225 N 
HETATM   23  C   UNL     1     -42.757  57.333 -57.270  1.00  0.00     0.168 A 
HETATM   24  C   UNL     1     -41.984  58.099 -59.432  1.00  0.00     0.122 A 
HETATM   25  N   UNL     1     -43.094  56.094 -57.767  1.00  0.00    -0.240 NA
HETATM   26  C   UNL     1     -42.862  55.915 -59.035  1.00  0.00     0.120 A 
HETATM   27  C   UNL     1     -42.282  56.912 -59.976  1.00  0.00     0.038 A 
ENDBRANCH   1  18
TORSDOF 6
ENDMDL
MODEL 10
REMARK VINA RESULT:      -6.7     14.874     16.744
REMARK  6 active torsions:
REMARK  status: ('A' for Active; 'I' for Inactive)
REMARK    1  A    between atoms: C_6  and  C_7 
REMARK       I    between atoms: C_7  and  N_8 
REMARK    2  A    between atoms: N_8  and  C_9 
REMARK    3  A    between atoms: C_9  and  C_10 
REMARK    4  A    between atoms: C_10  and  O_11 
REMARK    5  A    between atoms: C_10  and  C_12 
REMARK    6  A    between atoms: C_15  and  O_16 
ROOT
HETATM    1  C   UNL     1     -35.677  41.920 -53.074  1.00  0.00     0.258 C 
HETATM    2  N   UNL     1     -35.860  41.414 -54.342  1.00  0.00    -0.350 N 
HETATM    3  O   UNL     1     -35.397  43.092 -52.854  1.00  0.00    -0.267 OA
HETATM    4  H   UNL     1     -36.190  40.451 -54.392  1.00  0.00     0.163 HD
ENDROOT
BRANCH   2   5
HETATM    5  C   UNL     1     -35.873  42.254 -55.543  1.00  0.00     0.114 C 
HETATM    6  C   UNL     1     -34.791  41.786 -56.525  1.00  0.00     0.035 C 
BRANCH   5   7
HETATM    7  C   UNL     1     -37.296  42.246 -56.177  1.00  0.00     0.173 C 
BRANCH   7   8
HETATM    8  O   UNL     1     -38.255  41.668 -55.283  1.00  0.00    -0.389 OA
HETATM    9  H   UNL     1     -37.958  40.760 -55.098  1.00  0.00     0.210 HD
ENDBRANCH   7   8
BRANCH   7  10
HETATM   10  C   UNL     1     -37.339  41.557 -57.525  1.00  0.00    -0.028 A 
HETATM   11  C   UNL     1     -37.614  40.183 -57.590  1.00  0.00     0.012 A 
HETATM   12  C   UNL     1     -37.687  39.530 -58.823  1.00  0.00     0.037 A 
HETATM   13  C   UNL     1     -37.497  40.233 -60.013  1.00  0.00     0.068 A 
HETATM   14  C   UNL     1     -37.214  41.596 -59.960  1.00  0.00     0.037 A 
HETATM   15  C   UNL     1     -37.134  42.252 -58.725  1.00  0.00     0.012 A 
BRANCH  13  16
HETATM   16  O   UNL     1     -37.608  39.476 -61.148  1.00  0.00    -0.356 OA
HETATM   17  C   UNL     1     -38.646  38.505 -61.169  1.00  0.00     0.210 C 
ENDBRANCH  13  16
ENDBRANCH   7  10
ENDBRANCH   5   7
ENDBRANCH   2   5
BRANCH   1  18
HETATM   18  C   UNL     1     -35.865  40.952 -52.006  1.00  0.00     0.105 A 
HETATM   19  C   UNL     1     -37.071  40.319 -51.600  1.00  0.00     0.071 A 
HETATM   20  C   UNL     1     -38.432  40.512 -52.165  1.00  0.00     0.073 C 
HETATM   21  N   UNL     1     -36.883  39.464 -50.589  1.00  0.00    -0.170 NA
HETATM   22  N   UNL     1     -35.559  39.519 -50.329  1.00  0.00    -0.225 N 
HETATM   23  C   UNL     1     -34.899  40.427 -51.163  1.00  0.00     0.168 A 
HETATM   24  C   UNL     1     -34.853  38.796 -49.375  1.00  0.00     0.122 A 
HETATM   25  N   UNL     1     -33.544  40.649 -51.072  1.00  0.00    -0.240 NA
HETATM   26  C   UNL     1     -32.920  39.951 -50.168  1.00  0.00     0.120 A 
HETATM   27  C   UNL     1     -33.530  38.960 -49.240  1.00  0.00     0.038 A 
ENDBRANCH   1  18
TORSDOF 6
ENDMDL
