MODEL 1
REMARK VINA RESULT:      -8.8      0.000      0.000
REMARK  2 active torsions:
REMARK  status: ('A' for Active; 'I' for Inactive)
REMARK    1  A    between atoms: C_9  and  C_10 
REMARK       I    between atoms: C_10  and  N_11 
REMARK    2  A    between atoms: N_11  and  C_12 
ROOT
HETATM    1  C   UNL     1     -42.505  54.129 -52.654  1.00  0.00     0.267 C 
HETATM    2  N   UNL     1     -43.391  54.439 -53.645  1.00  0.00    -0.156 N 
HETATM    3  O   UNL     1     -42.973  53.533 -51.680  1.00  0.00    -0.270 OA
HETATM    4  H   UNL     1     -44.337  54.128 -53.442  1.00  0.00     0.187 HD
ENDROOT
BRANCH   1   5
HETATM    5  C   UNL     1     -40.985  54.432 -52.747  1.00  0.00     0.282 C 
HETATM    6  N   UNL     1     -40.185  54.237 -51.481  1.00  0.00    -0.058 N 
HETATM    7  C   UNL     1     -40.235  52.857 -50.948  1.00  0.00     0.272 C 
HETATM    8  H   UNL     1     -39.212  54.515 -51.637  1.00  0.00     0.278 HD
HETATM    9  H   UNL     1     -40.564  54.897 -50.775  1.00  0.00     0.278 HD
HETATM   10  C   UNL     1     -40.004  51.821 -52.006  1.00  0.00    -0.026 A 
HETATM   11  C   UNL     1     -40.069  52.145 -53.378  1.00  0.00    -0.048 A 
HETATM   12  C   UNL     1     -39.780  50.491 -51.619  1.00  0.00     0.009 A 
HETATM   13  C   UNL     1     -39.878  51.138 -54.333  1.00  0.00     0.008 A 
HETATM   14  C   UNL     1     -40.307  53.572 -53.833  1.00  0.00     0.082 C 
HETATM   15  C   UNL     1     -39.654  49.821 -53.933  1.00  0.00     0.001 A 
HETATM   16  C   UNL     1     -39.606  49.496 -52.581  1.00  0.00     0.001 A 
ENDBRANCH   1   5
BRANCH   2  17
HETATM   17  C   UNL     1     -43.153  55.120 -54.803  1.00  0.00     0.708 A 
HETATM   18  N   UNL     1     -42.811  56.383 -54.941  1.00  0.00    -0.062 NA
HETATM   19  C   UNL     1     -42.785  56.609 -56.304  1.00  0.00     0.103 A 
HETATM   20  C   UNL     1     -43.132  55.458 -56.998  1.00  0.00     0.078 A 
HETATM   21  C   UNL     1     -42.503  57.784 -57.014  1.00  0.00     0.034 A 
HETATM   22  N   UNL     1     -43.322  54.514 -56.023  1.00  0.00    -0.188 N 
HETATM   23  C   UNL     1     -43.233  55.401 -58.389  1.00  0.00     0.032 A 
HETATM   24  H   UNL     1     -43.583  53.552 -56.185  1.00  0.00     0.184 HD
HETATM   25  C   UNL     1     -42.961  56.585 -59.083  1.00  0.00     0.002 A 
HETATM   26  C   UNL     1     -42.599  57.755 -58.411  1.00  0.00     0.002 A 
ENDBRANCH   2  17
TORSDOF 2
ENDMDL
MODEL 2
REMARK VINA RESULT:      -8.7      2.097      3.718
REMARK  2 active torsions:
REMARK  status: ('A' for Active; 'I' for Inactive)
REMARK    1  A    between atoms: C_9  and  C_10 
REMARK       I    between atoms: C_10  and  N_11 
REMARK    2  A    between atoms: N_11  and  C_12 
ROOT
HETATM    1  C   UNL     1     -42.566  56.717 -54.845  1.00  0.00     0.267 C 
HETATM    2  N   UNL     1     -42.514  57.156 -56.136  1.00  0.00    -0.156 N 
HETATM    3  O   UNL     1     -41.766  57.243 -54.066  1.00  0.00    -0.270 OA
HETATM    4  H   UNL     1     -41.810  57.873 -56.284  1.00  0.00     0.187 HD
ENDROOT
BRANCH   1   5
HETATM    5  C   UNL     1     -43.599  55.675 -54.341  1.00  0.00     0.282 C 
HETATM    6  N   UNL     1     -43.755  54.427 -55.179  1.00  0.00    -0.058 N 
HETATM    7  C   UNL     1     -42.509  53.643 -55.324  1.00  0.00     0.272 C 
HETATM    8  H   UNL     1     -44.496  53.836 -54.790  1.00  0.00     0.278 HD
HETATM    9  H   UNL     1     -44.088  54.728 -56.115  1.00  0.00     0.278 HD
HETATM   10  C   UNL     1     -41.799  53.441 -54.019  1.00  0.00    -0.026 A 
HETATM   11  C   UNL     1     -42.131  54.201 -52.877  1.00  0.00    -0.048 A 
HETATM   12  C   UNL     1     -40.743  52.520 -53.954  1.00  0.00     0.009 A 
HETATM   13  C   UNL     1     -41.420  54.002 -51.687  1.00  0.00     0.008 A 
HETATM   14  C   UNL     1     -43.269  55.204 -52.910  1.00  0.00     0.082 C 
HETATM   15  C   UNL     1     -40.374  53.081 -51.637  1.00  0.00     0.001 A 
HETATM   16  C   UNL     1     -40.034  52.342 -52.766  1.00  0.00     0.001 A 
ENDBRANCH   1   5
BRANCH   2  17
HETATM   17  C   UNL     1     -43.252  56.724 -57.200  1.00  0.00     0.708 A 
HETATM   18  N   UNL     1     -42.941  55.789 -58.072  1.00  0.00    -0.062 NA
HETATM   19  C   UNL     1     -43.964  55.796 -59.000  1.00  0.00     0.103 A 
HETATM   20  C   UNL     1     -44.905  56.767 -58.684  1.00  0.00     0.078 A 
HETATM   21  C   UNL     1     -44.137  55.020 -60.154  1.00  0.00     0.034 A 
HETATM   22  N   UNL     1     -44.450  57.316 -57.513  1.00  0.00    -0.188 N 
HETATM   23  C   UNL     1     -46.028  57.033 -59.469  1.00  0.00     0.032 A 
HETATM   24  H   UNL     1     -44.905  58.058 -57.000  1.00  0.00     0.184 HD
HETATM   25  C   UNL     1     -46.179  56.259 -60.624  1.00  0.00     0.002 A 
HETATM   26  C   UNL     1     -45.254  55.268 -60.961  1.00  0.00     0.002 A 
ENDBRANCH   2  17
TORSDOF 2
ENDMDL
MODEL 3
REMARK VINA RESULT:      -8.5      3.064      4.080
REMARK  2 active torsions:
REMARK  status: ('A' for Active; 'I' for Inactive)
REMARK    1  A    between atoms: C_9  and  C_10 
REMARK       I    between atoms: C_10  and  N_11 
REMARK    2  A    between atoms: N_11  and  C_12 
ROOT
HETATM    1  C   UNL     1     -43.223  54.827 -54.983  1.00  0.00     0.267 C 
HETATM    2  N   UNL     1     -44.321  55.513 -54.551  1.00  0.00    -0.156 N 
HETATM    3  O   UNL     1     -43.436  53.700 -55.438  1.00  0.00    -0.270 OA
HETATM    4  H   UNL     1     -45.185  54.991 -54.667  1.00  0.00     0.187 HD
ENDROOT
BRANCH   1   5
HETATM    5  C   UNL     1     -41.791  55.426 -54.979  1.00  0.00     0.282 C 
HETATM    6  N   UNL     1     -41.347  56.094 -53.699  1.00  0.00    -0.058 N 
HETATM    7  C   UNL     1     -41.356  55.198 -52.521  1.00  0.00     0.272 C 
HETATM    8  H   UNL     1     -40.415  56.500 -53.822  1.00  0.00     0.278 HD
HETATM    9  H   UNL     1     -41.990  56.893 -53.533  1.00  0.00     0.278 HD
HETATM   10  C   UNL     1     -40.707  53.875 -52.799  1.00  0.00    -0.026 A 
HETATM   11  C   UNL     1     -40.438  53.451 -54.117  1.00  0.00    -0.048 A 
HETATM   12  C   UNL     1     -40.421  53.018 -51.725  1.00  0.00     0.009 A 
HETATM   13  C   UNL     1     -39.861  52.193 -54.332  1.00  0.00     0.008 A 
HETATM   14  C   UNL     1     -40.733  54.351 -55.303  1.00  0.00     0.082 C 
HETATM   15  C   UNL     1     -39.580  51.353 -53.255  1.00  0.00     0.001 A 
HETATM   16  C   UNL     1     -39.859  51.763 -51.954  1.00  0.00     0.001 A 
ENDBRANCH   1   5
BRANCH   2  17
HETATM   17  C   UNL     1     -44.367  56.749 -53.976  1.00  0.00     0.708 A 
HETATM   18  N   UNL     1     -44.050  57.905 -54.519  1.00  0.00    -0.062 NA
HETATM   19  C   UNL     1     -44.174  58.834 -53.504  1.00  0.00     0.103 A 
HETATM   20  C   UNL     1     -44.564  58.219 -52.322  1.00  0.00     0.078 A 
HETATM   21  C   UNL     1     -43.940  60.216 -53.517  1.00  0.00     0.034 A 
HETATM   22  N   UNL     1     -44.719  56.900 -52.657  1.00  0.00    -0.188 N 
HETATM   23  C   UNL     1     -44.727  58.905 -51.117  1.00  0.00     0.032 A 
HETATM   24  H   UNL     1     -45.003  56.165 -52.024  1.00  0.00     0.184 HD
HETATM   25  C   UNL     1     -44.477  60.281 -51.143  1.00  0.00     0.002 A 
HETATM   26  C   UNL     1     -44.095  60.928 -52.321  1.00  0.00     0.002 A 
ENDBRANCH   2  17
TORSDOF 2
ENDMDL
MODEL 4
REMARK VINA RESULT:      -8.3      2.054      3.139
REMARK  2 active torsions:
REMARK  status: ('A' for Active; 'I' for Inactive)
REMARK    1  A    between atoms: C_9  and  C_10 
REMARK       I    between atoms: C_10  and  N_11 
REMARK    2  A    between atoms: N_11  and  C_12 
ROOT
HETATM    1  C   UNL     1     -42.828  54.745 -53.912  1.00  0.00     0.267 C 
HETATM    2  N   UNL     1     -43.601  55.103 -54.979  1.00  0.00    -0.156 N 
HETATM    3  O   UNL     1     -43.415  54.166 -52.993  1.00  0.00    -0.270 OA
HETATM    4  H   UNL     1     -44.575  54.838 -54.870  1.00  0.00     0.187 HD
ENDROOT
BRANCH   1   5
HETATM    5  C   UNL     1     -41.294  54.974 -53.857  1.00  0.00     0.282 C 
HETATM    6  N   UNL     1     -40.837  56.339 -53.397  1.00  0.00    -0.058 N 
HETATM    7  C   UNL     1     -41.294  56.696 -52.036  1.00  0.00     0.272 C 
HETATM    8  H   UNL     1     -39.816  56.401 -53.450  1.00  0.00     0.278 HD
HETATM    9  H   UNL     1     -41.204  57.030 -54.080  1.00  0.00     0.278 HD
HETATM   10  C   UNL     1     -41.076  55.592 -51.045  1.00  0.00    -0.026 A 
HETATM   11  C   UNL     1     -40.782  54.277 -51.465  1.00  0.00    -0.048 A 
HETATM   12  C   UNL     1     -41.230  55.863 -49.678  1.00  0.00     0.009 A 
HETATM   13  C   UNL     1     -40.618  53.269 -50.507  1.00  0.00     0.008 A 
HETATM   14  C   UNL     1     -40.606  53.947 -52.935  1.00  0.00     0.082 C 
HETATM   15  C   UNL     1     -40.772  53.554 -49.150  1.00  0.00     0.001 A 
HETATM   16  C   UNL     1     -41.078  54.847 -48.735  1.00  0.00     0.001 A 
ENDBRANCH   1   5
BRANCH   2  17
HETATM   17  C   UNL     1     -43.221  55.779 -56.102  1.00  0.00     0.708 A 
HETATM   18  N   UNL     1     -42.721  56.993 -56.183  1.00  0.00    -0.062 NA
HETATM   19  C   UNL     1     -42.596  57.249 -57.535  1.00  0.00     0.103 A 
HETATM   20  C   UNL     1     -43.043  56.168 -58.282  1.00  0.00     0.078 A 
HETATM   21  C   UNL     1     -42.136  58.398 -58.193  1.00  0.00     0.034 A 
HETATM   22  N   UNL     1     -43.397  55.230 -57.348  1.00  0.00    -0.188 N 
HETATM   23  C   UNL     1     -43.076  56.159 -59.677  1.00  0.00     0.032 A 
HETATM   24  H   UNL     1     -43.765  54.311 -57.552  1.00  0.00     0.184 HD
HETATM   25  C   UNL     1     -42.626  57.318 -60.319  1.00  0.00     0.002 A 
HETATM   26  C   UNL     1     -42.160  58.417 -59.593  1.00  0.00     0.002 A 
ENDBRANCH   2  17
TORSDOF 2
ENDMDL
MODEL 5
REMARK VINA RESULT:      -8.2      1.584      2.653
REMARK  2 active torsions:
REMARK  status: ('A' for Active; 'I' for Inactive)
REMARK    1  A    between atoms: C_9  and  C_10 
REMARK       I    between atoms: C_10  and  N_11 
REMARK    2  A    between atoms: N_11  and  C_12 
ROOT
HETATM    1  C   UNL     1     -42.768  55.041 -54.993  1.00  0.00     0.267 C 
HETATM    2  N   UNL     1     -43.581  55.409 -56.026  1.00  0.00    -0.156 N 
HETATM    3  O   UNL     1     -43.275  54.298 -54.147  1.00  0.00    -0.270 OA
HETATM    4  H   UNL     1     -44.514  55.012 -55.957  1.00  0.00     0.187 HD
ENDROOT
BRANCH   1   5
HETATM    5  C   UNL     1     -41.276  55.456 -54.896  1.00  0.00     0.282 C 
HETATM    6  N   UNL     1     -40.839  56.084 -53.593  1.00  0.00    -0.058 N 
HETATM    7  C   UNL     1     -41.039  55.215 -52.412  1.00  0.00     0.272 C 
HETATM    8  H   UNL     1     -39.857  56.368 -53.654  1.00  0.00     0.278 HD
HETATM    9  H   UNL     1     -41.386  56.959 -53.477  1.00  0.00     0.278 HD
HETATM   10  C   UNL     1     -40.545  53.817 -52.635  1.00  0.00    -0.026 A 
HETATM   11  C   UNL     1     -40.243  53.342 -53.929  1.00  0.00    -0.048 A 
HETATM   12  C   UNL     1     -40.441  52.948 -51.538  1.00  0.00     0.009 A 
HETATM   13  C   UNL     1     -39.816  52.019 -54.095  1.00  0.00     0.008 A 
HETATM   14  C   UNL     1     -40.342  54.253 -55.138  1.00  0.00     0.082 C 
HETATM   15  C   UNL     1     -39.715  51.167 -52.994  1.00  0.00     0.001 A 
HETATM   16  C   UNL     1     -40.027  51.629 -51.719  1.00  0.00     0.001 A 
ENDBRANCH   1   5
BRANCH   2  17
HETATM   17  C   UNL     1     -43.292  56.244 -57.066  1.00  0.00     0.708 A 
HETATM   18  N   UNL     1     -42.860  55.919 -58.266  1.00  0.00    -0.062 NA
HETATM   19  C   UNL     1     -42.629  57.119 -58.910  1.00  0.00     0.103 A 
HETATM   20  C   UNL     1     -42.918  58.188 -58.073  1.00  0.00     0.078 A 
HETATM   21  C   UNL     1     -42.144  57.366 -60.202  1.00  0.00     0.034 A 
HETATM   22  N   UNL     1     -43.376  57.606 -56.921  1.00  0.00    -0.188 N 
HETATM   23  C   UNL     1     -42.738  59.522 -58.442  1.00  0.00     0.032 A 
HETATM   24  H   UNL     1     -43.680  58.104 -56.096  1.00  0.00     0.184 HD
HETATM   25  C   UNL     1     -42.240  59.752 -59.728  1.00  0.00     0.002 A 
HETATM   26  C   UNL     1     -41.951  58.696 -60.596  1.00  0.00     0.002 A 
ENDBRANCH   2  17
TORSDOF 2
ENDMDL
MODEL 6
REMARK VINA RESULT:      -8.2      1.854      7.301
REMARK  2 active torsions:
REMARK  status: ('A' for Active; 'I' for Inactive)
REMARK    1  A    between atoms: C_9  and  C_10 
REMARK       I    between atoms: C_10  and  N_11 
REMARK    2  A    between atoms: N_11  and  C_12 
ROOT
HETATM    1  C   UNL     1     -43.985  56.517 -54.649  1.00  0.00     0.267 C 
HETATM    2  N   UNL     1     -43.928  55.396 -53.873  1.00  0.00    -0.156 N 
HETATM    3  O   UNL     1     -45.078  57.091 -54.686  1.00  0.00    -0.270 OA
HETATM    4  H   UNL     1     -44.811  55.182 -53.419  1.00  0.00     0.187 HD
ENDROOT
BRANCH   1   5
HETATM    5  C   UNL     1     -42.755  57.098 -55.396  1.00  0.00     0.282 C 
HETATM    6  N   UNL     1     -42.087  56.186 -56.399  1.00  0.00    -0.058 N 
HETATM    7  C   UNL     1     -42.981  55.739 -57.490  1.00  0.00     0.272 C 
HETATM    8  H   UNL     1     -41.260  56.645 -56.791  1.00  0.00     0.278 HD
HETATM    9  H   UNL     1     -41.738  55.361 -55.875  1.00  0.00     0.278 HD
HETATM   10  C   UNL     1     -43.768  56.866 -58.089  1.00  0.00    -0.026 A 
HETATM   11  C   UNL     1     -43.865  58.118 -57.445  1.00  0.00    -0.048 A 
HETATM   12  C   UNL     1     -44.470  56.647 -59.284  1.00  0.00     0.009 A 
HETATM   13  C   UNL     1     -44.638  59.132 -58.025  1.00  0.00     0.008 A 
HETATM   14  C   UNL     1     -43.119  58.391 -56.153  1.00  0.00     0.082 C 
HETATM   15  C   UNL     1     -45.328  58.900 -59.214  1.00  0.00     0.001 A 
HETATM   16  C   UNL     1     -45.246  57.661 -59.843  1.00  0.00     0.001 A 
ENDBRANCH   1   5
BRANCH   2  17
HETATM   17  C   UNL     1     -42.867  54.558 -53.684  1.00  0.00     0.708 A 
HETATM   18  N   UNL     1     -42.340  53.716 -54.546  1.00  0.00    -0.062 NA
HETATM   19  C   UNL     1     -41.361  53.039 -53.845  1.00  0.00     0.103 A 
HETATM   20  C   UNL     1     -41.307  53.477 -52.529  1.00  0.00     0.078 A 
HETATM   21  C   UNL     1     -40.500  52.016 -54.266  1.00  0.00     0.034 A 
HETATM   22  N   UNL     1     -42.247  54.471 -52.462  1.00  0.00    -0.188 N 
HETATM   23  C   UNL     1     -40.441  52.940 -51.575  1.00  0.00     0.032 A 
HETATM   24  H   UNL     1     -42.468  55.012 -51.637  1.00  0.00     0.184 HD
HETATM   25  C   UNL     1     -39.598  51.911 -52.007  1.00  0.00     0.002 A 
HETATM   26  C   UNL     1     -39.622  51.458 -53.329  1.00  0.00     0.002 A 
ENDBRANCH   2  17
TORSDOF 2
ENDMDL
MODEL 7
REMARK VINA RESULT:      -8.0     13.402     14.938
REMARK  2 active torsions:
REMARK  status: ('A' for Active; 'I' for Inactive)
REMARK    1  A    between atoms: C_9  and  C_10 
REMARK       I    between atoms: C_10  and  N_11 
REMARK    2  A    between atoms: N_11  and  C_12 
ROOT
HETATM    1  C   UNL     1     -36.452  41.831 -54.011  1.00  0.00     0.267 C 
HETATM    2  N   UNL     1     -36.849  42.362 -55.203  1.00  0.00    -0.156 N 
HETATM    3  O   UNL     1     -36.138  42.645 -53.136  1.00  0.00    -0.270 OA
HETATM    4  H   UNL     1     -36.833  43.378 -55.210  1.00  0.00     0.187 HD
ENDROOT
BRANCH   1   5
HETATM    5  C   UNL     1     -36.451  40.307 -53.717  1.00  0.00     0.282 C 
HETATM    6  N   UNL     1     -35.503  39.467 -54.541  1.00  0.00    -0.058 N 
HETATM    7  C   UNL     1     -34.081  39.853 -54.398  1.00  0.00     0.272 C 
HETATM    8  H   UNL     1     -35.620  38.477 -54.306  1.00  0.00     0.278 HD
HETATM    9  H   UNL     1     -35.792  39.565 -55.533  1.00  0.00     0.278 HD
HETATM   10  C   UNL     1     -33.676  40.041 -52.966  1.00  0.00    -0.026 A 
HETATM   11  C   UNL     1     -34.637  40.154 -51.940  1.00  0.00    -0.048 A 
HETATM   12  C   UNL     1     -32.313  40.167 -52.656  1.00  0.00     0.009 A 
HETATM   13  C   UNL     1     -34.214  40.361 -50.621  1.00  0.00     0.008 A 
HETATM   14  C   UNL     1     -36.118  40.021 -52.238  1.00  0.00     0.082 C 
HETATM   15  C   UNL     1     -32.856  40.483 -50.327  1.00  0.00     0.001 A 
HETATM   16  C   UNL     1     -31.907  40.387 -51.340  1.00  0.00     0.001 A 
ENDBRANCH   1   5
BRANCH   2  17
HETATM   17  C   UNL     1     -37.211  41.699 -56.340  1.00  0.00     0.708 A 
HETATM   18  N   UNL     1     -37.785  40.520 -56.438  1.00  0.00    -0.062 NA
HETATM   19  C   UNL     1     -37.852  40.256 -57.793  1.00  0.00     0.103 A 
HETATM   20  C   UNL     1     -37.293  41.296 -58.523  1.00  0.00     0.078 A 
HETATM   21  C   UNL     1     -38.351  39.132 -58.466  1.00  0.00     0.034 A 
HETATM   22  N   UNL     1     -36.929  42.220 -57.579  1.00  0.00    -0.188 N 
HETATM   23  C   UNL     1     -37.182  41.285 -59.914  1.00  0.00     0.032 A 
HETATM   24  H   UNL     1     -36.490  43.109 -57.770  1.00  0.00     0.184 HD
HETATM   25  C   UNL     1     -37.672  40.151 -60.570  1.00  0.00     0.002 A 
HETATM   26  C   UNL     1     -38.250  39.094 -59.862  1.00  0.00     0.002 A 
ENDBRANCH   2  17
TORSDOF 2
ENDMDL
MODEL 8
REMARK VINA RESULT:      -7.8      3.237      6.795
REMARK  2 active torsions:
REMARK  status: ('A' for Active; 'I' for Inactive)
REMARK    1  A    between atoms: C_9  and  C_10 
REMARK       I    between atoms: C_10  and  N_11 
REMARK    2  A    between atoms: N_11  and  C_12 
ROOT
HETATM    1  C   UNL     1     -43.646  56.611 -53.914  1.00  0.00     0.267 C 
HETATM    2  N   UNL     1     -43.634  55.354 -53.383  1.00  0.00    -0.156 N 
HETATM    3  O   UNL     1     -44.727  57.206 -53.866  1.00  0.00    -0.270 OA
HETATM    4  H   UNL     1     -44.536  55.072 -53.010  1.00  0.00     0.187 HD
ENDROOT
BRANCH   1   5
HETATM    5  C   UNL     1     -42.381  57.304 -54.488  1.00  0.00     0.282 C 
HETATM    6  N   UNL     1     -42.549  58.735 -54.942  1.00  0.00    -0.058 N 
HETATM    7  C   UNL     1     -42.998  59.654 -53.873  1.00  0.00     0.272 C 
HETATM    8  H   UNL     1     -41.675  59.077 -55.351  1.00  0.00     0.278 HD
HETATM    9  H   UNL     1     -43.245  58.731 -55.713  1.00  0.00     0.278 HD
HETATM   10  C   UNL     1     -42.222  59.484 -52.602  1.00  0.00    -0.026 A 
HETATM   11  C   UNL     1     -41.405  58.354 -52.387  1.00  0.00    -0.048 A 
HETATM   12  C   UNL     1     -42.362  60.440 -51.585  1.00  0.00     0.009 A 
HETATM   13  C   UNL     1     -40.722  58.219 -51.171  1.00  0.00     0.008 A 
HETATM   14  C   UNL     1     -41.227  57.301 -53.465  1.00  0.00     0.082 C 
HETATM   15  C   UNL     1     -40.870  59.179 -50.170  1.00  0.00     0.001 A 
HETATM   16  C   UNL     1     -41.688  60.286 -50.374  1.00  0.00     0.001 A 
ENDBRANCH   1   5
BRANCH   2  17
HETATM   17  C   UNL     1     -42.595  54.470 -53.338  1.00  0.00     0.708 A 
HETATM   18  N   UNL     1     -42.148  53.700 -54.306  1.00  0.00    -0.062 NA
HETATM   19  C   UNL     1     -41.155  52.929 -53.733  1.00  0.00     0.103 A 
HETATM   20  C   UNL     1     -41.011  53.237 -52.387  1.00  0.00     0.078 A 
HETATM   21  C   UNL     1     -40.356  51.926 -54.299  1.00  0.00     0.034 A 
HETATM   22  N   UNL     1     -41.910  54.248 -52.169  1.00  0.00    -0.188 N 
HETATM   23  C   UNL     1     -40.112  52.585 -51.542  1.00  0.00     0.032 A 
HETATM   24  H   UNL     1     -42.065  54.713 -51.286  1.00  0.00     0.184 HD
HETATM   25  C   UNL     1     -39.332  51.578 -52.118  1.00  0.00     0.002 A 
HETATM   26  C   UNL     1     -39.447  51.255 -53.473  1.00  0.00     0.002 A 
ENDBRANCH   2  17
TORSDOF 2
ENDMDL
MODEL 9
REMARK VINA RESULT:      -7.7      3.424      7.448
REMARK  2 active torsions:
REMARK  status: ('A' for Active; 'I' for Inactive)
REMARK    1  A    between atoms: C_9  and  C_10 
REMARK       I    between atoms: C_10  and  N_11 
REMARK    2  A    between atoms: N_11  and  C_12 
ROOT
HETATM    1  C   UNL     1     -44.030  56.685 -51.130  1.00  0.00     0.267 C 
HETATM    2  N   UNL     1     -43.965  55.330 -51.281  1.00  0.00    -0.156 N 
HETATM    3  O   UNL     1     -45.078  57.122 -50.645  1.00  0.00    -0.270 OA
HETATM    4  H   UNL     1     -44.805  54.854 -50.966  1.00  0.00     0.187 HD
ENDROOT
BRANCH   1   5
HETATM    5  C   UNL     1     -42.853  57.637 -51.471  1.00  0.00     0.282 C 
HETATM    6  N   UNL     1     -42.296  57.538 -52.872  1.00  0.00    -0.058 N 
HETATM    7  C   UNL     1     -43.289  57.815 -53.933  1.00  0.00     0.272 C 
HETATM    8  H   UNL     1     -41.493  58.166 -52.973  1.00  0.00     0.278 HD
HETATM    9  H   UNL     1     -41.925  56.575 -52.986  1.00  0.00     0.278 HD
HETATM   10  C   UNL     1     -44.094  59.051 -53.660  1.00  0.00    -0.026 A 
HETATM   11  C   UNL     1     -44.105  59.653 -52.385  1.00  0.00    -0.048 A 
HETATM   12  C   UNL     1     -44.900  59.577 -54.681  1.00  0.00     0.009 A 
HETATM   13  C   UNL     1     -44.897  60.788 -52.166  1.00  0.00     0.008 A 
HETATM   14  C   UNL     1     -43.245  59.113 -51.258  1.00  0.00     0.082 C 
HETATM   15  C   UNL     1     -45.691  61.302 -53.191  1.00  0.00     0.001 A 
HETATM   16  C   UNL     1     -45.694  60.699 -54.446  1.00  0.00     0.001 A 
ENDBRANCH   1   5
BRANCH   2  17
HETATM   17  C   UNL     1     -42.950  54.593 -51.819  1.00  0.00     0.708 A 
HETATM   18  N   UNL     1     -42.772  54.263 -53.080  1.00  0.00    -0.062 NA
HETATM   19  C   UNL     1     -41.664  53.439 -53.091  1.00  0.00     0.103 A 
HETATM   20  C   UNL     1     -41.172  53.261 -51.805  1.00  0.00     0.078 A 
HETATM   21  C   UNL     1     -41.041  52.784 -54.163  1.00  0.00     0.034 A 
HETATM   22  N   UNL     1     -41.983  54.037 -51.019  1.00  0.00    -0.188 N 
HETATM   23  C   UNL     1     -40.083  52.442 -51.506  1.00  0.00     0.032 A 
HETATM   24  H   UNL     1     -41.900  54.141 -50.017  1.00  0.00     0.184 HD
HETATM   25  C   UNL     1     -39.481  51.785 -52.584  1.00  0.00     0.002 A 
HETATM   26  C   UNL     1     -39.947  51.954 -53.890  1.00  0.00     0.002 A 
ENDBRANCH   2  17
TORSDOF 2
ENDMDL
MODEL 10
REMARK VINA RESULT:      -7.6      2.422      6.967
REMARK  2 active torsions:
REMARK  status: ('A' for Active; 'I' for Inactive)
REMARK    1  A    between atoms: C_9  and  C_10 
REMARK       I    between atoms: C_10  and  N_11 
REMARK    2  A    between atoms: N_11  and  C_12 
ROOT
HETATM    1  C   UNL     1     -44.094  56.938 -54.360  1.00  0.00     0.267 C 
HETATM    2  N   UNL     1     -44.254  56.285 -53.173  1.00  0.00    -0.156 N 
HETATM    3  O   UNL     1     -45.134  57.293 -54.924  1.00  0.00    -0.270 OA
HETATM    4  H   UNL     1     -45.229  56.179 -52.907  1.00  0.00     0.187 HD
ENDROOT
BRANCH   1   5
HETATM    5  C   UNL     1     -42.705  57.289 -54.958  1.00  0.00     0.282 C 
HETATM    6  N   UNL     1     -41.850  56.122 -55.394  1.00  0.00    -0.058 N 
HETATM    7  C   UNL     1     -42.475  55.276 -56.434  1.00  0.00     0.272 C 
HETATM    8  H   UNL     1     -40.939  56.459 -55.720  1.00  0.00     0.278 HD
HETATM    9  H   UNL     1     -41.659  55.551 -54.548  1.00  0.00     0.278 HD
HETATM   10  C   UNL     1     -43.063  56.079 -57.555  1.00  0.00    -0.026 A 
HETATM   11  C   UNL     1     -43.270  57.469 -57.432  1.00  0.00    -0.048 A 
HETATM   12  C   UNL     1     -43.471  55.420 -58.724  1.00  0.00     0.009 A 
HETATM   13  C   UNL     1     -43.852  58.176 -58.492  1.00  0.00     0.008 A 
HETATM   14  C   UNL     1     -42.840  58.216 -56.183  1.00  0.00     0.082 C 
HETATM   15  C   UNL     1     -44.251  57.507 -59.650  1.00  0.00     0.001 A 
HETATM   16  C   UNL     1     -44.062  56.133 -59.767  1.00  0.00     0.001 A 
ENDBRANCH   1   5
BRANCH   2  17
HETATM   17  C   UNL     1     -43.287  55.757 -52.367  1.00  0.00     0.708 A 
HETATM   18  N   UNL     1     -42.681  56.330 -51.351  1.00  0.00    -0.062 NA
HETATM   19  C   UNL     1     -41.726  55.423 -50.933  1.00  0.00     0.103 A 
HETATM   20  C   UNL     1     -41.753  54.284 -51.726  1.00  0.00     0.078 A 
HETATM   21  C   UNL     1     -40.783  55.523 -49.901  1.00  0.00     0.034 A 
HETATM   22  N   UNL     1     -42.781  54.503 -52.605  1.00  0.00    -0.188 N 
HETATM   23  C   UNL     1     -40.871  53.215 -51.564  1.00  0.00     0.032 A 
HETATM   24  H   UNL     1     -43.078  53.863 -53.328  1.00  0.00     0.184 HD
HETATM   25  C   UNL     1     -39.927  53.335 -50.539  1.00  0.00     0.002 A 
HETATM   26  C   UNL     1     -39.884  54.465 -49.719  1.00  0.00     0.002 A 
ENDBRANCH   2  17
TORSDOF 2
ENDMDL
