MODEL 1
REMARK VINA RESULT:      -8.7      0.000      0.000
REMARK  3 active torsions:
REMARK  status: ('A' for Active; 'I' for Inactive)
REMARK    1  A    between atoms: C_3  and  N_4 
REMARK       I    between atoms: N_4  and  C_5 
REMARK    2  A    between atoms: C_5  and  C_6 
REMARK    3  A    between atoms: C_7  and  C_8 
ROOT
HETATM    1  C   UNL     1     -41.444  55.449 -51.857  1.00  0.00     0.062 C 
HETATM    2  C   UNL     1     -41.212  56.563 -52.886  1.00  0.00     0.199 C 
HETATM    3  N   UNL     1     -40.754  57.779 -52.222  1.00  0.00    -0.092 N 
HETATM    4  C   UNL     1     -40.838  58.004 -50.878  1.00  0.00     0.735 A 
HETATM    5  N   UNL     1     -41.330  57.032 -50.083  1.00  0.00    -0.191 N 
HETATM    6  N   UNL     1     -40.159  58.815 -52.833  1.00  0.00     0.012 NA
HETATM    7  N   UNL     1     -39.938  59.691 -51.856  1.00  0.00     0.033 NA
HETATM    8  N   UNL     1     -40.356  59.198 -50.633  1.00  0.00     0.030 NA
HETATM    9  C   UNL     1     -41.562  55.734 -50.533  1.00  0.00     0.037 C 
HETATM   10  C   UNL     1     -41.962  54.743 -49.468  1.00  0.00     0.070 C 
HETATM   11  H   UNL     1     -41.354  57.194 -49.077  1.00  0.00     0.184 HD
ENDROOT
BRANCH   1  12
HETATM   12  C   UNL     1     -41.511  54.077 -52.444  1.00  0.00     0.256 C 
HETATM   13  N   UNL     1     -40.313  53.400 -52.403  1.00  0.00    -0.323 N 
HETATM   14  H   UNL     1     -39.494  53.966 -52.230  1.00  0.00     0.169 HD
HETATM   15  O   UNL     1     -42.521  53.728 -53.037  1.00  0.00    -0.267 OA
BRANCH  13  16
HETATM   16  C   UNL     1     -40.045  52.055 -52.751  1.00  0.00     0.041 A 
HETATM   17  C   UNL     1     -39.941  50.963 -51.869  1.00  0.00    -0.035 A 
HETATM   18  C   UNL     1     -40.036  51.048 -50.371  1.00  0.00     0.050 C 
HETATM   19  C   UNL     1     -39.689  49.681 -52.404  1.00  0.00     0.009 A 
HETATM   20  C   UNL     1     -39.483  49.485 -53.767  1.00  0.00     0.001 A 
HETATM   21  C   UNL     1     -39.525  50.570 -54.628  1.00  0.00     0.002 A 
HETATM   22  C   UNL     1     -39.800  51.842 -54.122  1.00  0.00     0.030 A 
ENDBRANCH  13  16
ENDBRANCH   1  12
BRANCH   2  23
HETATM   23  C   UNL     1     -42.442  56.885 -53.719  1.00  0.00    -0.011 A 
HETATM   24  C   UNL     1     -42.413  56.887 -55.114  1.00  0.00     0.125 A 
HETATM   25  N   UNL     1     -43.476  57.172 -55.900  1.00  0.00    -0.272 NA
HETATM   26  C   UNL     1     -44.632  57.471 -55.272  1.00  0.00     0.116 A 
HETATM   27  C   UNL     1     -44.775  57.492 -53.896  1.00  0.00     0.020 A 
HETATM   28  C   UNL     1     -43.665  57.194 -53.111  1.00  0.00     0.012 A 
ENDBRANCH   2  23
TORSDOF 3
ENDMDL
MODEL 2
REMARK VINA RESULT:      -8.5      1.805      4.108
REMARK  3 active torsions:
REMARK  status: ('A' for Active; 'I' for Inactive)
REMARK    1  A    between atoms: C_3  and  N_4 
REMARK       I    between atoms: N_4  and  C_5 
REMARK    2  A    between atoms: C_5  and  C_6 
REMARK    3  A    between atoms: C_7  and  C_8 
ROOT
HETATM    1  C   UNL     1     -43.160  56.275 -54.156  1.00  0.00     0.062 C 
HETATM    2  C   UNL     1     -43.431  57.418 -53.169  1.00  0.00     0.199 C 
HETATM    3  N   UNL     1     -44.165  58.493 -53.829  1.00  0.00    -0.092 N 
HETATM    4  C   UNL     1     -44.300  58.621 -55.182  1.00  0.00     0.735 A 
HETATM    5  N   UNL     1     -43.767  57.675 -55.983  1.00  0.00    -0.191 N 
HETATM    6  N   UNL     1     -44.834  59.470 -53.199  1.00  0.00     0.012 NA
HETATM    7  N   UNL     1     -45.324  60.221 -54.182  1.00  0.00     0.033 NA
HETATM    8  N   UNL     1     -44.999  59.703 -55.422  1.00  0.00     0.030 NA
HETATM    9  C   UNL     1     -43.268  56.468 -55.497  1.00  0.00     0.037 C 
HETATM   10  C   UNL     1     -42.857  55.469 -56.550  1.00  0.00     0.070 C 
HETATM   11  H   UNL     1     -43.904  57.758 -56.989  1.00  0.00     0.184 HD
ENDROOT
BRANCH   1  12
HETATM   12  C   UNL     1     -42.792  54.980 -53.507  1.00  0.00     0.256 C 
HETATM   13  N   UNL     1     -41.480  54.616 -53.706  1.00  0.00    -0.323 N 
HETATM   14  H   UNL     1     -40.997  55.102 -54.451  1.00  0.00     0.169 HD
HETATM   15  O   UNL     1     -43.669  54.288 -53.011  1.00  0.00    -0.267 OA
BRANCH  13  16
HETATM   16  C   UNL     1     -40.766  53.532 -53.143  1.00  0.00     0.041 A 
HETATM   17  C   UNL     1     -40.380  53.390 -51.797  1.00  0.00    -0.035 A 
HETATM   18  C   UNL     1     -40.605  54.413 -50.718  1.00  0.00     0.050 C 
HETATM   19  C   UNL     1     -39.689  52.221 -51.410  1.00  0.00     0.009 A 
HETATM   20  C   UNL     1     -39.333  51.243 -52.334  1.00  0.00     0.001 A 
HETATM   21  C   UNL     1     -39.661  51.412 -53.670  1.00  0.00     0.002 A 
HETATM   22  C   UNL     1     -40.367  52.548 -54.068  1.00  0.00     0.030 A 
ENDBRANCH  13  16
ENDBRANCH   1  12
BRANCH   2  23
HETATM   23  C   UNL     1     -42.170  57.990 -52.543  1.00  0.00    -0.011 A 
HETATM   24  C   UNL     1     -41.194  58.639 -53.301  1.00  0.00     0.125 A 
HETATM   25  N   UNL     1     -40.053  59.159 -52.795  1.00  0.00    -0.272 NA
HETATM   26  C   UNL     1     -39.867  59.032 -51.465  1.00  0.00     0.116 A 
HETATM   27  C   UNL     1     -40.770  58.414 -50.618  1.00  0.00     0.020 A 
HETATM   28  C   UNL     1     -41.936  57.887 -51.167  1.00  0.00     0.012 A 
ENDBRANCH   2  23
TORSDOF 3
ENDMDL
MODEL 3
REMARK VINA RESULT:      -8.2      0.964      1.883
REMARK  3 active torsions:
REMARK  status: ('A' for Active; 'I' for Inactive)
REMARK    1  A    between atoms: C_3  and  N_4 
REMARK       I    between atoms: N_4  and  C_5 
REMARK    2  A    between atoms: C_5  and  C_6 
REMARK    3  A    between atoms: C_7  and  C_8 
ROOT
HETATM    1  C   UNL     1     -41.962  55.613 -52.060  1.00  0.00     0.062 C 
HETATM    2  C   UNL     1     -41.317  56.571 -53.070  1.00  0.00     0.199 C 
HETATM    3  N   UNL     1     -41.108  57.882 -52.461  1.00  0.00    -0.092 N 
HETATM    4  C   UNL     1     -41.691  58.296 -51.298  1.00  0.00     0.735 A 
HETATM    5  N   UNL     1     -42.482  57.437 -50.622  1.00  0.00    -0.191 N 
HETATM    6  N   UNL     1     -40.291  58.832 -52.938  1.00  0.00     0.012 NA
HETATM    7  N   UNL     1     -40.431  59.845 -52.087  1.00  0.00     0.033 NA
HETATM    8  N   UNL     1     -41.300  59.524 -51.060  1.00  0.00     0.030 NA
HETATM    9  C   UNL     1     -42.567  56.083 -50.937  1.00  0.00     0.037 C 
HETATM   10  C   UNL     1     -43.377  55.245 -49.978  1.00  0.00     0.070 C 
HETATM   11  H   UNL     1     -42.883  57.741 -49.737  1.00  0.00     0.184 HD
ENDROOT
BRANCH   1  12
HETATM   12  C   UNL     1     -41.845  54.169 -52.426  1.00  0.00     0.256 C 
HETATM   13  N   UNL     1     -40.634  53.609 -52.085  1.00  0.00    -0.323 N 
HETATM   14  H   UNL     1     -39.892  54.262 -51.873  1.00  0.00     0.169 HD
HETATM   15  O   UNL     1     -42.714  53.653 -53.113  1.00  0.00    -0.267 OA
BRANCH  13  16
HETATM   16  C   UNL     1     -40.230  52.256 -52.169  1.00  0.00     0.041 A 
HETATM   17  C   UNL     1     -39.977  51.526 -53.346  1.00  0.00    -0.035 A 
HETATM   18  C   UNL     1     -40.159  52.048 -54.744  1.00  0.00     0.050 C 
HETATM   19  C   UNL     1     -39.558  50.183 -53.234  1.00  0.00     0.009 A 
HETATM   20  C   UNL     1     -39.446  49.553 -51.997  1.00  0.00     0.001 A 
HETATM   21  C   UNL     1     -39.753  50.254 -50.842  1.00  0.00     0.002 A 
HETATM   22  C   UNL     1     -40.144  51.591 -50.930  1.00  0.00     0.030 A 
ENDBRANCH  13  16
ENDBRANCH   1  12
BRANCH   2  23
HETATM   23  C   UNL     1     -42.124  56.740 -54.346  1.00  0.00    -0.011 A 
HETATM   24  C   UNL     1     -43.270  57.535 -54.399  1.00  0.00     0.125 A 
HETATM   25  N   UNL     1     -44.026  57.714 -55.506  1.00  0.00    -0.272 NA
HETATM   26  C   UNL     1     -43.626  57.071 -56.623  1.00  0.00     0.116 A 
HETATM   27  C   UNL     1     -42.505  56.263 -56.685  1.00  0.00     0.020 A 
HETATM   28  C   UNL     1     -41.745  56.097 -55.530  1.00  0.00     0.012 A 
ENDBRANCH   2  23
TORSDOF 3
ENDMDL
MODEL 4
REMARK VINA RESULT:      -8.2      2.576      4.161
REMARK  3 active torsions:
REMARK  status: ('A' for Active; 'I' for Inactive)
REMARK    1  A    between atoms: C_3  and  N_4 
REMARK       I    between atoms: N_4  and  C_5 
REMARK    2  A    between atoms: C_5  and  C_6 
REMARK    3  A    between atoms: C_7  and  C_8 
ROOT
HETATM    1  C   UNL     1     -42.940  57.120 -54.970  1.00  0.00     0.062 C 
HETATM    2  C   UNL     1     -42.409  57.492 -56.360  1.00  0.00     0.199 C 
HETATM    3  N   UNL     1     -42.277  58.941 -56.481  1.00  0.00    -0.092 N 
HETATM    4  C   UNL     1     -42.846  59.842 -55.628  1.00  0.00     0.735 A 
HETATM    5  N   UNL     1     -43.543  59.387 -54.566  1.00  0.00    -0.191 N 
HETATM    6  N   UNL     1     -41.553  59.574 -57.415  1.00  0.00     0.012 NA
HETATM    7  N   UNL     1     -41.737  60.866 -57.155  1.00  0.00     0.033 NA
HETATM    8  N   UNL     1     -42.541  61.047 -56.044  1.00  0.00     0.030 NA
HETATM    9  C   UNL     1     -43.537  58.049 -54.178  1.00  0.00     0.037 C 
HETATM   10  C   UNL     1     -44.244  57.751 -52.878  1.00  0.00     0.070 C 
HETATM   11  H   UNL     1     -43.933  60.065 -53.915  1.00  0.00     0.184 HD
ENDROOT
BRANCH   1  12
HETATM   12  C   UNL     1     -42.728  55.689 -54.596  1.00  0.00     0.256 C 
HETATM   13  N   UNL     1     -41.435  55.403 -54.217  1.00  0.00    -0.323 N 
HETATM   14  H   UNL     1     -40.740  56.093 -54.470  1.00  0.00     0.169 HD
HETATM   15  O   UNL     1     -43.619  54.878 -54.798  1.00  0.00    -0.267 OA
BRANCH  13  16
HETATM   16  C   UNL     1     -40.913  54.199 -53.690  1.00  0.00     0.041 A 
HETATM   17  C   UNL     1     -40.745  53.881 -52.329  1.00  0.00    -0.035 A 
HETATM   18  C   UNL     1     -41.036  54.807 -51.180  1.00  0.00     0.050 C 
HETATM   19  C   UNL     1     -40.226  52.613 -51.988  1.00  0.00     0.009 A 
HETATM   20  C   UNL     1     -39.826  51.701 -52.961  1.00  0.00     0.001 A 
HETATM   21  C   UNL     1     -39.936  52.039 -54.300  1.00  0.00     0.002 A 
HETATM   22  C   UNL     1     -40.471  53.277 -54.659  1.00  0.00     0.030 A 
ENDBRANCH  13  16
ENDBRANCH   1  12
BRANCH   2  23
HETATM   23  C   UNL     1     -43.273  56.976 -57.498  1.00  0.00    -0.011 A 
HETATM   24  C   UNL     1     -44.457  57.611 -57.877  1.00  0.00     0.125 A 
HETATM   25  N   UNL     1     -45.265  57.189 -58.876  1.00  0.00    -0.272 NA
HETATM   26  C   UNL     1     -44.880  56.079 -59.539  1.00  0.00     0.116 A 
HETATM   27  C   UNL     1     -43.724  55.375 -59.252  1.00  0.00     0.020 A 
HETATM   28  C   UNL     1     -42.911  55.831 -58.218  1.00  0.00     0.012 A 
ENDBRANCH   2  23
TORSDOF 3
ENDMDL
MODEL 5
REMARK VINA RESULT:      -7.8      2.666      6.460
REMARK  3 active torsions:
REMARK  status: ('A' for Active; 'I' for Inactive)
REMARK    1  A    between atoms: C_3  and  N_4 
REMARK       I    between atoms: N_4  and  C_5 
REMARK    2  A    between atoms: C_5  and  C_6 
REMARK    3  A    between atoms: C_7  and  C_8 
ROOT
HETATM    1  C   UNL     1     -41.965  55.861 -53.682  1.00  0.00     0.062 C 
HETATM    2  C   UNL     1     -42.510  54.499 -53.231  1.00  0.00     0.199 C 
HETATM    3  N   UNL     1     -43.184  54.626 -51.943  1.00  0.00    -0.092 N 
HETATM    4  C   UNL     1     -43.063  55.700 -51.108  1.00  0.00     0.735 A 
HETATM    5  N   UNL     1     -42.312  56.750 -51.501  1.00  0.00    -0.191 N 
HETATM    6  N   UNL     1     -44.036  53.728 -51.426  1.00  0.00     0.012 NA
HETATM    7  N   UNL     1     -44.382  54.240 -50.249  1.00  0.00     0.033 NA
HETATM    8  N   UNL     1     -43.783  55.469 -50.038  1.00  0.00     0.030 NA
HETATM    9  C   UNL     1     -41.825  56.885 -52.799  1.00  0.00     0.037 C 
HETATM   10  C   UNL     1     -41.141  58.196 -53.099  1.00  0.00     0.070 C 
HETATM   11  H   UNL     1     -42.257  57.562 -50.890  1.00  0.00     0.184 HD
ENDROOT
BRANCH   1  12
HETATM   12  C   UNL     1     -41.631  55.935 -55.136  1.00  0.00     0.256 C 
HETATM   13  N   UNL     1     -42.655  56.426 -55.914  1.00  0.00    -0.323 N 
HETATM   14  H   UNL     1     -43.570  56.437 -55.481  1.00  0.00     0.169 HD
HETATM   15  O   UNL     1     -40.593  55.431 -55.539  1.00  0.00    -0.267 OA
BRANCH  13  16
HETATM   16  C   UNL     1     -42.646  56.744 -57.293  1.00  0.00     0.041 A 
HETATM   17  C   UNL     1     -42.347  57.995 -57.864  1.00  0.00    -0.035 A 
HETATM   18  C   UNL     1     -42.043  59.250 -57.092  1.00  0.00     0.050 C 
HETATM   19  C   UNL     1     -42.366  58.120 -59.270  1.00  0.00     0.009 A 
HETATM   20  C   UNL     1     -42.729  57.058 -60.093  1.00  0.00     0.001 A 
HETATM   21  C   UNL     1     -43.082  55.843 -59.527  1.00  0.00     0.002 A 
HETATM   22  C   UNL     1     -43.044  55.691 -58.140  1.00  0.00     0.030 A 
ENDBRANCH  13  16
ENDBRANCH   1  12
BRANCH   2  23
HETATM   23  C   UNL     1     -41.443  53.422 -53.130  1.00  0.00    -0.011 A 
HETATM   24  C   UNL     1     -40.604  53.311 -52.021  1.00  0.00     0.125 A 
HETATM   25  N   UNL     1     -39.637  52.376 -51.884  1.00  0.00    -0.272 NA
HETATM   26  C   UNL     1     -39.491  51.502 -52.902  1.00  0.00     0.116 A 
HETATM   27  C   UNL     1     -40.271  51.516 -54.044  1.00  0.00     0.020 A 
HETATM   28  C   UNL     1     -41.260  52.490 -54.158  1.00  0.00     0.012 A 
ENDBRANCH   2  23
TORSDOF 3
ENDMDL
MODEL 6
REMARK VINA RESULT:      -7.5      2.735      6.334
REMARK  3 active torsions:
REMARK  status: ('A' for Active; 'I' for Inactive)
REMARK    1  A    between atoms: C_3  and  N_4 
REMARK       I    between atoms: N_4  and  C_5 
REMARK    2  A    between atoms: C_5  and  C_6 
REMARK    3  A    between atoms: C_7  and  C_8 
ROOT
HETATM    1  C   UNL     1     -42.688  57.532 -54.300  1.00  0.00     0.062 C 
HETATM    2  C   UNL     1     -42.595  56.347 -53.330  1.00  0.00     0.199 C 
HETATM    3  N   UNL     1     -42.013  56.775 -52.062  1.00  0.00    -0.092 N 
HETATM    4  C   UNL     1     -41.347  57.953 -51.875  1.00  0.00     0.735 A 
HETATM    5  N   UNL     1     -41.250  58.818 -52.906  1.00  0.00    -0.191 N 
HETATM    6  N   UNL     1     -42.086  56.093 -50.910  1.00  0.00     0.012 NA
HETATM    7  N   UNL     1     -41.410  56.839 -50.041  1.00  0.00     0.033 NA
HETATM    8  N   UNL     1     -40.945  58.001 -50.629  1.00  0.00     0.030 NA
HETATM    9  C   UNL     1     -41.970  58.666 -54.088  1.00  0.00     0.037 C 
HETATM   10  C   UNL     1     -41.856  59.811 -55.065  1.00  0.00     0.070 C 
HETATM   11  H   UNL     1     -40.784  59.710 -52.748  1.00  0.00     0.184 HD
ENDROOT
BRANCH   1  12
HETATM   12  C   UNL     1     -43.622  57.313 -55.446  1.00  0.00     0.256 C 
HETATM   13  N   UNL     1     -42.989  57.233 -56.666  1.00  0.00    -0.323 N 
HETATM   14  H   UNL     1     -42.038  57.575 -56.691  1.00  0.00     0.169 HD
HETATM   15  O   UNL     1     -44.827  57.382 -55.257  1.00  0.00    -0.267 OA
BRANCH  13  16
HETATM   16  C   UNL     1     -43.541  56.912 -57.929  1.00  0.00     0.041 A 
HETATM   17  C   UNL     1     -44.245  57.782 -58.783  1.00  0.00    -0.035 A 
HETATM   18  C   UNL     1     -44.596  59.209 -58.467  1.00  0.00     0.050 C 
HETATM   19  C   UNL     1     -44.705  57.289 -60.023  1.00  0.00     0.009 A 
HETATM   20  C   UNL     1     -44.529  55.958 -60.391  1.00  0.00     0.001 A 
HETATM   21  C   UNL     1     -43.889  55.087 -59.524  1.00  0.00     0.002 A 
HETATM   22  C   UNL     1     -43.403  55.561 -58.304  1.00  0.00     0.030 A 
ENDBRANCH  13  16
ENDBRANCH   1  12
BRANCH   2  23
HETATM   23  C   UNL     1     -41.791  55.178 -53.876  1.00  0.00    -0.011 A 
HETATM   24  C   UNL     1     -42.182  53.853 -53.677  1.00  0.00     0.125 A 
HETATM   25  N   UNL     1     -41.501  52.778 -54.135  1.00  0.00    -0.272 NA
HETATM   26  C   UNL     1     -40.371  53.028 -54.829  1.00  0.00     0.116 A 
HETATM   27  C   UNL     1     -39.895  54.300 -55.090  1.00  0.00     0.020 A 
HETATM   28  C   UNL     1     -40.616  55.388 -54.606  1.00  0.00     0.012 A 
ENDBRANCH   2  23
TORSDOF 3
ENDMDL
MODEL 7
REMARK VINA RESULT:      -7.4      3.083      6.321
REMARK  3 active torsions:
REMARK  status: ('A' for Active; 'I' for Inactive)
REMARK    1  A    between atoms: C_3  and  N_4 
REMARK       I    between atoms: N_4  and  C_5 
REMARK    2  A    between atoms: C_5  and  C_6 
REMARK    3  A    between atoms: C_7  and  C_8 
ROOT
HETATM    1  C   UNL     1     -42.984  58.079 -53.491  1.00  0.00     0.062 C 
HETATM    2  C   UNL     1     -43.783  57.185 -52.534  1.00  0.00     0.199 C 
HETATM    3  N   UNL     1     -44.562  58.003 -51.610  1.00  0.00    -0.092 N 
HETATM    4  C   UNL     1     -44.362  59.337 -51.401  1.00  0.00     0.735 A 
HETATM    5  N   UNL     1     -43.417  59.976 -52.121  1.00  0.00    -0.191 N 
HETATM    6  N   UNL     1     -45.597  57.565 -50.876  1.00  0.00     0.012 NA
HETATM    7  N   UNL     1     -45.981  58.631 -50.179  1.00  0.00     0.033 NA
HETATM    8  N   UNL     1     -45.220  59.742 -50.497  1.00  0.00     0.030 NA
HETATM    9  C   UNL     1     -42.779  59.393 -53.213  1.00  0.00     0.037 C 
HETATM   10  C   UNL     1     -41.867  60.309 -53.992  1.00  0.00     0.070 C 
HETATM   11  H   UNL     1     -43.299  60.979 -51.985  1.00  0.00     0.184 HD
ENDROOT
BRANCH   1  12
HETATM   12  C   UNL     1     -42.489  57.377 -54.714  1.00  0.00     0.256 C 
HETATM   13  N   UNL     1     -43.193  57.692 -55.854  1.00  0.00    -0.323 N 
HETATM   14  H   UNL     1     -44.090  58.136 -55.709  1.00  0.00     0.169 HD
HETATM   15  O   UNL     1     -41.648  56.497 -54.601  1.00  0.00    -0.267 OA
BRANCH  13  16
HETATM   16  C   UNL     1     -42.926  57.315 -57.192  1.00  0.00     0.041 A 
HETATM   17  C   UNL     1     -42.271  58.089 -58.168  1.00  0.00    -0.035 A 
HETATM   18  C   UNL     1     -41.791  59.501 -57.975  1.00  0.00     0.050 C 
HETATM   19  C   UNL     1     -42.073  57.535 -59.451  1.00  0.00     0.009 A 
HETATM   20  C   UNL     1     -42.559  56.274 -59.786  1.00  0.00     0.001 A 
HETATM   21  C   UNL     1     -43.256  55.537 -58.843  1.00  0.00     0.002 A 
HETATM   22  C   UNL     1     -43.440  56.056 -57.560  1.00  0.00     0.030 A 
ENDBRANCH  13  16
ENDBRANCH   1  12
BRANCH   2  23
HETATM   23  C   UNL     1     -42.918  56.223 -51.738  1.00  0.00    -0.011 A 
HETATM   24  C   UNL     1     -41.925  56.669 -50.864  1.00  0.00     0.125 A 
HETATM   25  N   UNL     1     -41.125  55.855 -50.137  1.00  0.00    -0.272 NA
HETATM   26  C   UNL     1     -41.318  54.528 -50.283  1.00  0.00     0.116 A 
HETATM   27  C   UNL     1     -42.276  53.977 -51.115  1.00  0.00     0.020 A 
HETATM   28  C   UNL     1     -43.086  54.838 -51.851  1.00  0.00     0.012 A 
ENDBRANCH   2  23
TORSDOF 3
ENDMDL
MODEL 8
REMARK VINA RESULT:      -7.3     14.841     16.945
REMARK  3 active torsions:
REMARK  status: ('A' for Active; 'I' for Inactive)
REMARK    1  A    between atoms: C_3  and  N_4 
REMARK       I    between atoms: N_4  and  C_5 
REMARK    2  A    between atoms: C_5  and  C_6 
REMARK    3  A    between atoms: C_7  and  C_8 
ROOT
HETATM    1  C   UNL     1     -35.887  41.242 -53.583  1.00  0.00     0.062 C 
HETATM    2  C   UNL     1     -35.033  41.302 -54.856  1.00  0.00     0.199 C 
HETATM    3  N   UNL     1     -35.861  41.657 -56.005  1.00  0.00    -0.092 N 
HETATM    4  C   UNL     1     -37.225  41.615 -56.017  1.00  0.00     0.735 A 
HETATM    5  N   UNL     1     -37.878  41.270 -54.888  1.00  0.00    -0.191 N 
HETATM    6  N   UNL     1     -35.397  42.106 -57.181  1.00  0.00     0.012 NA
HETATM    7  N   UNL     1     -36.489  42.279 -57.921  1.00  0.00     0.033 NA
HETATM    8  N   UNL     1     -37.634  41.976 -57.208  1.00  0.00     0.030 NA
HETATM    9  C   UNL     1     -37.242  41.158 -53.653  1.00  0.00     0.037 C 
HETATM   10  C   UNL     1     -38.154  40.919 -52.476  1.00  0.00     0.070 C 
HETATM   11  H   UNL     1     -38.896  41.277 -54.894  1.00  0.00     0.184 HD
ENDROOT
BRANCH   1  12
HETATM   12  C   UNL     1     -35.099  41.295 -52.315  1.00  0.00     0.256 C 
HETATM   13  N   UNL     1     -34.753  40.055 -51.828  1.00  0.00    -0.323 N 
HETATM   14  H   UNL     1     -35.265  39.272 -52.213  1.00  0.00     0.169 HD
HETATM   15  O   UNL     1     -34.964  42.364 -51.738  1.00  0.00    -0.267 OA
BRANCH  13  16
HETATM   16  C   UNL     1     -33.915  39.736 -50.732  1.00  0.00     0.041 A 
HETATM   17  C   UNL     1     -32.541  40.017 -50.617  1.00  0.00    -0.035 A 
HETATM   18  C   UNL     1     -31.695  40.657 -51.682  1.00  0.00     0.050 C 
HETATM   19  C   UNL     1     -31.870  39.642 -49.433  1.00  0.00     0.009 A 
HETATM   20  C   UNL     1     -32.519  38.953 -48.411  1.00  0.00     0.001 A 
HETATM   21  C   UNL     1     -33.858  38.625 -48.552  1.00  0.00     0.002 A 
HETATM   22  C   UNL     1     -34.546  39.010 -49.703  1.00  0.00     0.030 A 
ENDBRANCH  13  16
ENDBRANCH   1  12
BRANCH   2  23
HETATM   23  C   UNL     1     -34.298  40.006 -55.156  1.00  0.00    -0.011 A 
HETATM   24  C   UNL     1     -34.975  38.810 -55.401  1.00  0.00     0.125 A 
HETATM   25  N   UNL     1     -34.370  37.630 -55.665  1.00  0.00    -0.272 NA
HETATM   26  C   UNL     1     -33.021  37.633 -55.690  1.00  0.00     0.116 A 
HETATM   27  C   UNL     1     -32.251  38.760 -55.469  1.00  0.00     0.020 A 
HETATM   28  C   UNL     1     -32.900  39.962 -55.198  1.00  0.00     0.012 A 
ENDBRANCH   2  23
TORSDOF 3
ENDMDL
MODEL 9
REMARK VINA RESULT:      -7.2     14.559     17.417
REMARK  3 active torsions:
REMARK  status: ('A' for Active; 'I' for Inactive)
REMARK    1  A    between atoms: C_3  and  N_4 
REMARK       I    between atoms: N_4  and  C_5 
REMARK    2  A    between atoms: C_5  and  C_6 
REMARK    3  A    between atoms: C_7  and  C_8 
ROOT
HETATM    1  C   UNL     1     -33.492  39.373 -54.888  1.00  0.00     0.062 C 
HETATM    2  C   UNL     1     -33.594  40.379 -53.734  1.00  0.00     0.199 C 
HETATM    3  N   UNL     1     -32.825  39.910 -52.585  1.00  0.00    -0.092 N 
HETATM    4  C   UNL     1     -32.364  38.634 -52.432  1.00  0.00     0.735 A 
HETATM    5  N   UNL     1     -32.582  37.739 -53.417  1.00  0.00    -0.191 N 
HETATM    6  N   UNL     1     -32.437  40.674 -51.553  1.00  0.00     0.012 NA
HETATM    7  N   UNL     1     -31.790  39.836 -50.748  1.00  0.00     0.033 NA
HETATM    8  N   UNL     1     -31.737  38.562 -51.284  1.00  0.00     0.030 NA
HETATM    9  C   UNL     1     -33.067  38.101 -54.672  1.00  0.00     0.037 C 
HETATM   10  C   UNL     1     -33.097  36.994 -55.697  1.00  0.00     0.070 C 
HETATM   11  H   UNL     1     -32.203  36.799 -53.311  1.00  0.00     0.184 HD
ENDROOT
BRANCH   1  12
HETATM   12  C   UNL     1     -33.884  39.928 -56.220  1.00  0.00     0.256 C 
HETATM   13  N   UNL     1     -35.181  39.639 -56.578  1.00  0.00    -0.323 N 
HETATM   14  H   UNL     1     -35.627  38.898 -56.053  1.00  0.00     0.169 HD
HETATM   15  O   UNL     1     -33.029  40.430 -56.935  1.00  0.00    -0.267 OA
BRANCH  13  16
HETATM   16  C   UNL     1     -35.915  40.101 -57.696  1.00  0.00     0.041 A 
HETATM   17  C   UNL     1     -36.685  41.277 -57.767  1.00  0.00    -0.035 A 
HETATM   18  C   UNL     1     -36.918  42.230 -56.627  1.00  0.00     0.050 C 
HETATM   19  C   UNL     1     -37.334  41.591 -58.981  1.00  0.00     0.009 A 
HETATM   20  C   UNL     1     -37.277  40.739 -60.081  1.00  0.00     0.001 A 
HETATM   21  C   UNL     1     -36.568  39.552 -59.990  1.00  0.00     0.002 A 
HETATM   22  C   UNL     1     -35.898  39.236 -58.808  1.00  0.00     0.030 A 
ENDBRANCH  13  16
ENDBRANCH   1  12
BRANCH   2  23
HETATM   23  C   UNL     1     -35.022  40.656 -53.296  1.00  0.00    -0.011 A 
HETATM   24  C   UNL     1     -35.526  41.953 -53.191  1.00  0.00     0.125 A 
HETATM   25  N   UNL     1     -36.786  42.254 -52.800  1.00  0.00    -0.272 NA
HETATM   26  C   UNL     1     -37.591  41.215 -52.497  1.00  0.00     0.116 A 
HETATM   27  C   UNL     1     -37.197  39.891 -52.572  1.00  0.00     0.020 A 
HETATM   28  C   UNL     1     -35.896  39.610 -52.977  1.00  0.00     0.012 A 
ENDBRANCH   2  23
TORSDOF 3
ENDMDL
MODEL 10
REMARK VINA RESULT:      -7.2      2.484      6.181
REMARK  3 active torsions:
REMARK  status: ('A' for Active; 'I' for Inactive)
REMARK    1  A    between atoms: C_3  and  N_4 
REMARK       I    between atoms: N_4  and  C_5 
REMARK    2  A    between atoms: C_5  and  C_6 
REMARK    3  A    between atoms: C_7  and  C_8 
ROOT
HETATM    1  C   UNL     1     -42.638  57.148 -52.593  1.00  0.00     0.062 C 
HETATM    2  C   UNL     1     -42.616  55.647 -52.276  1.00  0.00     0.199 C 
HETATM    3  N   UNL     1     -42.100  55.422 -50.929  1.00  0.00    -0.092 N 
HETATM    4  C   UNL     1     -41.430  56.356 -50.191  1.00  0.00     0.735 A 
HETATM    5  N   UNL     1     -41.263  57.593 -50.702  1.00  0.00    -0.191 N 
HETATM    6  N   UNL     1     -42.248  54.290 -50.225  1.00  0.00     0.012 NA
HETATM    7  N   UNL     1     -41.611  54.527 -49.081  1.00  0.00     0.033 NA
HETATM    8  N   UNL     1     -41.098  55.811 -49.047  1.00  0.00     0.030 NA
HETATM    9  C   UNL     1     -41.918  58.030 -51.852  1.00  0.00     0.037 C 
HETATM   10  C   UNL     1     -41.733  59.490 -52.185  1.00  0.00     0.070 C 
HETATM   11  H   UNL     1     -40.794  58.295 -50.131  1.00  0.00     0.184 HD
ENDROOT
BRANCH   1  12
HETATM   12  C   UNL     1     -43.509  57.515 -53.750  1.00  0.00     0.256 C 
HETATM   13  N   UNL     1     -42.811  57.748 -54.914  1.00  0.00    -0.323 N 
HETATM   14  H   UNL     1     -41.817  57.897 -54.808  1.00  0.00     0.169 HD
HETATM   15  O   UNL     1     -44.696  57.735 -53.561  1.00  0.00    -0.267 OA
BRANCH  13  16
HETATM   16  C   UNL     1     -43.315  57.993 -56.214  1.00  0.00     0.041 A 
HETATM   17  C   UNL     1     -43.425  57.060 -57.262  1.00  0.00    -0.035 A 
HETATM   18  C   UNL     1     -42.959  55.631 -57.201  1.00  0.00     0.050 C 
HETATM   19  C   UNL     1     -43.976  57.482 -58.491  1.00  0.00     0.009 A 
HETATM   20  C   UNL     1     -44.355  58.805 -58.706  1.00  0.00     0.001 A 
HETATM   21  C   UNL     1     -44.190  59.736 -57.694  1.00  0.00     0.002 A 
HETATM   22  C   UNL     1     -43.671  59.333 -56.462  1.00  0.00     0.030 A 
ENDBRANCH  13  16
ENDBRANCH   1  12
BRANCH   2  23
HETATM   23  C   UNL     1     -41.799  54.829 -53.263  1.00  0.00    -0.011 A 
HETATM   24  C   UNL     1     -42.082  53.489 -53.528  1.00  0.00     0.125 A 
HETATM   25  N   UNL     1     -41.384  52.716 -54.391  1.00  0.00    -0.272 NA
HETATM   26  C   UNL     1     -40.349  53.303 -55.028  1.00  0.00     0.116 A 
HETATM   27  C   UNL     1     -39.984  54.625 -54.846  1.00  0.00     0.020 A 
HETATM   28  C   UNL     1     -40.720  55.397 -53.951  1.00  0.00     0.012 A 
ENDBRANCH   2  23
TORSDOF 3
ENDMDL
