MODEL 1
REMARK VINA RESULT:      -8.6      0.000      0.000
REMARK  10 active torsions:
REMARK  status: ('A' for Active; 'I' for Inactive)
REMARK    1  A    between atoms: C_2  and  C_3 
REMARK    2  A    between atoms: C_3  and  C_4 
REMARK    3  A    between atoms: C_4  and  O_5 
REMARK    4  A    between atoms: O_5  and  C_6 
REMARK    5  A    between atoms: C_8  and  C_9 
REMARK       I    between atoms: C_9  and  N_10 
REMARK    6  A    between atoms: N_10  and  C_11 
REMARK    7  A    between atoms: C_11  and  N_12 
REMARK    8  A    between atoms: N_12  and  C_13 
REMARK    9  A    between atoms: C_15  and  O_16 
REMARK   10  A    between atoms: C_17  and  C_18 
ROOT
HETATM    1  N   UNL     1     -44.512  59.968 -54.324  1.00  0.00    -0.333 N 
HETATM    2  H   UNL     1     -45.352  60.219 -53.798  1.00  0.00     0.168 HD
ENDROOT
BRANCH   1   3
HETATM    3  C   UNL     1     -44.129  60.943 -55.211  1.00  0.00     0.179 C 
HETATM    4  S   UNL     1     -44.047  62.599 -54.996  1.00  0.00    -0.040 SA
BRANCH   3   5
HETATM    5  N   UNL     1     -43.742  60.475 -56.457  1.00  0.00    -0.299 N 
HETATM    6  C   UNL     1     -42.485  60.049 -56.868  1.00  0.00     0.257 C 
HETATM    7  O   UNL     1     -41.460  60.298 -56.237  1.00  0.00    -0.267 OA
HETATM    8  H   UNL     1     -44.520  60.391 -57.095  1.00  0.00     0.171 HD
BRANCH   6   9
HETATM    9  C   UNL     1     -42.406  59.318 -58.168  1.00  0.00     0.035 A 
HETATM   10  C   UNL     1     -42.508  57.925 -58.260  1.00  0.00     0.053 A 
HETATM   11  C   UNL     1     -42.431  57.310 -59.510  1.00  0.00     0.069 A 
HETATM   12  C   UNL     1     -42.194  58.049 -60.665  1.00  0.00     0.037 A 
HETATM   13  C   UNL     1     -42.068  59.433 -60.576  1.00  0.00     0.004 A 
HETATM   14  C   UNL     1     -42.178  60.065 -59.334  1.00  0.00     0.017 A 
BRANCH  11  15
HETATM   15  O   UNL     1     -42.521  55.949 -59.594  1.00  0.00    -0.351 OA
BRANCH  15  16
HETATM   16  C   UNL     1     -43.636  55.457 -58.839  1.00  0.00     0.175 C 
BRANCH  16  17
HETATM   17  C   UNL     1     -44.426  54.466 -59.690  1.00  0.00     0.026 C 
BRANCH  17  18
HETATM   18  C   UNL     1     -45.054  55.126 -60.919  1.00  0.00    -0.002 C 
HETATM   19  C   UNL     1     -46.012  56.238 -60.522  1.00  0.00     0.005 C 
ENDBRANCH  17  18
ENDBRANCH  16  17
ENDBRANCH  15  16
ENDBRANCH  11  15
ENDBRANCH   6   9
ENDBRANCH   3   5
ENDBRANCH   1   3
BRANCH   1  20
HETATM   20  C   UNL     1     -43.997  58.689 -54.025  1.00  0.00     0.036 A 
HETATM   21  C   UNL     1     -44.621  57.484 -54.341  1.00  0.00     0.067 A 
HETATM   22  C   UNL     1     -43.992  56.260 -54.067  1.00  0.00     0.082 A 
HETATM   23  C   UNL     1     -42.720  56.210 -53.479  1.00  0.00     0.050 A 
HETATM   24  C   UNL     1     -42.110  57.429 -53.151  1.00  0.00     0.021 A 
HETATM   25  C   UNL     1     -42.731  58.651 -53.432  1.00  0.00     0.030 A 
BRANCH  22  26
HETATM   26  O   UNL     1     -44.653  55.102 -54.387  1.00  0.00    -0.360 OA
HETATM   27  H   UNL     1     -45.412  54.986 -53.793  1.00  0.00     0.217 HD
ENDBRANCH  22  26
BRANCH  23  28
HETATM   28  C   UNL     1     -41.985  54.975 -53.203  1.00  0.00     0.183 A 
HETATM   29  O   UNL     1     -41.887  54.058 -54.220  1.00  0.00    -0.289 OA
HETATM   30  C   UNL     1     -41.097  53.074 -53.707  1.00  0.00     0.107 A 
HETATM   31  C   UNL     1     -40.747  53.439 -52.421  1.00  0.00     0.093 A 
HETATM   32  C   UNL     1     -40.690  51.907 -54.344  1.00  0.00     0.046 A 
HETATM   33  N   UNL     1     -41.305  54.652 -52.112  1.00  0.00    -0.221 NA
HETATM   34  C   UNL     1     -39.920  52.588 -51.679  1.00  0.00     0.035 A 
HETATM   35  C   UNL     1     -39.484  51.397 -52.282  1.00  0.00     0.009 A 
HETATM   36  C   UNL     1     -39.863  51.052 -53.594  1.00  0.00    -0.059 A 
HETATM   37  C   UNL     1     -39.346  49.780 -54.204  1.00  0.00     0.048 C 
ENDBRANCH  23  28
ENDBRANCH   1  20
TORSDOF 10
ENDMDL
MODEL 2
REMARK VINA RESULT:      -8.3      2.741      8.243
REMARK  10 active torsions:
REMARK  status: ('A' for Active; 'I' for Inactive)
REMARK    1  A    between atoms: C_2  and  C_3 
REMARK    2  A    between atoms: C_3  and  C_4 
REMARK    3  A    between atoms: C_4  and  O_5 
REMARK    4  A    between atoms: O_5  and  C_6 
REMARK    5  A    between atoms: C_8  and  C_9 
REMARK       I    between atoms: C_9  and  N_10 
REMARK    6  A    between atoms: N_10  and  C_11 
REMARK    7  A    between atoms: C_11  and  N_12 
REMARK    8  A    between atoms: N_12  and  C_13 
REMARK    9  A    between atoms: C_15  and  O_16 
REMARK   10  A    between atoms: C_17  and  C_18 
ROOT
HETATM    1  N   UNL     1     -40.625  58.862 -52.818  1.00  0.00    -0.333 N 
HETATM    2  H   UNL     1     -39.782  59.408 -53.013  1.00  0.00     0.168 HD
ENDROOT
BRANCH   1   3
HETATM    3  C   UNL     1     -40.941  58.831 -51.482  1.00  0.00     0.179 C 
HETATM    4  S   UNL     1     -41.513  60.055 -50.498  1.00  0.00    -0.040 SA
BRANCH   3   5
HETATM    5  N   UNL     1     -40.771  57.596 -50.875  1.00  0.00    -0.299 N 
HETATM    6  C   UNL     1     -41.688  56.560 -50.752  1.00  0.00     0.257 C 
HETATM    7  O   UNL     1     -42.894  56.715 -50.932  1.00  0.00    -0.267 OA
HETATM    8  H   UNL     1     -39.825  57.454 -50.551  1.00  0.00     0.171 HD
BRANCH   6   9
HETATM    9  C   UNL     1     -41.160  55.232 -50.318  1.00  0.00     0.035 A 
HETATM   10  C   UNL     1     -40.719  54.260 -51.224  1.00  0.00     0.053 A 
HETATM   11  C   UNL     1     -40.232  53.043 -50.745  1.00  0.00     0.069 A 
HETATM   12  C   UNL     1     -40.233  52.751 -49.384  1.00  0.00     0.037 A 
HETATM   13  C   UNL     1     -40.692  53.705 -48.481  1.00  0.00     0.004 A 
HETATM   14  C   UNL     1     -41.150  54.942 -48.944  1.00  0.00     0.017 A 
BRANCH  11  15
HETATM   15  O   UNL     1     -39.812  52.094 -51.633  1.00  0.00    -0.351 OA
BRANCH  15  16
HETATM   16  C   UNL     1     -39.845  50.787 -51.044  1.00  0.00     0.175 C 
BRANCH  16  17
HETATM   17  C   UNL     1     -39.537  49.742 -52.115  1.00  0.00     0.026 C 
BRANCH  17  18
HETATM   18  C   UNL     1     -39.391  50.361 -53.506  1.00  0.00    -0.002 C 
HETATM   19  C   UNL     1     -40.633  50.126 -54.350  1.00  0.00     0.005 C 
ENDBRANCH  17  18
ENDBRANCH  16  17
ENDBRANCH  15  16
ENDBRANCH  11  15
ENDBRANCH   6   9
ENDBRANCH   3   5
ENDBRANCH   1   3
BRANCH   1  20
HETATM   20  C   UNL     1     -41.211  58.269 -53.955  1.00  0.00     0.036 A 
HETATM   21  C   UNL     1     -41.050  56.937 -54.332  1.00  0.00     0.067 A 
HETATM   22  C   UNL     1     -41.735  56.420 -55.443  1.00  0.00     0.082 A 
HETATM   23  C   UNL     1     -42.606  57.220 -56.198  1.00  0.00     0.050 A 
HETATM   24  C   UNL     1     -42.746  58.562 -55.818  1.00  0.00     0.021 A 
HETATM   25  C   UNL     1     -42.071  59.076 -54.705  1.00  0.00     0.030 A 
BRANCH  22  26
HETATM   26  O   UNL     1     -41.534  55.107 -55.779  1.00  0.00    -0.360 OA
HETATM   27  H   UNL     1     -41.091  55.056 -56.641  1.00  0.00     0.217 HD
ENDBRANCH  22  26
BRANCH  23  28
HETATM   28  C   UNL     1     -43.386  56.740 -57.340  1.00  0.00     0.183 A 
HETATM   29  O   UNL     1     -44.552  57.402 -57.629  1.00  0.00    -0.289 OA
HETATM   30  C   UNL     1     -45.006  56.798 -58.763  1.00  0.00     0.107 A 
HETATM   31  C   UNL     1     -44.098  55.816 -59.113  1.00  0.00     0.093 A 
HETATM   32  C   UNL     1     -46.163  57.102 -59.471  1.00  0.00     0.046 A 
HETATM   33  N   UNL     1     -43.066  55.793 -58.210  1.00  0.00    -0.221 NA
HETATM   34  C   UNL     1     -44.336  55.054 -60.261  1.00  0.00     0.035 A 
HETATM   35  C   UNL     1     -45.493  55.326 -61.008  1.00  0.00     0.009 A 
HETATM   36  C   UNL     1     -46.402  56.330 -60.622  1.00  0.00    -0.059 A 
HETATM   37  C   UNL     1     -47.611  56.602 -61.472  1.00  0.00     0.048 C 
ENDBRANCH  23  28
ENDBRANCH   1  20
TORSDOF 10
ENDMDL
MODEL 3
REMARK VINA RESULT:      -8.0      4.104      8.912
REMARK  10 active torsions:
REMARK  status: ('A' for Active; 'I' for Inactive)
REMARK    1  A    between atoms: C_2  and  C_3 
REMARK    2  A    between atoms: C_3  and  C_4 
REMARK    3  A    between atoms: C_4  and  O_5 
REMARK    4  A    between atoms: O_5  and  C_6 
REMARK    5  A    between atoms: C_8  and  C_9 
REMARK       I    between atoms: C_9  and  N_10 
REMARK    6  A    between atoms: N_10  and  C_11 
REMARK    7  A    between atoms: C_11  and  N_12 
REMARK    8  A    between atoms: N_12  and  C_13 
REMARK    9  A    between atoms: C_15  and  O_16 
REMARK   10  A    between atoms: C_17  and  C_18 
ROOT
HETATM    1  N   UNL     1     -44.213  55.795 -54.937  1.00  0.00    -0.333 N 
HETATM    2  H   UNL     1     -44.999  55.147 -54.843  1.00  0.00     0.168 HD
ENDROOT
BRANCH   1   3
HETATM    3  C   UNL     1     -43.253  55.342 -55.807  1.00  0.00     0.179 C 
HETATM    4  S   UNL     1     -42.933  55.820 -57.377  1.00  0.00    -0.040 SA
BRANCH   3   5
HETATM    5  N   UNL     1     -42.423  54.356 -55.294  1.00  0.00    -0.299 N 
HETATM    6  C   UNL     1     -41.208  54.504 -54.637  1.00  0.00     0.257 C 
HETATM    7  O   UNL     1     -40.559  55.548 -54.668  1.00  0.00    -0.267 OA
HETATM    8  H   UNL     1     -42.826  53.434 -55.377  1.00  0.00     0.171 HD
BRANCH   6   9
HETATM    9  C   UNL     1     -40.668  53.307 -53.928  1.00  0.00     0.035 A 
HETATM   10  C   UNL     1     -40.421  53.290 -52.550  1.00  0.00     0.053 A 
HETATM   11  C   UNL     1     -39.920  52.132 -51.954  1.00  0.00     0.069 A 
HETATM   12  C   UNL     1     -39.604  51.009 -52.712  1.00  0.00     0.037 A 
HETATM   13  C   UNL     1     -39.827  51.028 -54.087  1.00  0.00     0.004 A 
HETATM   14  C   UNL     1     -40.360  52.169 -54.692  1.00  0.00     0.017 A 
BRANCH  11  15
HETATM   15  O   UNL     1     -39.670  52.124 -50.611  1.00  0.00    -0.351 OA
BRANCH  15  16
HETATM   16  C   UNL     1     -40.703  52.810 -49.890  1.00  0.00     0.175 C 
BRANCH  16  17
HETATM   17  C   UNL     1     -40.096  53.998 -49.146  1.00  0.00     0.026 C 
BRANCH  17  18
HETATM   18  C   UNL     1     -41.125  55.096 -48.867  1.00  0.00    -0.002 C 
HETATM   19  C   UNL     1     -41.209  56.082 -50.021  1.00  0.00     0.005 C 
ENDBRANCH  17  18
ENDBRANCH  16  17
ENDBRANCH  15  16
ENDBRANCH  11  15
ENDBRANCH   6   9
ENDBRANCH   3   5
ENDBRANCH   1   3
BRANCH   1  20
HETATM   20  C   UNL     1     -44.310  56.949 -54.132  1.00  0.00     0.036 A 
HETATM   21  C   UNL     1     -45.030  58.095 -54.463  1.00  0.00     0.067 A 
HETATM   22  C   UNL     1     -45.126  59.165 -53.560  1.00  0.00     0.082 A 
HETATM   23  C   UNL     1     -44.512  59.112 -52.300  1.00  0.00     0.050 A 
HETATM   24  C   UNL     1     -43.776  57.960 -51.986  1.00  0.00     0.021 A 
HETATM   25  C   UNL     1     -43.688  56.888 -52.881  1.00  0.00     0.030 A 
BRANCH  22  26
HETATM   26  O   UNL     1     -45.838  60.274 -53.938  1.00  0.00    -0.360 OA
HETATM   27  H   UNL     1     -45.257  60.883 -54.422  1.00  0.00     0.217 HD
ENDBRANCH  22  26
BRANCH  23  28
HETATM   28  C   UNL     1     -44.604  60.169 -51.292  1.00  0.00     0.183 A 
HETATM   29  O   UNL     1     -45.062  59.815 -50.047  1.00  0.00    -0.289 OA
HETATM   30  C   UNL     1     -44.962  60.961 -49.317  1.00  0.00     0.107 A 
HETATM   31  C   UNL     1     -44.444  61.944 -50.140  1.00  0.00     0.093 A 
HETATM   32  C   UNL     1     -45.301  61.137 -47.981  1.00  0.00     0.046 A 
HETATM   33  N   UNL     1     -44.209  61.430 -51.389  1.00  0.00    -0.221 NA
HETATM   34  C   UNL     1     -44.234  63.223 -49.613  1.00  0.00     0.035 A 
HETATM   35  C   UNL     1     -44.562  63.447 -48.267  1.00  0.00     0.009 A 
HETATM   36  C   UNL     1     -45.093  62.425 -47.457  1.00  0.00    -0.059 A 
HETATM   37  C   UNL     1     -45.401  62.709 -46.014  1.00  0.00     0.048 C 
ENDBRANCH  23  28
ENDBRANCH   1  20
TORSDOF 10
ENDMDL
MODEL 4
REMARK VINA RESULT:      -7.9      1.818      2.554
REMARK  10 active torsions:
REMARK  status: ('A' for Active; 'I' for Inactive)
REMARK    1  A    between atoms: C_2  and  C_3 
REMARK    2  A    between atoms: C_3  and  C_4 
REMARK    3  A    between atoms: C_4  and  O_5 
REMARK    4  A    between atoms: O_5  and  C_6 
REMARK    5  A    between atoms: C_8  and  C_9 
REMARK       I    between atoms: C_9  and  N_10 
REMARK    6  A    between atoms: N_10  and  C_11 
REMARK    7  A    between atoms: C_11  and  N_12 
REMARK    8  A    between atoms: N_12  and  C_13 
REMARK    9  A    between atoms: C_15  and  O_16 
REMARK   10  A    between atoms: C_17  and  C_18 
ROOT
HETATM    1  N   UNL     1     -44.257  60.087 -53.099  1.00  0.00    -0.333 N 
HETATM    2  H   UNL     1     -43.644  60.877 -52.884  1.00  0.00     0.168 HD
ENDROOT
BRANCH   1   3
HETATM    3  C   UNL     1     -45.491  60.480 -53.552  1.00  0.00     0.179 C 
HETATM    4  S   UNL     1     -46.630  61.458 -52.816  1.00  0.00    -0.040 SA
BRANCH   3   5
HETATM    5  N   UNL     1     -45.826  60.004 -54.811  1.00  0.00    -0.299 N 
HETATM    6  C   UNL     1     -45.078  60.053 -55.981  1.00  0.00     0.257 C 
HETATM    7  O   UNL     1     -44.105  60.792 -56.116  1.00  0.00    -0.267 OA
HETATM    8  H   UNL     1     -46.707  59.512 -54.814  1.00  0.00     0.171 HD
BRANCH   6   9
HETATM    9  C   UNL     1     -45.542  59.208 -57.121  1.00  0.00     0.035 A 
HETATM   10  C   UNL     1     -44.835  58.086 -57.568  1.00  0.00     0.053 A 
HETATM   11  C   UNL     1     -45.333  57.339 -58.637  1.00  0.00     0.069 A 
HETATM   12  C   UNL     1     -46.490  57.723 -59.308  1.00  0.00     0.037 A 
HETATM   13  C   UNL     1     -47.185  58.852 -58.882  1.00  0.00     0.004 A 
HETATM   14  C   UNL     1     -46.716  59.589 -57.791  1.00  0.00     0.017 A 
BRANCH  11  15
HETATM   15  O   UNL     1     -44.634  56.251 -59.078  1.00  0.00    -0.351 OA
BRANCH  15  16
HETATM   16  C   UNL     1     -43.242  56.365 -58.753  1.00  0.00     0.175 C 
BRANCH  16  17
HETATM   17  C   UNL     1     -42.460  56.742 -60.010  1.00  0.00     0.026 C 
BRANCH  17  18
HETATM   18  C   UNL     1     -41.847  58.141 -59.916  1.00  0.00    -0.002 C 
HETATM   19  C   UNL     1     -42.739  59.182 -60.574  1.00  0.00     0.005 C 
ENDBRANCH  17  18
ENDBRANCH  16  17
ENDBRANCH  15  16
ENDBRANCH  11  15
ENDBRANCH   6   9
ENDBRANCH   3   5
ENDBRANCH   1   3
BRANCH   1  20
HETATM   20  C   UNL     1     -43.688  58.822 -52.843  1.00  0.00     0.036 A 
HETATM   21  C   UNL     1     -44.248  57.847 -52.018  1.00  0.00     0.067 A 
HETATM   22  C   UNL     1     -43.640  56.589 -51.886  1.00  0.00     0.082 A 
HETATM   23  C   UNL     1     -42.464  56.270 -52.580  1.00  0.00     0.050 A 
HETATM   24  C   UNL     1     -41.903  57.265 -53.394  1.00  0.00     0.021 A 
HETATM   25  C   UNL     1     -42.512  58.517 -53.535  1.00  0.00     0.030 A 
BRANCH  22  26
HETATM   26  O   UNL     1     -44.225  55.669 -51.054  1.00  0.00    -0.360 OA
HETATM   27  H   UNL     1     -44.494  56.103 -50.227  1.00  0.00     0.217 HD
ENDBRANCH  22  26
BRANCH  23  28
HETATM   28  C   UNL     1     -41.800  54.967 -52.525  1.00  0.00     0.183 A 
HETATM   29  O   UNL     1     -41.705  54.257 -53.694  1.00  0.00    -0.289 OA
HETATM   30  C   UNL     1     -40.983  53.153 -53.357  1.00  0.00     0.107 A 
HETATM   31  C   UNL     1     -40.667  53.247 -52.014  1.00  0.00     0.093 A 
HETATM   32  C   UNL     1     -40.606  52.108 -54.192  1.00  0.00     0.046 A 
HETATM   33  N   UNL     1     -41.180  54.408 -51.495  1.00  0.00    -0.221 NA
HETATM   34  C   UNL     1     -39.912  52.227 -51.425  1.00  0.00     0.035 A 
HETATM   35  C   UNL     1     -39.508  51.152 -52.232  1.00  0.00     0.009 A 
HETATM   36  C   UNL     1     -39.851  51.083 -53.596  1.00  0.00    -0.059 A 
HETATM   37  C   UNL     1     -39.370  49.924 -54.422  1.00  0.00     0.048 C 
ENDBRANCH  23  28
ENDBRANCH   1  20
TORSDOF 10
ENDMDL
MODEL 5
REMARK VINA RESULT:      -7.7      1.656      2.097
REMARK  10 active torsions:
REMARK  status: ('A' for Active; 'I' for Inactive)
REMARK    1  A    between atoms: C_2  and  C_3 
REMARK    2  A    between atoms: C_3  and  C_4 
REMARK    3  A    between atoms: C_4  and  O_5 
REMARK    4  A    between atoms: O_5  and  C_6 
REMARK    5  A    between atoms: C_8  and  C_9 
REMARK       I    between atoms: C_9  and  N_10 
REMARK    6  A    between atoms: N_10  and  C_11 
REMARK    7  A    between atoms: C_11  and  N_12 
REMARK    8  A    between atoms: N_12  and  C_13 
REMARK    9  A    between atoms: C_15  and  O_16 
REMARK   10  A    between atoms: C_17  and  C_18 
ROOT
HETATM    1  N   UNL     1     -43.010  60.777 -52.329  1.00  0.00    -0.333 N 
HETATM    2  H   UNL     1     -43.361  61.158 -51.447  1.00  0.00     0.168 HD
ENDROOT
BRANCH   1   3
HETATM    3  C   UNL     1     -42.952  61.718 -53.327  1.00  0.00     0.179 C 
HETATM    4  S   UNL     1     -43.074  63.382 -53.226  1.00  0.00    -0.040 SA
BRANCH   3   5
HETATM    5  N   UNL     1     -42.746  61.202 -54.598  1.00  0.00    -0.299 N 
HETATM    6  C   UNL     1     -43.686  60.709 -55.494  1.00  0.00     0.257 C 
HETATM    7  O   UNL     1     -44.829  60.405 -55.157  1.00  0.00    -0.267 OA
HETATM    8  H   UNL     1     -41.782  61.272 -54.890  1.00  0.00     0.171 HD
BRANCH   6   9
HETATM    9  C   UNL     1     -43.237  60.491 -56.901  1.00  0.00     0.035 A 
HETATM   10  C   UNL     1     -44.025  59.835 -57.854  1.00  0.00     0.053 A 
HETATM   11  C   UNL     1     -43.542  59.674 -59.153  1.00  0.00     0.069 A 
HETATM   12  C   UNL     1     -42.265  60.099 -59.507  1.00  0.00     0.037 A 
HETATM   13  C   UNL     1     -41.468  60.732 -58.556  1.00  0.00     0.004 A 
HETATM   14  C   UNL     1     -41.953  60.932 -57.260  1.00  0.00     0.017 A 
BRANCH  11  15
HETATM   15  O   UNL     1     -44.309  59.023 -60.078  1.00  0.00    -0.351 OA
BRANCH  15  16
HETATM   16  C   UNL     1     -44.636  57.699 -59.637  1.00  0.00     0.175 C 
BRANCH  16  17
HETATM   17  C   UNL     1     -43.801  56.686 -60.418  1.00  0.00     0.026 C 
BRANCH  17  18
HETATM   18  C   UNL     1     -42.844  55.903 -59.516  1.00  0.00    -0.002 C 
HETATM   19  C   UNL     1     -43.138  56.154 -58.046  1.00  0.00     0.005 C 
ENDBRANCH  17  18
ENDBRANCH  16  17
ENDBRANCH  15  16
ENDBRANCH  11  15
ENDBRANCH   6   9
ENDBRANCH   3   5
ENDBRANCH   1   3
BRANCH   1  20
HETATM   20  C   UNL     1     -42.716  59.399 -52.292  1.00  0.00     0.036 A 
HETATM   21  C   UNL     1     -43.617  58.381 -52.600  1.00  0.00     0.067 A 
HETATM   22  C   UNL     1     -43.206  57.039 -52.605  1.00  0.00     0.082 A 
HETATM   23  C   UNL     1     -41.882  56.681 -52.313  1.00  0.00     0.050 A 
HETATM   24  C   UNL     1     -40.988  57.713 -51.990  1.00  0.00     0.021 A 
HETATM   25  C   UNL     1     -41.394  59.052 -51.993  1.00  0.00     0.030 A 
BRANCH  22  26
HETATM   26  O   UNL     1     -44.134  56.076 -52.904  1.00  0.00    -0.360 OA
HETATM   27  H   UNL     1     -44.936  56.222 -52.375  1.00  0.00     0.217 HD
ENDBRANCH  22  26
BRANCH  23  28
HETATM   28  C   UNL     1     -41.371  55.310 -52.342  1.00  0.00     0.183 A 
HETATM   29  O   UNL     1     -41.469  54.625 -53.526  1.00  0.00    -0.289 OA
HETATM   30  C   UNL     1     -40.853  53.436 -53.276  1.00  0.00     0.107 A 
HETATM   31  C   UNL     1     -40.404  53.458 -51.969  1.00  0.00     0.093 A 
HETATM   32  C   UNL     1     -40.680  52.378 -54.160  1.00  0.00     0.046 A 
HETATM   33  N   UNL     1     -40.728  54.657 -51.386  1.00  0.00    -0.221 NA
HETATM   34  C   UNL     1     -39.720  52.344 -51.471  1.00  0.00     0.035 A 
HETATM   35  C   UNL     1     -39.522  51.251 -52.329  1.00  0.00     0.009 A 
HETATM   36  C   UNL     1     -39.997  51.258 -53.654  1.00  0.00    -0.059 A 
HETATM   37  C   UNL     1     -39.733  50.074 -54.541  1.00  0.00     0.048 C 
ENDBRANCH  23  28
ENDBRANCH   1  20
TORSDOF 10
ENDMDL
MODEL 6
REMARK VINA RESULT:      -7.6      1.852      2.299
REMARK  10 active torsions:
REMARK  status: ('A' for Active; 'I' for Inactive)
REMARK    1  A    between atoms: C_2  and  C_3 
REMARK    2  A    between atoms: C_3  and  C_4 
REMARK    3  A    between atoms: C_4  and  O_5 
REMARK    4  A    between atoms: O_5  and  C_6 
REMARK    5  A    between atoms: C_8  and  C_9 
REMARK       I    between atoms: C_9  and  N_10 
REMARK    6  A    between atoms: N_10  and  C_11 
REMARK    7  A    between atoms: C_11  and  N_12 
REMARK    8  A    between atoms: N_12  and  C_13 
REMARK    9  A    between atoms: C_15  and  O_16 
REMARK   10  A    between atoms: C_17  and  C_18 
ROOT
HETATM    1  N   UNL     1     -45.547  59.637 -53.473  1.00  0.00    -0.333 N 
HETATM    2  H   UNL     1     -46.277  59.741 -52.764  1.00  0.00     0.168 HD
ENDROOT
BRANCH   1   3
HETATM    3  C   UNL     1     -45.468  60.718 -54.315  1.00  0.00     0.179 C 
HETATM    4  S   UNL     1     -44.966  62.279 -53.993  1.00  0.00    -0.040 SA
BRANCH   3   5
HETATM    5  N   UNL     1     -45.846  60.461 -55.625  1.00  0.00    -0.299 N 
HETATM    6  C   UNL     1     -45.039  60.169 -56.717  1.00  0.00     0.257 C 
HETATM    7  O   UNL     1     -43.827  60.374 -56.721  1.00  0.00    -0.267 OA
HETATM    8  H   UNL     1     -46.849  60.434 -55.736  1.00  0.00     0.171 HD
BRANCH   6   9
HETATM    9  C   UNL     1     -45.714  59.645 -57.941  1.00  0.00     0.035 A 
HETATM   10  C   UNL     1     -46.055  58.296 -58.100  1.00  0.00     0.053 A 
HETATM   11  C   UNL     1     -46.690  57.880 -59.270  1.00  0.00     0.069 A 
HETATM   12  C   UNL     1     -46.940  58.768 -60.311  1.00  0.00     0.037 A 
HETATM   13  C   UNL     1     -46.582  60.106 -60.168  1.00  0.00     0.004 A 
HETATM   14  C   UNL     1     -45.977  60.544 -58.987  1.00  0.00     0.017 A 
BRANCH  11  15
HETATM   15  O   UNL     1     -47.011  56.561 -59.425  1.00  0.00    -0.351 OA
BRANCH  15  16
HETATM   16  C   UNL     1     -46.379  56.009 -60.588  1.00  0.00     0.175 C 
BRANCH  16  17
HETATM   17  C   UNL     1     -45.327  54.990 -60.156  1.00  0.00     0.026 C 
BRANCH  17  18
HETATM   18  C   UNL     1     -43.904  55.542 -60.264  1.00  0.00    -0.002 C 
HETATM   19  C   UNL     1     -43.370  55.967 -58.905  1.00  0.00     0.005 C 
ENDBRANCH  17  18
ENDBRANCH  16  17
ENDBRANCH  15  16
ENDBRANCH  11  15
ENDBRANCH   6   9
ENDBRANCH   3   5
ENDBRANCH   1   3
BRANCH   1  20
HETATM   20  C   UNL     1     -44.850  58.412 -53.416  1.00  0.00     0.036 A 
HETATM   21  C   UNL     1     -44.816  57.466 -54.438  1.00  0.00     0.067 A 
HETATM   22  C   UNL     1     -44.031  56.308 -54.315  1.00  0.00     0.082 A 
HETATM   23  C   UNL     1     -43.255  56.073 -53.171  1.00  0.00     0.050 A 
HETATM   24  C   UNL     1     -43.311  57.025 -52.143  1.00  0.00     0.021 A 
HETATM   25  C   UNL     1     -44.085  58.184 -52.268  1.00  0.00     0.030 A 
BRANCH  22  26
HETATM   26  O   UNL     1     -44.041  55.403 -55.344  1.00  0.00    -0.360 OA
HETATM   27  H   UNL     1     -43.183  54.950 -55.387  1.00  0.00     0.217 HD
ENDBRANCH  22  26
BRANCH  23  28
HETATM   28  C   UNL     1     -42.381  54.913 -52.990  1.00  0.00     0.183 A 
HETATM   29  O   UNL     1     -42.303  54.014 -54.023  1.00  0.00    -0.289 OA
HETATM   30  C   UNL     1     -41.374  53.108 -53.609  1.00  0.00     0.107 A 
HETATM   31  C   UNL     1     -40.927  53.501 -52.361  1.00  0.00     0.093 A 
HETATM   32  C   UNL     1     -40.926  51.988 -54.300  1.00  0.00     0.046 A 
HETATM   33  N   UNL     1     -41.563  54.654 -51.980  1.00  0.00    -0.221 NA
HETATM   34  C   UNL     1     -39.950  52.731 -51.721  1.00  0.00     0.035 A 
HETATM   35  C   UNL     1     -39.468  51.590 -52.382  1.00  0.00     0.009 A 
HETATM   36  C   UNL     1     -39.948  51.214 -53.651  1.00  0.00    -0.059 A 
HETATM   37  C   UNL     1     -39.378  50.000 -54.329  1.00  0.00     0.048 C 
ENDBRANCH  23  28
ENDBRANCH   1  20
TORSDOF 10
ENDMDL
MODEL 7
REMARK VINA RESULT:      -7.4      4.796      9.356
REMARK  10 active torsions:
REMARK  status: ('A' for Active; 'I' for Inactive)
REMARK    1  A    between atoms: C_2  and  C_3 
REMARK    2  A    between atoms: C_3  and  C_4 
REMARK    3  A    between atoms: C_4  and  O_5 
REMARK    4  A    between atoms: O_5  and  C_6 
REMARK    5  A    between atoms: C_8  and  C_9 
REMARK       I    between atoms: C_9  and  N_10 
REMARK    6  A    between atoms: N_10  and  C_11 
REMARK    7  A    between atoms: C_11  and  N_12 
REMARK    8  A    between atoms: N_12  and  C_13 
REMARK    9  A    between atoms: C_15  and  O_16 
REMARK   10  A    between atoms: C_17  and  C_18 
ROOT
HETATM    1  N   UNL     1     -42.268  58.403 -54.259  1.00  0.00    -0.333 N 
HETATM    2  H   UNL     1     -41.522  59.020 -54.587  1.00  0.00     0.168 HD
ENDROOT
BRANCH   1   3
HETATM    3  C   UNL     1     -42.329  57.224 -54.961  1.00  0.00     0.179 C 
HETATM    4  S   UNL     1     -42.910  56.935 -56.501  1.00  0.00    -0.040 SA
BRANCH   3   5
HETATM    5  N   UNL     1     -41.816  56.123 -54.290  1.00  0.00    -0.299 N 
HETATM    6  C   UNL     1     -42.394  54.872 -54.115  1.00  0.00     0.257 C 
HETATM    7  O   UNL     1     -43.590  54.661 -54.305  1.00  0.00    -0.267 OA
HETATM    8  H   UNL     1     -40.876  56.279 -53.959  1.00  0.00     0.171 HD
BRANCH   6   9
HETATM    9  C   UNL     1     -41.510  53.779 -53.612  1.00  0.00     0.035 A 
HETATM   10  C   UNL     1     -41.110  53.684 -52.275  1.00  0.00     0.053 A 
HETATM   11  C   UNL     1     -40.287  52.630 -51.876  1.00  0.00     0.069 A 
HETATM   12  C   UNL     1     -39.805  51.703 -52.795  1.00  0.00     0.037 A 
HETATM   13  C   UNL     1     -40.181  51.806 -54.131  1.00  0.00     0.004 A 
HETATM   14  C   UNL     1     -41.034  52.836 -54.538  1.00  0.00     0.017 A 
BRANCH  11  15
HETATM   15  O   UNL     1     -39.889  52.546 -50.571  1.00  0.00    -0.351 OA
BRANCH  15  16
HETATM   16  C   UNL     1     -39.427  53.816 -50.090  1.00  0.00     0.175 C 
BRANCH  16  17
HETATM   17  C   UNL     1     -40.082  54.116 -48.744  1.00  0.00     0.026 C 
BRANCH  17  18
HETATM   18  C   UNL     1     -41.303  55.028 -48.882  1.00  0.00    -0.002 C 
HETATM   19  C   UNL     1     -41.047  56.149 -49.876  1.00  0.00     0.005 C 
ENDBRANCH  17  18
ENDBRANCH  16  17
ENDBRANCH  15  16
ENDBRANCH  11  15
ENDBRANCH   6   9
ENDBRANCH   3   5
ENDBRANCH   1   3
BRANCH   1  20
HETATM   20  C   UNL     1     -43.048  58.935 -53.212  1.00  0.00     0.036 A 
HETATM   21  C   UNL     1     -43.750  58.179 -52.275  1.00  0.00     0.067 A 
HETATM   22  C   UNL     1     -44.438  58.804 -51.223  1.00  0.00     0.082 A 
HETATM   23  C   UNL     1     -44.434  60.198 -51.076  1.00  0.00     0.050 A 
HETATM   24  C   UNL     1     -43.737  60.949 -52.034  1.00  0.00     0.021 A 
HETATM   25  C   UNL     1     -43.042  60.328 -53.078  1.00  0.00     0.030 A 
BRANCH  22  26
HETATM   26  O   UNL     1     -45.122  58.015 -50.335  1.00  0.00    -0.360 OA
HETATM   27  H   UNL     1     -44.559  57.275 -50.056  1.00  0.00     0.217 HD
ENDBRANCH  22  26
BRANCH  23  28
HETATM   28  C   UNL     1     -45.091  60.915 -49.982  1.00  0.00     0.183 A 
HETATM   29  O   UNL     1     -44.371  61.106 -48.830  1.00  0.00    -0.289 OA
HETATM   30  C   UNL     1     -45.193  61.856 -48.044  1.00  0.00     0.107 A 
HETATM   31  C   UNL     1     -46.357  62.092 -48.751  1.00  0.00     0.093 A 
HETATM   32  C   UNL     1     -44.930  62.324 -46.762  1.00  0.00     0.046 A 
HETATM   33  N   UNL     1     -46.280  61.501 -49.986  1.00  0.00    -0.221 NA
HETATM   34  C   UNL     1     -47.365  62.858 -48.155  1.00  0.00     0.035 A 
HETATM   35  C   UNL     1     -47.143  63.353 -46.860  1.00  0.00     0.009 A 
HETATM   36  C   UNL     1     -45.948  63.089 -46.164  1.00  0.00    -0.059 A 
HETATM   37  C   UNL     1     -45.748  63.666 -44.791  1.00  0.00     0.048 C 
ENDBRANCH  23  28
ENDBRANCH   1  20
TORSDOF 10
ENDMDL
MODEL 8
REMARK VINA RESULT:      -7.4      2.706      9.086
REMARK  10 active torsions:
REMARK  status: ('A' for Active; 'I' for Inactive)
REMARK    1  A    between atoms: C_2  and  C_3 
REMARK    2  A    between atoms: C_3  and  C_4 
REMARK    3  A    between atoms: C_4  and  O_5 
REMARK    4  A    between atoms: O_5  and  C_6 
REMARK    5  A    between atoms: C_8  and  C_9 
REMARK       I    between atoms: C_9  and  N_10 
REMARK    6  A    between atoms: N_10  and  C_11 
REMARK    7  A    between atoms: C_11  and  N_12 
REMARK    8  A    between atoms: N_12  and  C_13 
REMARK    9  A    between atoms: C_15  and  O_16 
REMARK   10  A    between atoms: C_17  and  C_18 
ROOT
HETATM    1  N   UNL     1     -42.400  58.681 -52.388  1.00  0.00    -0.333 N 
HETATM    2  H   UNL     1     -41.632  59.060 -51.828  1.00  0.00     0.168 HD
ENDROOT
BRANCH   1   3
HETATM    3  C   UNL     1     -43.324  58.002 -51.632  1.00  0.00     0.179 C 
HETATM    4  S   UNL     1     -44.947  58.327 -51.398  1.00  0.00    -0.040 SA
BRANCH   3   5
HETATM    5  N   UNL     1     -42.832  56.878 -50.986  1.00  0.00    -0.299 N 
HETATM    6  C   UNL     1     -42.431  55.669 -51.541  1.00  0.00     0.257 C 
HETATM    7  O   UNL     1     -42.727  55.332 -52.686  1.00  0.00    -0.267 OA
HETATM    8  H   UNL     1     -42.709  57.027 -49.996  1.00  0.00     0.171 HD
BRANCH   6   9
HETATM    9  C   UNL     1     -41.666  54.737 -50.660  1.00  0.00     0.035 A 
HETATM   10  C   UNL     1     -41.260  53.464 -51.076  1.00  0.00     0.053 A 
HETATM   11  C   UNL     1     -40.542  52.649 -50.200  1.00  0.00     0.069 A 
HETATM   12  C   UNL     1     -40.273  53.053 -48.895  1.00  0.00     0.037 A 
HETATM   13  C   UNL     1     -40.696  54.309 -48.468  1.00  0.00     0.004 A 
HETATM   14  C   UNL     1     -41.385  55.150 -49.347  1.00  0.00     0.017 A 
BRANCH  11  15
HETATM   15  O   UNL     1     -40.156  51.403 -50.607  1.00  0.00    -0.351 OA
BRANCH  15  16
HETATM   16  C   UNL     1     -39.432  51.465 -51.843  1.00  0.00     0.175 C 
BRANCH  16  17
HETATM   17  C   UNL     1     -39.579  50.137 -52.582  1.00  0.00     0.026 C 
BRANCH  17  18
HETATM   18  C   UNL     1     -40.029  50.325 -54.032  1.00  0.00    -0.002 C 
HETATM   19  C   UNL     1     -40.433  51.765 -54.304  1.00  0.00     0.005 C 
ENDBRANCH  17  18
ENDBRANCH  16  17
ENDBRANCH  15  16
ENDBRANCH  11  15
ENDBRANCH   6   9
ENDBRANCH   3   5
ENDBRANCH   1   3
BRANCH   1  20
HETATM   20  C   UNL     1     -42.287  58.924 -53.772  1.00  0.00     0.036 A 
HETATM   21  C   UNL     1     -42.167  57.938 -54.749  1.00  0.00     0.067 A 
HETATM   22  C   UNL     1     -42.135  58.280 -56.110  1.00  0.00     0.082 A 
HETATM   23  C   UNL     1     -42.233  59.615 -56.529  1.00  0.00     0.050 A 
HETATM   24  C   UNL     1     -42.338  60.599 -55.535  1.00  0.00     0.021 A 
HETATM   25  C   UNL     1     -42.379  60.260 -54.178  1.00  0.00     0.030 A 
BRANCH  22  26
HETATM   26  O   UNL     1     -42.004  57.273 -57.031  1.00  0.00    -0.360 OA
HETATM   27  H   UNL     1     -41.885  57.655 -57.916  1.00  0.00     0.217 HD
ENDBRANCH  22  26
BRANCH  23  28
HETATM   28  C   UNL     1     -42.250  60.043 -57.928  1.00  0.00     0.183 A 
HETATM   29  O   UNL     1     -41.413  61.069 -58.285  1.00  0.00    -0.289 OA
HETATM   30  C   UNL     1     -41.585  61.188 -59.631  1.00  0.00     0.107 A 
HETATM   31  C   UNL     1     -42.501  60.231 -60.027  1.00  0.00     0.093 A 
HETATM   32  C   UNL     1     -40.958  62.090 -60.482  1.00  0.00     0.046 A 
HETATM   33  N   UNL     1     -42.911  59.501 -58.941  1.00  0.00    -0.221 NA
HETATM   34  C   UNL     1     -42.842  60.142 -61.381  1.00  0.00     0.035 A 
HETATM   35  C   UNL     1     -42.232  61.034 -62.278  1.00  0.00     0.009 A 
HETATM   36  C   UNL     1     -41.306  62.001 -61.841  1.00  0.00    -0.059 A 
HETATM   37  C   UNL     1     -40.659  62.913 -62.845  1.00  0.00     0.048 C 
ENDBRANCH  23  28
ENDBRANCH   1  20
TORSDOF 10
ENDMDL
MODEL 9
REMARK VINA RESULT:      -7.3      2.638      8.985
REMARK  10 active torsions:
REMARK  status: ('A' for Active; 'I' for Inactive)
REMARK    1  A    between atoms: C_2  and  C_3 
REMARK    2  A    between atoms: C_3  and  C_4 
REMARK    3  A    between atoms: C_4  and  O_5 
REMARK    4  A    between atoms: O_5  and  C_6 
REMARK    5  A    between atoms: C_8  and  C_9 
REMARK       I    between atoms: C_9  and  N_10 
REMARK    6  A    between atoms: N_10  and  C_11 
REMARK    7  A    between atoms: C_11  and  N_12 
REMARK    8  A    between atoms: N_12  and  C_13 
REMARK    9  A    between atoms: C_15  and  O_16 
REMARK   10  A    between atoms: C_17  and  C_18 
ROOT
HETATM    1  N   UNL     1     -41.944  58.147 -53.895  1.00  0.00    -0.333 N 
HETATM    2  H   UNL     1     -40.971  57.963 -54.149  1.00  0.00     0.168 HD
ENDROOT
BRANCH   1   3
HETATM    3  C   UNL     1     -42.110  58.357 -52.548  1.00  0.00     0.179 C 
HETATM    4  S   UNL     1     -42.493  59.765 -51.733  1.00  0.00    -0.040 SA
BRANCH   3   5
HETATM    5  N   UNL     1     -41.948  57.226 -51.760  1.00  0.00    -0.299 N 
HETATM    6  C   UNL     1     -41.580  55.945 -52.153  1.00  0.00     0.257 C 
HETATM    7  O   UNL     1     -41.616  55.573 -53.324  1.00  0.00    -0.267 OA
HETATM    8  H   UNL     1     -42.062  57.424 -50.777  1.00  0.00     0.171 HD
BRANCH   6   9
HETATM    9  C   UNL     1     -41.191  54.989 -51.074  1.00  0.00     0.035 A 
HETATM   10  C   UNL     1     -40.908  53.641 -51.323  1.00  0.00     0.053 A 
HETATM   11  C   UNL     1     -40.545  52.807 -50.265  1.00  0.00     0.069 A 
HETATM   12  C   UNL     1     -40.518  53.274 -48.954  1.00  0.00     0.037 A 
HETATM   13  C   UNL     1     -40.821  54.608 -48.698  1.00  0.00     0.004 A 
HETATM   14  C   UNL     1     -41.152  55.464 -49.753  1.00  0.00     0.017 A 
BRANCH  11  15
HETATM   15  O   UNL     1     -40.280  51.490 -50.511  1.00  0.00    -0.351 OA
BRANCH  15  16
HETATM   16  C   UNL     1     -39.445  51.338 -51.667  1.00  0.00     0.175 C 
BRANCH  16  17
HETATM   17  C   UNL     1     -39.651  49.947 -52.261  1.00  0.00     0.026 C 
BRANCH  17  18
HETATM   18  C   UNL     1     -39.606  49.954 -53.790  1.00  0.00    -0.002 C 
HETATM   19  C   UNL     1     -40.307  51.178 -54.358  1.00  0.00     0.005 C 
ENDBRANCH  17  18
ENDBRANCH  16  17
ENDBRANCH  15  16
ENDBRANCH  11  15
ENDBRANCH   6   9
ENDBRANCH   3   5
ENDBRANCH   1   3
BRANCH   1  20
HETATM   20  C   UNL     1     -42.848  58.103 -54.976  1.00  0.00     0.036 A 
HETATM   21  C   UNL     1     -44.195  57.758 -54.877  1.00  0.00     0.067 A 
HETATM   22  C   UNL     1     -45.032  57.815 -56.002  1.00  0.00     0.082 A 
HETATM   23  C   UNL     1     -44.547  58.228 -57.252  1.00  0.00     0.050 A 
HETATM   24  C   UNL     1     -43.186  58.557 -57.341  1.00  0.00     0.021 A 
HETATM   25  C   UNL     1     -42.352  58.510 -56.219  1.00  0.00     0.030 A 
BRANCH  22  26
HETATM   26  O   UNL     1     -46.346  57.455 -55.854  1.00  0.00    -0.360 OA
HETATM   27  H   UNL     1     -46.836  58.178 -55.430  1.00  0.00     0.217 HD
ENDBRANCH  22  26
BRANCH  23  28
HETATM   28  C   UNL     1     -45.368  58.354 -58.456  1.00  0.00     0.183 A 
HETATM   29  O   UNL     1     -45.897  57.203 -58.983  1.00  0.00    -0.289 OA
HETATM   30  C   UNL     1     -46.662  57.633 -60.024  1.00  0.00     0.107 A 
HETATM   31  C   UNL     1     -46.572  59.011 -60.075  1.00  0.00     0.093 A 
HETATM   32  C   UNL     1     -47.418  56.851 -60.890  1.00  0.00     0.046 A 
HETATM   33  N   UNL     1     -45.757  59.462 -59.069  1.00  0.00    -0.221 NA
HETATM   34  C   UNL     1     -47.286  59.699 -61.063  1.00  0.00     0.035 A 
HETATM   35  C   UNL     1     -48.064  58.949 -61.960  1.00  0.00     0.009 A 
HETATM   36  C   UNL     1     -48.130  57.545 -61.884  1.00  0.00    -0.059 A 
HETATM   37  C   UNL     1     -49.000  56.792 -62.850  1.00  0.00     0.048 C 
ENDBRANCH  23  28
ENDBRANCH   1  20
TORSDOF 10
ENDMDL
MODEL 10
REMARK VINA RESULT:      -7.2      1.606      2.382
REMARK  10 active torsions:
REMARK  status: ('A' for Active; 'I' for Inactive)
REMARK    1  A    between atoms: C_2  and  C_3 
REMARK    2  A    between atoms: C_3  and  C_4 
REMARK    3  A    between atoms: C_4  and  O_5 
REMARK    4  A    between atoms: O_5  and  C_6 
REMARK    5  A    between atoms: C_8  and  C_9 
REMARK       I    between atoms: C_9  and  N_10 
REMARK    6  A    between atoms: N_10  and  C_11 
REMARK    7  A    between atoms: C_11  and  N_12 
REMARK    8  A    between atoms: N_12  and  C_13 
REMARK    9  A    between atoms: C_15  and  O_16 
REMARK   10  A    between atoms: C_17  and  C_18 
ROOT
HETATM    1  N   UNL     1     -45.080  59.405 -52.657  1.00  0.00    -0.333 N 
HETATM    2  H   UNL     1     -45.948  59.214 -52.152  1.00  0.00     0.168 HD
ENDROOT
BRANCH   1   3
HETATM    3  C   UNL     1     -45.066  60.649 -53.237  1.00  0.00     0.179 C 
HETATM    4  S   UNL     1     -45.690  62.092 -52.668  1.00  0.00    -0.040 SA
BRANCH   3   5
HETATM    5  N   UNL     1     -44.425  60.710 -54.466  1.00  0.00    -0.299 N 
HETATM    6  C   UNL     1     -43.062  60.681 -54.732  1.00  0.00     0.257 C 
HETATM    7  O   UNL     1     -42.212  60.879 -53.866  1.00  0.00    -0.267 OA
HETATM    8  H   UNL     1     -45.075  60.711 -55.238  1.00  0.00     0.171 HD
BRANCH   6   9
HETATM    9  C   UNL     1     -42.650  60.461 -56.151  1.00  0.00     0.035 A 
HETATM   10  C   UNL     1     -42.444  59.187 -56.691  1.00  0.00     0.053 A 
HETATM   11  C   UNL     1     -42.066  59.058 -58.028  1.00  0.00     0.069 A 
HETATM   12  C   UNL     1     -41.831  60.176 -58.822  1.00  0.00     0.037 A 
HETATM   13  C   UNL     1     -42.012  61.447 -58.283  1.00  0.00     0.004 A 
HETATM   14  C   UNL     1     -42.425  61.590 -56.955  1.00  0.00     0.017 A 
BRANCH  11  15
HETATM   15  O   UNL     1     -41.856  57.813 -58.548  1.00  0.00    -0.351 OA
BRANCH  15  16
HETATM   16  C   UNL     1     -43.098  57.141 -58.799  1.00  0.00     0.175 C 
BRANCH  16  17
HETATM   17  C   UNL     1     -42.833  55.873 -59.608  1.00  0.00     0.026 C 
BRANCH  17  18
HETATM   18  C   UNL     1     -44.082  55.002 -59.749  1.00  0.00    -0.002 C 
HETATM   19  C   UNL     1     -44.998  55.521 -60.847  1.00  0.00     0.005 C 
ENDBRANCH  17  18
ENDBRANCH  16  17
ENDBRANCH  15  16
ENDBRANCH  11  15
ENDBRANCH   6   9
ENDBRANCH   3   5
ENDBRANCH   1   3
BRANCH   1  20
HETATM   20  C   UNL     1     -44.155  58.340 -52.652  1.00  0.00     0.036 A 
HETATM   21  C   UNL     1     -43.097  58.206 -51.755  1.00  0.00     0.067 A 
HETATM   22  C   UNL     1     -42.274  57.069 -51.784  1.00  0.00     0.082 A 
HETATM   23  C   UNL     1     -42.494  56.034 -52.704  1.00  0.00     0.050 A 
HETATM   24  C   UNL     1     -43.553  56.188 -53.612  1.00  0.00     0.021 A 
HETATM   25  C   UNL     1     -44.380  57.316 -53.578  1.00  0.00     0.030 A 
BRANCH  22  26
HETATM   26  O   UNL     1     -41.240  56.992 -50.888  1.00  0.00    -0.360 OA
HETATM   27  H   UNL     1     -41.305  57.722 -50.252  1.00  0.00     0.217 HD
ENDBRANCH  22  26
BRANCH  23  28
HETATM   28  C   UNL     1     -41.707  54.802 -52.766  1.00  0.00     0.183 A 
HETATM   29  O   UNL     1     -41.441  54.163 -51.581  1.00  0.00    -0.289 OA
HETATM   30  C   UNL     1     -40.779  53.033 -51.953  1.00  0.00     0.107 A 
HETATM   31  C   UNL     1     -40.682  53.032 -53.332  1.00  0.00     0.093 A 
HETATM   32  C   UNL     1     -40.287  52.035 -51.120  1.00  0.00     0.046 A 
HETATM   33  N   UNL     1     -41.284  54.154 -53.841  1.00  0.00    -0.221 NA
HETATM   34  C   UNL     1     -40.046  51.958 -53.964  1.00  0.00     0.035 A 
HETATM   35  C   UNL     1     -39.534  50.927 -53.161  1.00  0.00     0.009 A 
HETATM   36  C   UNL     1     -39.644  50.960 -51.758  1.00  0.00    -0.059 A 
HETATM   37  C   UNL     1     -39.104  49.817 -50.946  1.00  0.00     0.048 C 
ENDBRANCH  23  28
ENDBRANCH   1  20
TORSDOF 10
ENDMDL
