MODEL 1
REMARK VINA RESULT:      -9.1      0.000      0.000
REMARK  3 active torsions:
REMARK  status: ('A' for Active; 'I' for Inactive)
REMARK    1  A    between atoms: C_3  and  C_4 
REMARK       I    between atoms: C_4  and  N_5 
REMARK    2  A    between atoms: N_5  and  N_6 
REMARK       I    between atoms: N_6  and  C_7 
REMARK    3  A    between atoms: C_7  and  C_8 
ROOT
HETATM    1  N   UNL     1     -41.558  55.131 -54.095  1.00  0.00    -0.263 N 
HETATM    2  C   UNL     1     -40.502  54.247 -54.078  1.00  0.00     0.272 C 
HETATM    3  O   UNL     1     -39.723  54.163 -55.029  1.00  0.00    -0.266 OA
HETATM    4  H   UNL     1     -42.227  55.234 -53.334  1.00  0.00     0.190 HD
ENDROOT
BRANCH   1   5
HETATM    5  N   UNL     1     -41.748  55.945 -55.216  1.00  0.00    -0.261 N 
HETATM    6  C   UNL     1     -42.597  55.531 -56.225  1.00  0.00     0.294 C 
HETATM    7  O   UNL     1     -43.196  54.457 -56.160  1.00  0.00    -0.264 OA
HETATM    8  H   UNL     1     -41.246  56.830 -55.258  1.00  0.00     0.190 HD
BRANCH   6   9
HETATM    9  C   UNL     1     -42.703  56.463 -57.331  1.00  0.00     0.152 A 
HETATM   10  C   UNL     1     -43.267  56.344 -58.598  1.00  0.00    -0.009 A 
HETATM   11  C   UNL     1     -43.949  55.166 -59.192  1.00  0.00     0.052 C 
HETATM   12  C   UNL     1     -43.067  57.606 -59.240  1.00  0.00     0.007 A 
HETATM   13  C   UNL     1     -42.394  58.404 -58.326  1.00  0.00     0.087 A 
HETATM   14  C   UNL     1     -43.386  58.154 -60.496  1.00  0.00     0.015 A 
HETATM   15  O   UNL     1     -42.172  57.718 -57.175  1.00  0.00    -0.304 OA
HETATM   16  C   UNL     1     -42.008  59.720 -58.568  1.00  0.00     0.038 A 
HETATM   17  C   UNL     1     -42.334  60.246 -59.822  1.00  0.00     0.003 A 
HETATM   18  C   UNL     1     -43.012  59.477 -60.772  1.00  0.00     0.001 A 
ENDBRANCH   6   9
ENDBRANCH   1   5
BRANCH   2  19
HETATM   19  C   UNL     1     -40.354  53.420 -52.878  1.00  0.00     0.064 A 
HETATM   20  C   UNL     1     -40.084  52.015 -52.698  1.00  0.00     0.046 A 
HETATM   21  C   UNL     1     -40.050  51.765 -51.319  1.00  0.00     0.046 A 
HETATM   22  C   UNL     1     -39.862  50.909 -53.547  1.00  0.00     0.130 A 
HETATM   23  C   UNL     1     -39.811  50.495 -50.776  1.00  0.00     0.030 A 
HETATM   24  N   UNL     1     -40.287  52.959 -50.682  1.00  0.00    -0.364 N 
HETATM   25  C   UNL     1     -39.596  49.431 -51.657  1.00  0.00     0.005 A 
HETATM   26  C   UNL     1     -39.621  49.635 -53.032  1.00  0.00     0.043 A 
HETATM   27  H   UNL     1     -40.321  53.079 -49.678  1.00  0.00     0.165 HD
HETATM   28  C   UNL     1     -40.469  53.951 -51.600  1.00  0.00     0.106 A 
HETATM   29  F   UNL     1     -39.877  51.059 -54.879  1.00  0.00    -0.205 F 
ENDBRANCH   2  19
TORSDOF 3
ENDMDL
MODEL 2
REMARK VINA RESULT:      -8.7      3.046      9.242
REMARK  3 active torsions:
REMARK  status: ('A' for Active; 'I' for Inactive)
REMARK    1  A    between atoms: C_3  and  C_4 
REMARK       I    between atoms: C_4  and  N_5 
REMARK    2  A    between atoms: N_5  and  N_6 
REMARK       I    between atoms: N_6  and  C_7 
REMARK    3  A    between atoms: C_7  and  C_8 
ROOT
HETATM    1  N   UNL     1     -43.986  56.364 -56.524  1.00  0.00    -0.263 N 
HETATM    2  C   UNL     1     -43.776  56.472 -57.880  1.00  0.00     0.272 C 
HETATM    3  O   UNL     1     -42.954  55.760 -58.459  1.00  0.00    -0.266 OA
HETATM    4  H   UNL     1     -44.653  56.931 -56.003  1.00  0.00     0.190 HD
ENDROOT
BRANCH   1   5
HETATM    5  N   UNL     1     -43.249  55.427 -55.791  1.00  0.00    -0.261 N 
HETATM    6  C   UNL     1     -42.392  55.860 -54.797  1.00  0.00     0.294 C 
HETATM    7  O   UNL     1     -42.263  57.057 -54.536  1.00  0.00    -0.264 OA
HETATM    8  H   UNL     1     -43.364  54.441 -56.017  1.00  0.00     0.190 HD
BRANCH   6   9
HETATM    9  C   UNL     1     -41.685  54.792 -54.117  1.00  0.00     0.152 A 
HETATM   10  C   UNL     1     -41.214  54.670 -52.813  1.00  0.00    -0.009 A 
HETATM   11  C   UNL     1     -41.312  55.655 -51.705  1.00  0.00     0.052 C 
HETATM   12  C   UNL     1     -40.602  53.380 -52.732  1.00  0.00     0.007 A 
HETATM   13  C   UNL     1     -40.739  52.807 -53.989  1.00  0.00     0.087 A 
HETATM   14  C   UNL     1     -39.950  52.640 -51.729  1.00  0.00     0.015 A 
HETATM   15  O   UNL     1     -41.390  53.656 -54.825  1.00  0.00    -0.304 OA
HETATM   16  C   UNL     1     -40.271  51.540 -54.328  1.00  0.00     0.038 A 
HETATM   17  C   UNL     1     -39.626  50.820 -53.317  1.00  0.00     0.003 A 
HETATM   18  C   UNL     1     -39.467  51.360 -52.038  1.00  0.00     0.001 A 
ENDBRANCH   6   9
ENDBRANCH   1   5
BRANCH   2  19
HETATM   19  C   UNL     1     -44.576  57.471 -58.594  1.00  0.00     0.064 A 
HETATM   20  C   UNL     1     -45.646  57.349 -59.552  1.00  0.00     0.046 A 
HETATM   21  C   UNL     1     -46.045  58.644 -59.906  1.00  0.00     0.046 A 
HETATM   22  C   UNL     1     -46.333  56.282 -60.173  1.00  0.00     0.130 A 
HETATM   23  C   UNL     1     -47.071  58.906 -60.826  1.00  0.00     0.030 A 
HETATM   24  N   UNL     1     -45.260  59.521 -59.198  1.00  0.00    -0.364 N 
HETATM   25  C   UNL     1     -47.722  57.818 -61.414  1.00  0.00     0.005 A 
HETATM   26  C   UNL     1     -47.357  56.516 -61.092  1.00  0.00     0.043 A 
HETATM   27  H   UNL     1     -45.326  60.529 -59.255  1.00  0.00     0.165 HD
HETATM   28  C   UNL     1     -44.382  58.833 -58.413  1.00  0.00     0.106 A 
HETATM   29  F   UNL     1     -46.016  55.011 -59.892  1.00  0.00    -0.205 F 
ENDBRANCH   2  19
TORSDOF 3
ENDMDL
MODEL 3
REMARK VINA RESULT:      -8.6      2.516      9.231
REMARK  3 active torsions:
REMARK  status: ('A' for Active; 'I' for Inactive)
REMARK    1  A    between atoms: C_3  and  C_4 
REMARK       I    between atoms: C_4  and  N_5 
REMARK    2  A    between atoms: N_5  and  N_6 
REMARK       I    between atoms: N_6  and  C_7 
REMARK    3  A    between atoms: C_7  and  C_8 
ROOT
HETATM    1  N   UNL     1     -42.569  56.549 -56.946  1.00  0.00    -0.263 N 
HETATM    2  C   UNL     1     -43.345  56.226 -58.036  1.00  0.00     0.272 C 
HETATM    3  O   UNL     1     -43.550  55.052 -58.351  1.00  0.00    -0.266 OA
HETATM    4  H   UNL     1     -42.372  57.503 -56.650  1.00  0.00     0.190 HD
ENDROOT
BRANCH   1   5
HETATM    5  N   UNL     1     -42.001  55.522 -56.184  1.00  0.00    -0.261 N 
HETATM    6  C   UNL     1     -42.062  55.581 -54.805  1.00  0.00     0.294 C 
HETATM    7  O   UNL     1     -42.610  56.520 -54.226  1.00  0.00    -0.264 OA
HETATM    8  H   UNL     1     -41.551  54.752 -56.676  1.00  0.00     0.190 HD
BRANCH   6   9
HETATM    9  C   UNL     1     -41.434  54.459 -54.135  1.00  0.00     0.152 A 
HETATM   10  C   UNL     1     -41.002  54.281 -52.824  1.00  0.00    -0.009 A 
HETATM   11  C   UNL     1     -41.068  55.245 -51.696  1.00  0.00     0.052 C 
HETATM   12  C   UNL     1     -40.468  52.956 -52.760  1.00  0.00     0.007 A 
HETATM   13  C   UNL     1     -40.608  52.420 -54.033  1.00  0.00     0.087 A 
HETATM   14  C   UNL     1     -39.883  52.157 -51.760  1.00  0.00     0.015 A 
HETATM   15  O   UNL     1     -41.188  53.323 -54.863  1.00  0.00    -0.304 OA
HETATM   16  C   UNL     1     -40.206  51.135 -54.392  1.00  0.00     0.038 A 
HETATM   17  C   UNL     1     -39.627  50.357 -53.383  1.00  0.00     0.003 A 
HETATM   18  C   UNL     1     -39.468  50.858 -52.088  1.00  0.00     0.001 A 
ENDBRANCH   6   9
ENDBRANCH   1   5
BRANCH   2  19
HETATM   19  C   UNL     1     -43.912  57.343 -58.796  1.00  0.00     0.064 A 
HETATM   20  C   UNL     1     -43.337  58.253 -59.755  1.00  0.00     0.046 A 
HETATM   21  C   UNL     1     -44.350  59.130 -60.165  1.00  0.00     0.046 A 
HETATM   22  C   UNL     1     -42.062  58.443 -60.332  1.00  0.00     0.130 A 
HETATM   23  C   UNL     1     -44.144  60.155 -61.100  1.00  0.00     0.030 A 
HETATM   24  N   UNL     1     -45.494  58.776 -59.492  1.00  0.00    -0.364 N 
HETATM   25  C   UNL     1     -42.865  60.304 -61.643  1.00  0.00     0.005 A 
HETATM   26  C   UNL     1     -41.831  59.456 -61.264  1.00  0.00     0.043 A 
HETATM   27  H   UNL     1     -46.388  59.239 -59.592  1.00  0.00     0.165 HD
HETATM   28  C   UNL     1     -45.245  57.713 -58.674  1.00  0.00     0.106 A 
HETATM   29  F   UNL     1     -41.036  57.649 -59.996  1.00  0.00    -0.205 F 
ENDBRANCH   2  19
TORSDOF 3
ENDMDL
MODEL 4
REMARK VINA RESULT:      -8.3      7.565     10.202
REMARK  3 active torsions:
REMARK  status: ('A' for Active; 'I' for Inactive)
REMARK    1  A    between atoms: C_3  and  C_4 
REMARK       I    between atoms: C_4  and  N_5 
REMARK    2  A    between atoms: N_5  and  N_6 
REMARK       I    between atoms: N_6  and  C_7 
REMARK    3  A    between atoms: C_7  and  C_8 
ROOT
HETATM    1  N   UNL     1     -43.814  59.689 -50.606  1.00  0.00    -0.263 N 
HETATM    2  C   UNL     1     -45.125  59.789 -50.198  1.00  0.00     0.272 C 
HETATM    3  O   UNL     1     -45.876  58.812 -50.214  1.00  0.00    -0.266 OA
HETATM    4  H   UNL     1     -43.158  60.468 -50.611  1.00  0.00     0.190 HD
ENDROOT
BRANCH   1   5
HETATM    5  N   UNL     1     -43.329  58.454 -51.049  1.00  0.00    -0.261 N 
HETATM    6  C   UNL     1     -41.967  58.264 -51.185  1.00  0.00     0.294 C 
HETATM    7  O   UNL     1     -41.164  59.160 -50.921  1.00  0.00    -0.264 OA
HETATM    8  H   UNL     1     -44.003  57.722 -51.264  1.00  0.00     0.190 HD
BRANCH   6   9
HETATM    9  C   UNL     1     -41.596  56.943 -51.655  1.00  0.00     0.152 A 
HETATM   10  C   UNL     1     -41.327  55.756 -50.980  1.00  0.00    -0.009 A 
HETATM   11  C   UNL     1     -41.349  55.507 -49.516  1.00  0.00     0.052 C 
HETATM   12  C   UNL     1     -41.021  54.789 -51.988  1.00  0.00     0.007 A 
HETATM   13  C   UNL     1     -41.121  55.451 -53.204  1.00  0.00     0.087 A 
HETATM   14  C   UNL     1     -40.673  53.425 -51.997  1.00  0.00     0.015 A 
HETATM   15  O   UNL     1     -41.465  56.749 -53.007  1.00  0.00    -0.304 OA
HETATM   16  C   UNL     1     -40.897  54.854 -54.442  1.00  0.00     0.038 A 
HETATM   17  C   UNL     1     -40.552  53.498 -54.430  1.00  0.00     0.003 A 
HETATM   18  C   UNL     1     -40.441  52.794 -53.228  1.00  0.00     0.001 A 
ENDBRANCH   6   9
ENDBRANCH   1   5
BRANCH   2  19
HETATM   19  C   UNL     1     -45.576  61.107 -49.745  1.00  0.00     0.064 A 
HETATM   20  C   UNL     1     -46.013  61.593 -48.460  1.00  0.00     0.046 A 
HETATM   21  C   UNL     1     -46.330  62.949 -48.607  1.00  0.00     0.046 A 
HETATM   22  C   UNL     1     -46.181  61.038 -47.172  1.00  0.00     0.130 A 
HETATM   23  C   UNL     1     -46.793  63.747 -47.551  1.00  0.00     0.030 A 
HETATM   24  N   UNL     1     -46.098  63.283 -49.920  1.00  0.00    -0.364 N 
HETATM   25  C   UNL     1     -46.944  63.154 -46.295  1.00  0.00     0.005 A 
HETATM   26  C   UNL     1     -46.640  61.811 -46.104  1.00  0.00     0.043 A 
HETATM   27  H   UNL     1     -46.242  64.204 -50.314  1.00  0.00     0.165 HD
HETATM   28  C   UNL     1     -45.649  62.194 -50.607  1.00  0.00     0.106 A 
HETATM   29  F   UNL     1     -45.901  59.748 -46.943  1.00  0.00    -0.205 F 
ENDBRANCH   2  19
TORSDOF 3
ENDMDL
MODEL 5
REMARK VINA RESULT:      -8.2      1.692      2.280
REMARK  3 active torsions:
REMARK  status: ('A' for Active; 'I' for Inactive)
REMARK    1  A    between atoms: C_3  and  C_4 
REMARK       I    between atoms: C_4  and  N_5 
REMARK    2  A    between atoms: N_5  and  N_6 
REMARK       I    between atoms: N_6  and  C_7 
REMARK    3  A    between atoms: C_7  and  C_8 
ROOT
HETATM    1  N   UNL     1     -42.122  56.026 -55.452  1.00  0.00    -0.263 N 
HETATM    2  C   UNL     1     -41.491  56.503 -54.326  1.00  0.00     0.272 C 
HETATM    3  O   UNL     1     -41.179  57.691 -54.222  1.00  0.00    -0.266 OA
HETATM    4  H   UNL     1     -42.397  55.054 -55.583  1.00  0.00     0.190 HD
ENDROOT
BRANCH   1   5
HETATM    5  N   UNL     1     -42.412  56.909 -56.498  1.00  0.00    -0.261 N 
HETATM    6  C   UNL     1     -43.006  56.430 -57.650  1.00  0.00     0.294 C 
HETATM    7  O   UNL     1     -43.291  55.239 -57.779  1.00  0.00    -0.264 OA
HETATM    8  H   UNL     1     -42.171  57.891 -56.378  1.00  0.00     0.190 HD
BRANCH   6   9
HETATM    9  C   UNL     1     -43.250  57.445 -58.657  1.00  0.00     0.152 A 
HETATM   10  C   UNL     1     -44.426  57.967 -59.187  1.00  0.00    -0.009 A 
HETATM   11  C   UNL     1     -45.826  57.607 -58.847  1.00  0.00     0.052 C 
HETATM   12  C   UNL     1     -44.026  58.949 -60.147  1.00  0.00     0.007 A 
HETATM   13  C   UNL     1     -42.638  58.955 -60.139  1.00  0.00     0.087 A 
HETATM   14  C   UNL     1     -44.692  59.831 -61.018  1.00  0.00     0.015 A 
HETATM   15  O   UNL     1     -42.167  58.050 -59.244  1.00  0.00    -0.304 OA
HETATM   16  C   UNL     1     -41.853  59.780 -60.941  1.00  0.00     0.038 A 
HETATM   17  C   UNL     1     -42.535  60.650 -61.800  1.00  0.00     0.003 A 
HETATM   18  C   UNL     1     -43.931  60.675 -61.839  1.00  0.00     0.001 A 
ENDBRANCH   6   9
ENDBRANCH   1   5
BRANCH   2  19
HETATM   19  C   UNL     1     -41.212  55.532 -53.264  1.00  0.00     0.064 A 
HETATM   20  C   UNL     1     -40.670  54.197 -53.292  1.00  0.00     0.046 A 
HETATM   21  C   UNL     1     -40.624  53.733 -51.970  1.00  0.00     0.046 A 
HETATM   22  C   UNL     1     -40.209  53.311 -54.290  1.00  0.00     0.130 A 
HETATM   23  C   UNL     1     -40.149  52.460 -51.621  1.00  0.00     0.030 A 
HETATM   24  N   UNL     1     -41.113  54.736 -51.168  1.00  0.00    -0.364 N 
HETATM   25  C   UNL     1     -39.703  51.620 -52.644  1.00  0.00     0.005 A 
HETATM   26  C   UNL     1     -39.731  52.040 -53.969  1.00  0.00     0.043 A 
HETATM   27  H   UNL     1     -41.196  54.679 -50.162  1.00  0.00     0.165 HD
HETATM   28  C   UNL     1     -41.465  55.812 -51.928  1.00  0.00     0.106 A 
HETATM   29  F   UNL     1     -40.217  53.674 -55.580  1.00  0.00    -0.205 F 
ENDBRANCH   2  19
TORSDOF 3
ENDMDL
MODEL 6
REMARK VINA RESULT:      -8.2      2.916      8.835
REMARK  3 active torsions:
REMARK  status: ('A' for Active; 'I' for Inactive)
REMARK    1  A    between atoms: C_3  and  C_4 
REMARK       I    between atoms: C_4  and  N_5 
REMARK    2  A    between atoms: N_5  and  N_6 
REMARK       I    between atoms: N_6  and  C_7 
REMARK    3  A    between atoms: C_7  and  C_8 
ROOT
HETATM    1  N   UNL     1     -44.231  56.529 -55.657  1.00  0.00    -0.263 N 
HETATM    2  C   UNL     1     -43.668  57.271 -56.671  1.00  0.00     0.272 C 
HETATM    3  O   UNL     1     -42.484  57.610 -56.635  1.00  0.00    -0.266 OA
HETATM    4  H   UNL     1     -45.204  56.228 -55.644  1.00  0.00     0.190 HD
ENDROOT
BRANCH   1   5
HETATM    5  N   UNL     1     -43.441  56.158 -54.564  1.00  0.00    -0.261 N 
HETATM    6  C   UNL     1     -43.063  54.838 -54.412  1.00  0.00     0.294 C 
HETATM    7  O   UNL     1     -43.403  53.975 -55.222  1.00  0.00    -0.264 OA
HETATM    8  H   UNL     1     -43.166  56.882 -53.901  1.00  0.00     0.190 HD
BRANCH   6   9
HETATM    9  C   UNL     1     -42.250  54.585 -53.238  1.00  0.00     0.152 A 
HETATM   10  C   UNL     1     -41.084  53.847 -53.054  1.00  0.00    -0.009 A 
HETATM   11  C   UNL     1     -40.317  53.075 -54.065  1.00  0.00     0.052 C 
HETATM   12  C   UNL     1     -40.749  53.975 -51.670  1.00  0.00     0.007 A 
HETATM   13  C   UNL     1     -41.732  54.776 -51.106  1.00  0.00     0.087 A 
HETATM   14  C   UNL     1     -39.719  53.497 -50.839  1.00  0.00     0.015 A 
HETATM   15  O   UNL     1     -42.638  55.144 -52.047  1.00  0.00    -0.304 OA
HETATM   16  C   UNL     1     -41.769  55.144 -49.763  1.00  0.00     0.038 A 
HETATM   17  C   UNL     1     -40.736  54.659 -48.953  1.00  0.00     0.003 A 
HETATM   18  C   UNL     1     -39.727  53.849 -49.481  1.00  0.00     0.001 A 
ENDBRANCH   6   9
ENDBRANCH   1   5
BRANCH   2  19
HETATM   19  C   UNL     1     -44.544  57.631 -57.789  1.00  0.00     0.064 A 
HETATM   20  C   UNL     1     -44.992  56.895 -58.945  1.00  0.00     0.046 A 
HETATM   21  C   UNL     1     -45.825  57.741 -59.688  1.00  0.00     0.046 A 
HETATM   22  C   UNL     1     -44.788  55.595 -59.459  1.00  0.00     0.130 A 
HETATM   23  C   UNL     1     -46.441  57.352 -60.886  1.00  0.00     0.030 A 
HETATM   24  N   UNL     1     -45.888  58.941 -59.021  1.00  0.00    -0.364 N 
HETATM   25  C   UNL     1     -46.210  56.056 -61.355  1.00  0.00     0.005 A 
HETATM   26  C   UNL     1     -45.391  55.183 -60.648  1.00  0.00     0.043 A 
HETATM   27  H   UNL     1     -46.420  59.744 -59.329  1.00  0.00     0.165 HD
HETATM   28  C   UNL     1     -45.129  58.886 -57.889  1.00  0.00     0.106 A 
HETATM   29  F   UNL     1     -44.006  54.720 -58.811  1.00  0.00    -0.205 F 
ENDBRANCH   2  19
TORSDOF 3
ENDMDL
MODEL 7
REMARK VINA RESULT:      -8.1      3.409      9.382
REMARK  3 active torsions:
REMARK  status: ('A' for Active; 'I' for Inactive)
REMARK    1  A    between atoms: C_3  and  C_4 
REMARK       I    between atoms: C_4  and  N_5 
REMARK    2  A    between atoms: N_5  and  N_6 
REMARK       I    between atoms: N_6  and  C_7 
REMARK    3  A    between atoms: C_7  and  C_8 
ROOT
HETATM    1  N   UNL     1     -43.862  56.783 -56.945  1.00  0.00    -0.263 N 
HETATM    2  C   UNL     1     -44.070  56.453 -58.265  1.00  0.00     0.272 C 
HETATM    3  O   UNL     1     -43.694  55.371 -58.721  1.00  0.00    -0.266 OA
HETATM    4  H   UNL     1     -44.154  57.664 -56.526  1.00  0.00     0.190 HD
ENDROOT
BRANCH   1   5
HETATM    5  N   UNL     1     -43.210  55.872 -56.108  1.00  0.00    -0.261 N 
HETATM    6  C   UNL     1     -42.225  56.319 -55.249  1.00  0.00     0.294 C 
HETATM    7  O   UNL     1     -41.907  57.508 -55.199  1.00  0.00    -0.264 OA
HETATM    8  H   UNL     1     -43.481  54.891 -56.160  1.00  0.00     0.190 HD
BRANCH   6   9
HETATM    9  C   UNL     1     -41.625  55.276 -54.439  1.00  0.00     0.152 A 
HETATM   10  C   UNL     1     -41.340  55.200 -53.079  1.00  0.00    -0.009 A 
HETATM   11  C   UNL     1     -41.587  56.224 -52.031  1.00  0.00     0.052 C 
HETATM   12  C   UNL     1     -40.752  53.914 -52.869  1.00  0.00     0.007 A 
HETATM   13  C   UNL     1     -40.715  53.297 -54.111  1.00  0.00     0.087 A 
HETATM   14  C   UNL     1     -40.250  53.210 -51.758  1.00  0.00     0.015 A 
HETATM   15  O   UNL     1     -41.238  54.115 -55.060  1.00  0.00    -0.304 OA
HETATM   16  C   UNL     1     -40.210  52.018 -54.337  1.00  0.00     0.038 A 
HETATM   17  C   UNL     1     -39.716  51.335 -53.220  1.00  0.00     0.003 A 
HETATM   18  C   UNL     1     -39.735  51.920 -51.952  1.00  0.00     0.001 A 
ENDBRANCH   6   9
ENDBRANCH   1   5
BRANCH   2  19
HETATM   19  C   UNL     1     -44.758  57.446 -59.094  1.00  0.00     0.064 A 
HETATM   20  C   UNL     1     -45.928  58.255 -58.864  1.00  0.00     0.046 A 
HETATM   21  C   UNL     1     -46.134  59.036 -60.010  1.00  0.00     0.046 A 
HETATM   22  C   UNL     1     -46.853  58.422 -57.810  1.00  0.00     0.130 A 
HETATM   23  C   UNL     1     -47.192  59.946 -60.137  1.00  0.00     0.030 A 
HETATM   24  N   UNL     1     -45.136  58.723 -60.901  1.00  0.00    -0.364 N 
HETATM   25  C   UNL     1     -48.082  60.077 -59.068  1.00  0.00     0.005 A 
HETATM   26  C   UNL     1     -47.915  59.322 -57.912  1.00  0.00     0.043 A 
HETATM   27  H   UNL     1     -45.033  59.135 -61.819  1.00  0.00     0.165 HD
HETATM   28  C   UNL     1     -44.311  57.778 -60.366  1.00  0.00     0.106 A 
HETATM   29  F   UNL     1     -46.731  57.716 -56.678  1.00  0.00    -0.205 F 
ENDBRANCH   2  19
TORSDOF 3
ENDMDL
MODEL 8
REMARK VINA RESULT:      -8.1      5.767      6.614
REMARK  3 active torsions:
REMARK  status: ('A' for Active; 'I' for Inactive)
REMARK    1  A    between atoms: C_3  and  C_4 
REMARK       I    between atoms: C_4  and  N_5 
REMARK    2  A    between atoms: N_5  and  N_6 
REMARK       I    between atoms: N_6  and  C_7 
REMARK    3  A    between atoms: C_7  and  C_8 
ROOT
HETATM    1  N   UNL     1     -42.404  56.085 -51.054  1.00  0.00    -0.263 N 
HETATM    2  C   UNL     1     -41.281  55.589 -50.432  1.00  0.00     0.272 C 
HETATM    3  O   UNL     1     -40.690  56.237 -49.566  1.00  0.00    -0.266 OA
HETATM    4  H   UNL     1     -42.924  55.588 -51.775  1.00  0.00     0.190 HD
ENDROOT
BRANCH   1   5
HETATM    5  N   UNL     1     -42.880  57.351 -50.694  1.00  0.00    -0.261 N 
HETATM    6  C   UNL     1     -42.878  58.371 -51.626  1.00  0.00     0.294 C 
HETATM    7  O   UNL     1     -42.467  58.192 -52.773  1.00  0.00    -0.264 OA
HETATM    8  H   UNL     1     -43.217  57.485 -49.742  1.00  0.00     0.190 HD
BRANCH   6   9
HETATM    9  C   UNL     1     -43.392  59.632 -51.127  1.00  0.00     0.152 A 
HETATM   10  C   UNL     1     -44.670  60.030 -50.744  1.00  0.00    -0.009 A 
HETATM   11  C   UNL     1     -45.920  59.228 -50.744  1.00  0.00     0.052 C 
HETATM   12  C   UNL     1     -44.552  61.395 -50.335  1.00  0.00     0.007 A 
HETATM   13  C   UNL     1     -43.217  61.736 -50.499  1.00  0.00     0.087 A 
HETATM   14  C   UNL     1     -45.436  62.374 -49.843  1.00  0.00     0.015 A 
HETATM   15  O   UNL     1     -42.516  60.676 -50.978  1.00  0.00    -0.304 OA
HETATM   16  C   UNL     1     -42.686  62.990 -50.209  1.00  0.00     0.038 A 
HETATM   17  C   UNL     1     -43.581  63.949 -49.721  1.00  0.00     0.003 A 
HETATM   18  C   UNL     1     -44.933  63.648 -49.541  1.00  0.00     0.001 A 
ENDBRANCH   6   9
ENDBRANCH   1   5
BRANCH   2  19
HETATM   19  C   UNL     1     -40.828  54.260 -50.850  1.00  0.00     0.064 A 
HETATM   20  C   UNL     1     -40.565  53.690 -52.148  1.00  0.00     0.046 A 
HETATM   21  C   UNL     1     -40.153  52.366 -51.953  1.00  0.00     0.046 A 
HETATM   22  C   UNL     1     -40.629  54.143 -53.485  1.00  0.00     0.130 A 
HETATM   23  C   UNL     1     -39.813  51.505 -53.006  1.00  0.00     0.030 A 
HETATM   24  N   UNL     1     -40.160  52.131 -50.599  1.00  0.00    -0.364 N 
HETATM   25  C   UNL     1     -39.891  51.998 -54.311  1.00  0.00     0.005 A 
HETATM   26  C   UNL     1     -40.296  53.307 -54.551  1.00  0.00     0.043 A 
HETATM   27  H   UNL     1     -39.906  51.254 -50.165  1.00  0.00     0.165 HD
HETATM   28  C   UNL     1     -40.561  53.252 -49.933  1.00  0.00     0.106 A 
HETATM   29  F   UNL     1     -41.013  55.396 -53.762  1.00  0.00    -0.205 F 
ENDBRANCH   2  19
TORSDOF 3
ENDMDL
MODEL 9
REMARK VINA RESULT:      -8.1      1.825      2.715
REMARK  3 active torsions:
REMARK  status: ('A' for Active; 'I' for Inactive)
REMARK    1  A    between atoms: C_3  and  C_4 
REMARK       I    between atoms: C_4  and  N_5 
REMARK    2  A    between atoms: N_5  and  N_6 
REMARK       I    between atoms: N_6  and  C_7 
REMARK    3  A    between atoms: C_7  and  C_8 
ROOT
HETATM    1  N   UNL     1     -41.236  55.536 -54.163  1.00  0.00    -0.263 N 
HETATM    2  C   UNL     1     -40.460  54.400 -54.105  1.00  0.00     0.272 C 
HETATM    3  O   UNL     1     -39.835  54.002 -55.090  1.00  0.00    -0.266 OA
HETATM    4  H   UNL     1     -41.771  55.901 -53.376  1.00  0.00     0.190 HD
ENDROOT
BRANCH   1   5
HETATM    5  N   UNL     1     -41.317  56.247 -55.364  1.00  0.00    -0.261 N 
HETATM    6  C   UNL     1     -42.551  56.653 -55.836  1.00  0.00     0.294 C 
HETATM    7  O   UNL     1     -43.587  56.405 -55.219  1.00  0.00    -0.264 OA
HETATM    8  H   UNL     1     -40.452  56.445 -55.865  1.00  0.00     0.190 HD
BRANCH   6   9
HETATM    9  C   UNL     1     -42.497  57.377 -57.091  1.00  0.00     0.152 A 
HETATM   10  C   UNL     1     -42.795  57.000 -58.398  1.00  0.00    -0.009 A 
HETATM   11  C   UNL     1     -43.272  55.681 -58.886  1.00  0.00     0.052 C 
HETATM   12  C   UNL     1     -42.552  58.153 -59.207  1.00  0.00     0.007 A 
HETATM   13  C   UNL     1     -42.122  59.150 -58.343  1.00  0.00     0.087 A 
HETATM   14  C   UNL     1     -42.653  58.456 -60.578  1.00  0.00     0.015 A 
HETATM   15  O   UNL     1     -42.087  58.685 -57.068  1.00  0.00    -0.304 OA
HETATM   16  C   UNL     1     -41.780  60.440 -58.742  1.00  0.00     0.038 A 
HETATM   17  C   UNL     1     -41.887  60.721 -60.108  1.00  0.00     0.003 A 
HETATM   18  C   UNL     1     -42.316  59.746 -61.013  1.00  0.00     0.001 A 
ENDBRANCH   6   9
ENDBRANCH   1   5
BRANCH   2  19
HETATM   19  C   UNL     1     -40.415  53.696 -52.821  1.00  0.00     0.064 A 
HETATM   20  C   UNL     1     -40.633  54.138 -51.466  1.00  0.00     0.046 A 
HETATM   21  C   UNL     1     -40.458  53.030 -50.627  1.00  0.00     0.046 A 
HETATM   22  C   UNL     1     -40.960  55.361 -50.840  1.00  0.00     0.130 A 
HETATM   23  C   UNL     1     -40.593  53.095 -49.233  1.00  0.00     0.030 A 
HETATM   24  N   UNL     1     -40.148  51.957 -51.427  1.00  0.00    -0.364 N 
HETATM   25  C   UNL     1     -40.918  54.327 -48.659  1.00  0.00     0.005 A 
HETATM   26  C   UNL     1     -41.101  55.452 -49.455  1.00  0.00     0.043 A 
HETATM   27  H   UNL     1     -39.968  51.020 -51.090  1.00  0.00     0.165 HD
HETATM   28  C   UNL     1     -40.121  52.342 -52.735  1.00  0.00     0.106 A 
HETATM   29  F   UNL     1     -41.145  56.471 -51.568  1.00  0.00    -0.205 F 
ENDBRANCH   2  19
TORSDOF 3
ENDMDL
MODEL 10
REMARK VINA RESULT:      -8.1      2.262      3.432
REMARK  3 active torsions:
REMARK  status: ('A' for Active; 'I' for Inactive)
REMARK    1  A    between atoms: C_3  and  C_4 
REMARK       I    between atoms: C_4  and  N_5 
REMARK    2  A    between atoms: N_5  and  N_6 
REMARK       I    between atoms: N_6  and  C_7 
REMARK    3  A    between atoms: C_7  and  C_8 
ROOT
HETATM    1  N   UNL     1     -41.633  55.140 -55.976  1.00  0.00    -0.263 N 
HETATM    2  C   UNL     1     -42.271  54.371 -55.029  1.00  0.00     0.272 C 
HETATM    3  O   UNL     1     -43.500  54.294 -54.990  1.00  0.00    -0.266 OA
HETATM    4  H   UNL     1     -40.621  55.236 -56.045  1.00  0.00     0.190 HD
ENDROOT
BRANCH   1   5
HETATM    5  N   UNL     1     -42.398  55.848 -56.909  1.00  0.00    -0.261 N 
HETATM    6  C   UNL     1     -42.651  57.191 -56.707  1.00  0.00     0.294 C 
HETATM    7  O   UNL     1     -42.214  57.786 -55.721  1.00  0.00    -0.264 OA
HETATM    8  H   UNL     1     -42.754  55.344 -57.720  1.00  0.00     0.190 HD
BRANCH   6   9
HETATM    9  C   UNL     1     -43.457  57.806 -57.743  1.00  0.00     0.152 A 
HETATM   10  C   UNL     1     -43.197  58.843 -58.634  1.00  0.00    -0.009 A 
HETATM   11  C   UNL     1     -41.954  59.645 -58.771  1.00  0.00     0.052 C 
HETATM   12  C   UNL     1     -44.381  58.996 -59.421  1.00  0.00     0.007 A 
HETATM   13  C   UNL     1     -45.281  58.048 -58.955  1.00  0.00     0.087 A 
HETATM   14  C   UNL     1     -44.783  59.836 -60.476  1.00  0.00     0.015 A 
HETATM   15  O   UNL     1     -44.728  57.330 -57.944  1.00  0.00    -0.304 OA
HETATM   16  C   UNL     1     -46.565  57.869 -59.464  1.00  0.00     0.038 A 
HETATM   17  C   UNL     1     -46.945  58.714 -60.513  1.00  0.00     0.003 A 
HETATM   18  C   UNL     1     -46.070  59.682 -61.011  1.00  0.00     0.001 A 
ENDBRANCH   6   9
ENDBRANCH   1   5
BRANCH   2  19
HETATM   19  C   UNL     1     -41.418  53.654 -54.078  1.00  0.00     0.064 A 
HETATM   20  C   UNL     1     -41.046  53.930 -52.712  1.00  0.00     0.046 A 
HETATM   21  C   UNL     1     -40.200  52.897 -52.289  1.00  0.00     0.046 A 
HETATM   22  C   UNL     1     -41.327  54.945 -51.771  1.00  0.00     0.130 A 
HETATM   23  C   UNL     1     -39.642  52.841 -51.003  1.00  0.00     0.030 A 
HETATM   24  N   UNL     1     -40.058  52.027 -53.343  1.00  0.00    -0.364 N 
HETATM   25  C   UNL     1     -39.949  53.868 -50.107  1.00  0.00     0.005 A 
HETATM   26  C   UNL     1     -40.785  54.912 -50.486  1.00  0.00     0.043 A 
HETATM   27  H   UNL     1     -39.500  51.183 -53.323  1.00  0.00     0.165 HD
HETATM   28  C   UNL     1     -40.780  52.468 -54.413  1.00  0.00     0.106 A 
HETATM   29  F   UNL     1     -42.127  55.970 -52.093  1.00  0.00    -0.205 F 
ENDBRANCH   2  19
TORSDOF 3
ENDMDL
