MODEL 1
REMARK VINA RESULT:      -8.5      0.000      0.000
REMARK  7 active torsions:
REMARK  status: ('A' for Active; 'I' for Inactive)
REMARK    1  A    between atoms: C_3  and  C_4 
REMARK    2  A    between atoms: C_4  and  N_5 
REMARK    3  A    between atoms: C_9  and  C_28 
REMARK    4  A    between atoms: C_9  and  C_10 
REMARK    5  A    between atoms: N_13  and  C_15 
REMARK    6  A    between atoms: C_15  and  C_16 
REMARK    7  A    between atoms: C_28  and  C_29 
ROOT
HETATM    1  C   UNL     1     -39.885  52.542 -51.251  1.00  0.00     0.112 C 
HETATM    2  C   UNL     1     -40.396  53.914 -50.843  1.00  0.00    -0.109 C 
HETATM    3  C   UNL     1     -40.835  55.091 -50.492  1.00  0.00    -0.087 C 
ENDROOT
BRANCH   3   4
HETATM    4  C   UNL     1     -41.345  56.463 -50.084  1.00  0.00     0.230 C 
BRANCH   4   5
HETATM    5  N   UNL     1     -41.451  57.334 -51.225  1.00  0.00    -0.257 N 
HETATM    6  C   UNL     1     -40.618  58.375 -51.455  1.00  0.00     0.327 A 
HETATM    7  O   UNL     1     -39.689  58.774 -50.777  1.00  0.00    -0.247 OA
HETATM    8  N   UNL     1     -41.059  59.046 -52.565  1.00  0.00    -0.324 N 
HETATM    9  C   UNL     1     -42.292  58.506 -53.125  1.00  0.00     0.123 A 
HETATM   10  H   UNL     1     -40.411  59.668 -53.039  1.00  0.00     0.165 HD
HETATM   11  C   UNL     1     -42.483  57.335 -52.120  1.00  0.00     0.257 A 
HETATM   12  O   UNL     1     -43.457  56.599 -52.076  1.00  0.00    -0.270 OA
BRANCH   9  13
HETATM   13  C   UNL     1     -41.970  57.973 -54.545  1.00  0.00     0.080 C 
BRANCH  13  14
HETATM   14  C   UNL     1     -41.787  56.484 -54.714  1.00  0.00    -0.052 A 
HETATM   15  C   UNL     1     -42.830  55.685 -55.203  1.00  0.00     0.049 A 
HETATM   16  C   UNL     1     -42.660  54.309 -55.327  1.00  0.00     0.116 A 
HETATM   17  F   UNL     1     -43.668  53.561 -55.793  1.00  0.00    -0.206 F 
HETATM   18  C   UNL     1     -41.466  53.700 -54.967  1.00  0.00     0.042 A 
HETATM   19  C   UNL     1     -40.423  54.479 -54.472  1.00  0.00     0.003 A 
HETATM   20  C   UNL     1     -40.584  55.863 -54.342  1.00  0.00     0.007 A 
ENDBRANCH  13  14
ENDBRANCH   9  13
BRANCH   9  21
HETATM   21  C   UNL     1     -43.444  59.584 -53.064  1.00  0.00     0.027 C 
HETATM   22  C   UNL     1     -44.780  59.120 -53.685  1.00  0.00     0.035 C 
HETATM   23  C   UNL     1     -44.834  59.156 -55.217  1.00  0.00     0.235 C 
HETATM   24  N   UNL     1     -44.353  60.471 -55.781  1.00  0.00    -0.067 N 
HETATM   25  H   UNL     1     -45.097  61.159 -55.610  1.00  0.00     0.280 HD
HETATM   26  C   UNL     1     -43.088  61.012 -55.161  1.00  0.00     0.235 C 
HETATM   27  C   UNL     1     -43.155  60.980 -53.649  1.00  0.00     0.035 C 
BRANCH  24  28
HETATM   28  C   UNL     1     -44.149  60.417 -57.296  1.00  0.00     0.273 C 
BRANCH  28  29
HETATM   29  C   UNL     1     -43.998  59.055 -57.914  1.00  0.00    -0.030 A 
HETATM   30  C   UNL     1     -45.082  58.375 -58.484  1.00  0.00     0.048 A 
HETATM   31  C   UNL     1     -44.894  57.126 -59.082  1.00  0.00     0.102 A 
HETATM   32  C   UNL     1     -43.624  56.546 -59.119  1.00  0.00     0.102 A 
HETATM   33  O   UNL     1     -46.008  56.527 -59.606  1.00  0.00    -0.346 OA
HETATM   34  O   UNL     1     -43.371  55.322 -59.676  1.00  0.00    -0.346 OA
HETATM   35  C   UNL     1     -42.535  57.226 -58.587  1.00  0.00     0.040 A 
HETATM   36  C   UNL     1     -44.575  54.577 -59.885  1.00  0.00     0.202 C 
HETATM   37  C   UNL     1     -45.657  55.456 -60.494  1.00  0.00     0.202 C 
HETATM   38  C   UNL     1     -42.720  58.471 -57.983  1.00  0.00     0.012 A 
ENDBRANCH  28  29
ENDBRANCH  24  28
ENDBRANCH   9  21
ENDBRANCH   4   5
ENDBRANCH   3   4
TORSDOF 7
ENDMDL
MODEL 2
REMARK VINA RESULT:      -8.4      3.668      7.813
REMARK  7 active torsions:
REMARK  status: ('A' for Active; 'I' for Inactive)
REMARK    1  A    between atoms: C_3  and  C_4 
REMARK    2  A    between atoms: C_4  and  N_5 
REMARK    3  A    between atoms: C_9  and  C_28 
REMARK    4  A    between atoms: C_9  and  C_10 
REMARK    5  A    between atoms: N_13  and  C_15 
REMARK    6  A    between atoms: C_15  and  C_16 
REMARK    7  A    between atoms: C_28  and  C_29 
ROOT
HETATM    1  C   UNL     1     -44.358  54.690 -59.990  1.00  0.00     0.112 C 
HETATM    2  C   UNL     1     -43.705  55.543 -58.915  1.00  0.00    -0.109 C 
HETATM    3  C   UNL     1     -43.145  56.274 -57.992  1.00  0.00    -0.087 C 
ENDROOT
BRANCH   3   4
HETATM    4  C   UNL     1     -42.491  57.126 -56.917  1.00  0.00     0.230 C 
BRANCH   4   5
HETATM    5  N   UNL     1     -42.740  56.584 -55.607  1.00  0.00    -0.257 N 
HETATM    6  C   UNL     1     -43.864  56.829 -54.894  1.00  0.00     0.327 A 
HETATM    7  O   UNL     1     -44.815  57.530 -55.186  1.00  0.00    -0.247 OA
HETATM    8  N   UNL     1     -43.733  56.244 -53.663  1.00  0.00    -0.324 N 
HETATM    9  C   UNL     1     -42.440  55.602 -53.454  1.00  0.00     0.123 A 
HETATM   10  H   UNL     1     -44.572  56.086 -53.114  1.00  0.00     0.165 HD
HETATM   11  C   UNL     1     -41.828  55.904 -54.850  1.00  0.00     0.257 A 
HETATM   12  O   UNL     1     -40.677  55.662 -55.180  1.00  0.00    -0.270 OA
BRANCH   9  13
HETATM   13  C   UNL     1     -42.694  54.083 -53.274  1.00  0.00     0.080 C 
BRANCH  13  14
HETATM   14  C   UNL     1     -41.506  53.200 -52.978  1.00  0.00    -0.052 A 
HETATM   15  C   UNL     1     -40.970  52.364 -53.967  1.00  0.00     0.049 A 
HETATM   16  C   UNL     1     -39.893  51.532 -53.674  1.00  0.00     0.116 A 
HETATM   17  F   UNL     1     -39.396  50.738 -54.631  1.00  0.00    -0.206 F 
HETATM   18  C   UNL     1     -39.332  51.506 -52.404  1.00  0.00     0.042 A 
HETATM   19  C   UNL     1     -39.860  52.323 -51.408  1.00  0.00     0.003 A 
HETATM   20  C   UNL     1     -40.943  53.163 -51.691  1.00  0.00     0.007 A 
ENDBRANCH  13  14
ENDBRANCH   9  13
BRANCH   9  21
HETATM   21  C   UNL     1     -41.667  56.293 -52.263  1.00  0.00     0.027 C 
HETATM   22  C   UNL     1     -42.507  56.466 -50.978  1.00  0.00     0.035 C 
HETATM   23  C   UNL     1     -43.503  57.632 -51.001  1.00  0.00     0.235 C 
HETATM   24  N   UNL     1     -42.871  58.922 -51.465  1.00  0.00    -0.067 N 
HETATM   25  H   UNL     1     -42.291  59.265 -50.689  1.00  0.00     0.280 HD
HETATM   26  C   UNL     1     -41.979  58.802 -52.677  1.00  0.00     0.235 C 
HETATM   27  C   UNL     1     -41.001  57.656 -52.533  1.00  0.00     0.035 C 
BRANCH  24  28
HETATM   28  C   UNL     1     -43.907  60.010 -51.748  1.00  0.00     0.273 C 
BRANCH  28  29
HETATM   29  C   UNL     1     -44.292  60.899 -50.598  1.00  0.00    -0.030 A 
HETATM   30  C   UNL     1     -45.168  60.472 -49.591  1.00  0.00     0.048 A 
HETATM   31  C   UNL     1     -45.472  61.314 -48.519  1.00  0.00     0.102 A 
HETATM   32  C   UNL     1     -44.904  62.588 -48.439  1.00  0.00     0.102 A 
HETATM   33  O   UNL     1     -46.343  60.821 -47.584  1.00  0.00    -0.346 OA
HETATM   34  O   UNL     1     -45.168  63.468 -47.425  1.00  0.00    -0.346 OA
HETATM   35  C   UNL     1     -44.008  63.009 -49.414  1.00  0.00     0.040 A 
HETATM   36  C   UNL     1     -46.327  63.083 -46.678  1.00  0.00     0.202 C 
HETATM   37  C   UNL     1     -46.304  61.592 -46.374  1.00  0.00     0.202 C 
HETATM   38  C   UNL     1     -43.706  62.173 -50.490  1.00  0.00     0.012 A 
ENDBRANCH  28  29
ENDBRANCH  24  28
ENDBRANCH   9  21
ENDBRANCH   4   5
ENDBRANCH   3   4
TORSDOF 7
ENDMDL
MODEL 3
REMARK VINA RESULT:      -8.2      3.424      7.598
REMARK  7 active torsions:
REMARK  status: ('A' for Active; 'I' for Inactive)
REMARK    1  A    between atoms: C_3  and  C_4 
REMARK    2  A    between atoms: C_4  and  N_5 
REMARK    3  A    between atoms: C_9  and  C_28 
REMARK    4  A    between atoms: C_9  and  C_10 
REMARK    5  A    between atoms: N_13  and  C_15 
REMARK    6  A    between atoms: C_15  and  C_16 
REMARK    7  A    between atoms: C_28  and  C_29 
ROOT
HETATM    1  C   UNL     1     -41.362  60.386 -58.021  1.00  0.00     0.112 C 
HETATM    2  C   UNL     1     -42.143  59.135 -57.650  1.00  0.00    -0.109 C 
HETATM    3  C   UNL     1     -42.812  58.062 -57.333  1.00  0.00    -0.087 C 
ENDROOT
BRANCH   3   4
HETATM    4  C   UNL     1     -43.592  56.811 -56.964  1.00  0.00     0.230 C 
BRANCH   4   5
HETATM    5  N   UNL     1     -43.448  56.507 -55.564  1.00  0.00    -0.257 N 
HETATM    6  C   UNL     1     -44.266  56.992 -54.602  1.00  0.00     0.327 A 
HETATM    7  O   UNL     1     -45.210  57.752 -54.715  1.00  0.00    -0.247 OA
HETATM    8  N   UNL     1     -43.790  56.588 -53.383  1.00  0.00    -0.324 N 
HETATM    9  C   UNL     1     -42.546  55.832 -53.462  1.00  0.00     0.123 A 
HETATM   10  H   UNL     1     -44.419  56.619 -52.587  1.00  0.00     0.165 HD
HETATM   11  C   UNL     1     -42.391  55.843 -55.009  1.00  0.00     0.257 A 
HETATM   12  O   UNL     1     -41.425  55.415 -55.622  1.00  0.00    -0.270 OA
BRANCH   9  13
HETATM   13  C   UNL     1     -42.833  54.400 -52.941  1.00  0.00     0.080 C 
BRANCH  13  14
HETATM   14  C   UNL     1     -41.656  53.555 -52.516  1.00  0.00    -0.052 A 
HETATM   15  C   UNL     1     -40.917  52.829 -53.460  1.00  0.00     0.049 A 
HETATM   16  C   UNL     1     -39.852  52.029 -53.053  1.00  0.00     0.116 A 
HETATM   17  F   UNL     1     -39.159  51.341 -53.968  1.00  0.00    -0.206 F 
HETATM   18  C   UNL     1     -39.504  51.929 -51.712  1.00  0.00     0.042 A 
HETATM   19  C   UNL     1     -40.236  52.636 -50.762  1.00  0.00     0.003 A 
HETATM   20  C   UNL     1     -41.308  53.442 -51.160  1.00  0.00     0.007 A 
ENDBRANCH  13  14
ENDBRANCH   9  13
BRANCH   9  21
HETATM   21  C   UNL     1     -41.388  56.595 -52.707  1.00  0.00     0.027 C 
HETATM   22  C   UNL     1     -41.772  57.093 -51.296  1.00  0.00     0.035 C 
HETATM   23  C   UNL     1     -42.626  58.367 -51.264  1.00  0.00     0.235 C 
HETATM   24  N   UNL     1     -42.062  59.461 -52.137  1.00  0.00    -0.067 N 
HETATM   25  H   UNL     1     -41.245  59.843 -51.645  1.00  0.00     0.280 HD
HETATM   26  C   UNL     1     -41.602  59.020 -53.505  1.00  0.00     0.235 C 
HETATM   27  C   UNL     1     -40.726  57.788 -53.423  1.00  0.00     0.035 C 
BRANCH  24  28
HETATM   28  C   UNL     1     -43.040  60.622 -52.321  1.00  0.00     0.273 C 
BRANCH  28  29
HETATM   29  C   UNL     1     -43.598  61.247 -51.072  1.00  0.00    -0.030 A 
HETATM   30  C   UNL     1     -44.503  60.570 -50.244  1.00  0.00     0.048 A 
HETATM   31  C   UNL     1     -44.970  61.171 -49.073  1.00  0.00     0.102 A 
HETATM   32  C   UNL     1     -44.537  62.449 -48.714  1.00  0.00     0.102 A 
HETATM   33  O   UNL     1     -45.859  60.443 -48.328  1.00  0.00    -0.346 OA
HETATM   34  O   UNL     1     -44.962  63.100 -47.588  1.00  0.00    -0.346 OA
HETATM   35  C   UNL     1     -43.612  63.116 -49.509  1.00  0.00     0.040 A 
HETATM   36  C   UNL     1     -46.133  62.490 -47.034  1.00  0.00     0.202 C 
HETATM   37  C   UNL     1     -45.989  60.976 -47.001  1.00  0.00     0.202 C 
HETATM   38  C   UNL     1     -43.148  62.522 -50.684  1.00  0.00     0.012 A 
ENDBRANCH  28  29
ENDBRANCH  24  28
ENDBRANCH   9  21
ENDBRANCH   4   5
ENDBRANCH   3   4
TORSDOF 7
ENDMDL
MODEL 4
REMARK VINA RESULT:      -8.1      2.700      5.182
REMARK  7 active torsions:
REMARK  status: ('A' for Active; 'I' for Inactive)
REMARK    1  A    between atoms: C_3  and  C_4 
REMARK    2  A    between atoms: C_4  and  N_5 
REMARK    3  A    between atoms: C_9  and  C_28 
REMARK    4  A    between atoms: C_9  and  C_10 
REMARK    5  A    between atoms: N_13  and  C_15 
REMARK    6  A    between atoms: C_15  and  C_16 
REMARK    7  A    between atoms: C_28  and  C_29 
ROOT
HETATM    1  C   UNL     1     -45.449  59.673 -53.048  1.00  0.00     0.112 C 
HETATM    2  C   UNL     1     -44.929  58.492 -52.245  1.00  0.00    -0.109 C 
HETATM    3  C   UNL     1     -44.484  57.479 -51.556  1.00  0.00    -0.087 C 
ENDROOT
BRANCH   3   4
HETATM    4  C   UNL     1     -43.965  56.297 -50.753  1.00  0.00     0.230 C 
BRANCH   4   5
HETATM    5  N   UNL     1     -42.748  55.782 -51.323  1.00  0.00    -0.257 N 
HETATM    6  C   UNL     1     -41.727  56.563 -51.747  1.00  0.00     0.327 A 
HETATM    7  O   UNL     1     -41.648  57.777 -51.755  1.00  0.00    -0.247 OA
HETATM    8  N   UNL     1     -40.776  55.760 -52.319  1.00  0.00    -0.324 N 
HETATM    9  C   UNL     1     -41.148  54.351 -52.365  1.00  0.00     0.123 A 
HETATM   10  H   UNL     1     -39.838  56.133 -52.433  1.00  0.00     0.165 HD
HETATM   11  C   UNL     1     -42.530  54.477 -51.663  1.00  0.00     0.257 A 
HETATM   12  O   UNL     1     -43.336  53.569 -51.531  1.00  0.00    -0.270 OA
BRANCH   9  13
HETATM   13  C   UNL     1     -40.143  53.571 -51.480  1.00  0.00     0.080 C 
BRANCH  13  14
HETATM   14  C   UNL     1     -39.943  52.102 -51.768  1.00  0.00    -0.052 A 
HETATM   15  C   UNL     1     -39.730  51.650 -53.077  1.00  0.00     0.049 A 
HETATM   16  C   UNL     1     -39.577  50.291 -53.334  1.00  0.00     0.116 A 
HETATM   17  F   UNL     1     -39.377  49.877 -54.591  1.00  0.00    -0.206 F 
HETATM   18  C   UNL     1     -39.637  49.357 -52.308  1.00  0.00     0.042 A 
HETATM   19  C   UNL     1     -39.857  49.789 -51.003  1.00  0.00     0.003 A 
HETATM   20  C   UNL     1     -40.014  51.153 -50.734  1.00  0.00     0.007 A 
ENDBRANCH  13  14
ENDBRANCH   9  13
BRANCH   9  21
HETATM   21  C   UNL     1     -41.244  53.855 -53.861  1.00  0.00     0.027 C 
HETATM   22  C   UNL     1     -40.455  54.722 -54.867  1.00  0.00     0.035 C 
HETATM   23  C   UNL     1     -41.134  56.038 -55.267  1.00  0.00     0.235 C 
HETATM   24  N   UNL     1     -42.577  55.846 -55.665  1.00  0.00    -0.067 N 
HETATM   25  H   UNL     1     -42.574  55.417 -56.598  1.00  0.00     0.280 HD
HETATM   26  C   UNL     1     -43.381  54.948 -54.757  1.00  0.00     0.235 C 
HETATM   27  C   UNL     1     -42.647  53.657 -54.465  1.00  0.00     0.035 C 
BRANCH  24  28
HETATM   28  C   UNL     1     -43.326  57.173 -55.799  1.00  0.00     0.273 C 
BRANCH  28  29
HETATM   29  C   UNL     1     -42.907  58.080 -56.922  1.00  0.00    -0.030 A 
HETATM   30  C   UNL     1     -42.259  59.300 -56.688  1.00  0.00     0.048 A 
HETATM   31  C   UNL     1     -41.852  60.098 -57.760  1.00  0.00     0.102 A 
HETATM   32  C   UNL     1     -42.085  59.687 -59.074  1.00  0.00     0.102 A 
HETATM   33  O   UNL     1     -41.234  61.278 -57.441  1.00  0.00    -0.346 OA
HETATM   34  O   UNL     1     -41.724  60.424 -60.170  1.00  0.00    -0.346 OA
HETATM   35  C   UNL     1     -42.696  58.463 -59.319  1.00  0.00     0.040 A 
HETATM   36  C   UNL     1     -41.419  61.778 -59.819  1.00  0.00     0.202 C 
HETATM   37  C   UNL     1     -40.547  61.831 -58.574  1.00  0.00     0.202 C 
HETATM   38  C   UNL     1     -43.110  57.665 -58.251  1.00  0.00     0.012 A 
ENDBRANCH  28  29
ENDBRANCH  24  28
ENDBRANCH   9  21
ENDBRANCH   4   5
ENDBRANCH   3   4
TORSDOF 7
ENDMDL
MODEL 5
REMARK VINA RESULT:      -8.0      2.743      4.493
REMARK  7 active torsions:
REMARK  status: ('A' for Active; 'I' for Inactive)
REMARK    1  A    between atoms: C_3  and  C_4 
REMARK    2  A    between atoms: C_4  and  N_5 
REMARK    3  A    between atoms: C_9  and  C_28 
REMARK    4  A    between atoms: C_9  and  C_10 
REMARK    5  A    between atoms: N_13  and  C_15 
REMARK    6  A    between atoms: C_15  and  C_16 
REMARK    7  A    between atoms: C_28  and  C_29 
ROOT
HETATM    1  C   UNL     1     -45.477  59.003 -51.184  1.00  0.00     0.112 C 
HETATM    2  C   UNL     1     -44.108  58.344 -51.141  1.00  0.00    -0.109 C 
HETATM    3  C   UNL     1     -42.933  57.779 -51.103  1.00  0.00    -0.087 C 
ENDROOT
BRANCH   3   4
HETATM    4  C   UNL     1     -41.565  57.119 -51.059  1.00  0.00     0.230 C 
BRANCH   4   5
HETATM    5  N   UNL     1     -41.283  56.432 -52.292  1.00  0.00    -0.257 N 
HETATM    6  C   UNL     1     -40.950  57.060 -53.443  1.00  0.00     0.327 A 
HETATM    7  O   UNL     1     -40.852  58.254 -53.660  1.00  0.00    -0.247 OA
HETATM    8  N   UNL     1     -40.848  56.122 -54.436  1.00  0.00    -0.324 N 
HETATM    9  C   UNL     1     -41.178  54.770 -54.001  1.00  0.00     0.123 A 
HETATM   10  H   UNL     1     -40.341  56.369 -55.280  1.00  0.00     0.165 HD
HETATM   11  C   UNL     1     -41.475  55.097 -52.510  1.00  0.00     0.257 A 
HETATM   12  O   UNL     1     -41.910  54.303 -51.690  1.00  0.00    -0.270 OA
BRANCH   9  13
HETATM   13  C   UNL     1     -39.897  53.907 -54.137  1.00  0.00     0.080 C 
BRANCH  13  14
HETATM   14  C   UNL     1     -39.973  52.461 -53.709  1.00  0.00    -0.052 A 
HETATM   15  C   UNL     1     -39.601  52.077 -52.414  1.00  0.00     0.049 A 
HETATM   16  C   UNL     1     -39.646  50.736 -52.040  1.00  0.00     0.116 A 
HETATM   17  F   UNL     1     -39.284  50.387 -50.799  1.00  0.00    -0.206 F 
HETATM   18  C   UNL     1     -40.052  49.756 -52.936  1.00  0.00     0.042 A 
HETATM   19  C   UNL     1     -40.416  50.121 -54.229  1.00  0.00     0.003 A 
HETATM   20  C   UNL     1     -40.373  51.465 -54.616  1.00  0.00     0.007 A 
ENDBRANCH  13  14
ENDBRANCH   9  13
BRANCH   9  21
HETATM   21  C   UNL     1     -42.434  54.228 -54.790  1.00  0.00     0.027 C 
HETATM   22  C   UNL     1     -42.424  54.558 -56.299  1.00  0.00     0.035 C 
HETATM   23  C   UNL     1     -42.826  55.994 -56.656  1.00  0.00     0.235 C 
HETATM   24  N   UNL     1     -44.101  56.423 -55.971  1.00  0.00    -0.067 N 
HETATM   25  H   UNL     1     -44.873  55.950 -56.457  1.00  0.00     0.280 HD
HETATM   26  C   UNL     1     -44.199  56.064 -54.509  1.00  0.00     0.235 C 
HETATM   27  C   UNL     1     -43.832  54.615 -54.270  1.00  0.00     0.035 C 
BRANCH  24  28
HETATM   28  C   UNL     1     -44.358  57.925 -56.106  1.00  0.00     0.273 C 
BRANCH  28  29
HETATM   29  C   UNL     1     -43.647  58.640 -57.221  1.00  0.00    -0.030 A 
HETATM   30  C   UNL     1     -44.154  58.669 -58.527  1.00  0.00     0.048 A 
HETATM   31  C   UNL     1     -43.483  59.375 -59.527  1.00  0.00     0.102 A 
HETATM   32  C   UNL     1     -42.302  60.061 -59.236  1.00  0.00     0.102 A 
HETATM   33  O   UNL     1     -44.044  59.343 -60.777  1.00  0.00    -0.346 OA
HETATM   34  O   UNL     1     -41.587  60.762 -60.169  1.00  0.00    -0.346 OA
HETATM   35  C   UNL     1     -41.807  60.068 -57.937  1.00  0.00     0.040 A 
HETATM   36  C   UNL     1     -41.983  60.422 -61.503  1.00  0.00     0.202 C 
HETATM   37  C   UNL     1     -43.498  60.369 -61.621  1.00  0.00     0.202 C 
HETATM   38  C   UNL     1     -42.471  59.358 -56.936  1.00  0.00     0.012 A 
ENDBRANCH  28  29
ENDBRANCH  24  28
ENDBRANCH   9  21
ENDBRANCH   4   5
ENDBRANCH   3   4
TORSDOF 7
ENDMDL
MODEL 6
REMARK VINA RESULT:      -7.9      2.942      6.997
REMARK  7 active torsions:
REMARK  status: ('A' for Active; 'I' for Inactive)
REMARK    1  A    between atoms: C_3  and  C_4 
REMARK    2  A    between atoms: C_4  and  N_5 
REMARK    3  A    between atoms: C_9  and  C_28 
REMARK    4  A    between atoms: C_9  and  C_10 
REMARK    5  A    between atoms: N_13  and  C_15 
REMARK    6  A    between atoms: C_15  and  C_16 
REMARK    7  A    between atoms: C_28  and  C_29 
ROOT
HETATM    1  C   UNL     1     -43.608  55.389 -59.897  1.00  0.00     0.112 C 
HETATM    2  C   UNL     1     -43.302  55.853 -58.483  1.00  0.00    -0.109 C 
HETATM    3  C   UNL     1     -43.040  56.251 -57.269  1.00  0.00    -0.087 C 
ENDROOT
BRANCH   3   4
HETATM    4  C   UNL     1     -42.735  56.715 -55.855  1.00  0.00     0.230 C 
BRANCH   4   5
HETATM    5  N   UNL     1     -42.338  55.609 -55.023  1.00  0.00    -0.257 N 
HETATM    6  C   UNL     1     -42.878  54.372 -55.111  1.00  0.00     0.327 A 
HETATM    7  O   UNL     1     -43.768  53.978 -55.842  1.00  0.00    -0.247 OA
HETATM    8  N   UNL     1     -42.346  53.595 -54.117  1.00  0.00    -0.324 N 
HETATM    9  C   UNL     1     -41.429  54.313 -53.239  1.00  0.00     0.123 A 
HETATM   10  H   UNL     1     -42.420  52.586 -54.203  1.00  0.00     0.165 HD
HETATM   11  C   UNL     1     -41.503  55.696 -53.945  1.00  0.00     0.257 A 
HETATM   12  O   UNL     1     -40.980  56.722 -53.538  1.00  0.00    -0.270 OA
BRANCH   9  13
HETATM   13  C   UNL     1     -40.025  53.678 -53.406  1.00  0.00     0.080 C 
BRANCH  13  14
HETATM   14  C   UNL     1     -39.899  52.185 -53.216  1.00  0.00    -0.052 A 
HETATM   15  C   UNL     1     -39.628  51.644 -51.952  1.00  0.00     0.049 A 
HETATM   16  C   UNL     1     -39.484  50.268 -51.794  1.00  0.00     0.116 A 
HETATM   17  F   UNL     1     -39.222  49.769 -50.580  1.00  0.00    -0.206 F 
HETATM   18  C   UNL     1     -39.600  49.407 -52.877  1.00  0.00     0.042 A 
HETATM   19  C   UNL     1     -39.861  49.930 -54.141  1.00  0.00     0.003 A 
HETATM   20  C   UNL     1     -40.005  51.311 -54.310  1.00  0.00     0.007 A 
ENDBRANCH  13  14
ENDBRANCH   9  13
BRANCH   9  21
HETATM   21  C   UNL     1     -41.981  54.330 -51.760  1.00  0.00     0.027 C 
HETATM   22  C   UNL     1     -43.223  55.226 -51.558  1.00  0.00     0.035 C 
HETATM   23  C   UNL     1     -42.935  56.729 -51.462  1.00  0.00     0.235 C 
HETATM   24  N   UNL     1     -41.822  57.042 -50.490  1.00  0.00    -0.067 N 
HETATM   25  H   UNL     1     -42.211  56.927 -49.546  1.00  0.00     0.280 HD
HETATM   26  C   UNL     1     -40.609  56.152 -50.592  1.00  0.00     0.235 C 
HETATM   27  C   UNL     1     -40.998  54.689 -50.629  1.00  0.00     0.035 C 
BRANCH  24  28
HETATM   28  C   UNL     1     -41.352  58.494 -50.591  1.00  0.00     0.273 C 
BRANCH  28  29
HETATM   29  C   UNL     1     -42.281  59.465 -51.265  1.00  0.00    -0.030 A 
HETATM   30  C   UNL     1     -43.370  60.037 -50.594  1.00  0.00     0.048 A 
HETATM   31  C   UNL     1     -44.188  60.964 -51.244  1.00  0.00     0.102 A 
HETATM   32  C   UNL     1     -43.927  61.332 -52.565  1.00  0.00     0.102 A 
HETATM   33  O   UNL     1     -45.236  61.466 -50.518  1.00  0.00    -0.346 OA
HETATM   34  O   UNL     1     -44.695  62.223 -53.265  1.00  0.00    -0.346 OA
HETATM   35  C   UNL     1     -42.830  60.797 -53.230  1.00  0.00     0.040 A 
HETATM   36  C   UNL     1     -45.956  62.450 -52.627  1.00  0.00     0.202 C 
HETATM   37  C   UNL     1     -45.778  62.646 -51.129  1.00  0.00     0.202 C 
HETATM   38  C   UNL     1     -42.013  59.866 -52.586  1.00  0.00     0.012 A 
ENDBRANCH  28  29
ENDBRANCH  24  28
ENDBRANCH   9  21
ENDBRANCH   4   5
ENDBRANCH   3   4
TORSDOF 7
ENDMDL
MODEL 7
REMARK VINA RESULT:      -7.7      3.568      7.564
REMARK  7 active torsions:
REMARK  status: ('A' for Active; 'I' for Inactive)
REMARK    1  A    between atoms: C_3  and  C_4 
REMARK    2  A    between atoms: C_4  and  N_5 
REMARK    3  A    between atoms: C_9  and  C_28 
REMARK    4  A    between atoms: C_9  and  C_10 
REMARK    5  A    between atoms: N_13  and  C_15 
REMARK    6  A    between atoms: C_15  and  C_16 
REMARK    7  A    between atoms: C_28  and  C_29 
ROOT
HETATM    1  C   UNL     1     -43.127  55.001 -56.642  1.00  0.00     0.112 C 
HETATM    2  C   UNL     1     -43.485  56.462 -56.422  1.00  0.00    -0.109 C 
HETATM    3  C   UNL     1     -43.792  57.715 -56.234  1.00  0.00    -0.087 C 
ENDROOT
BRANCH   3   4
HETATM    4  C   UNL     1     -44.149  59.176 -56.013  1.00  0.00     0.230 C 
BRANCH   4   5
HETATM    5  N   UNL     1     -43.600  59.659 -54.773  1.00  0.00    -0.257 N 
HETATM    6  C   UNL     1     -42.290  59.944 -54.591  1.00  0.00     0.327 A 
HETATM    7  O   UNL     1     -41.368  59.832 -55.378  1.00  0.00    -0.247 OA
HETATM    8  N   UNL     1     -42.098  60.282 -53.278  1.00  0.00    -0.324 N 
HETATM    9  C   UNL     1     -43.304  60.181 -52.464  1.00  0.00     0.123 A 
HETATM   10  H   UNL     1     -41.253  60.788 -53.031  1.00  0.00     0.165 HD
HETATM   11  C   UNL     1     -44.279  59.734 -53.590  1.00  0.00     0.257 A 
HETATM   12  O   UNL     1     -45.442  59.401 -53.420  1.00  0.00    -0.270 OA
BRANCH   9  13
HETATM   13  C   UNL     1     -43.651  61.606 -51.962  1.00  0.00     0.080 C 
BRANCH  13  14
HETATM   14  C   UNL     1     -44.479  61.728 -50.705  1.00  0.00    -0.052 A 
HETATM   15  C   UNL     1     -45.779  62.248 -50.750  1.00  0.00     0.049 A 
HETATM   16  C   UNL     1     -46.522  62.384 -49.580  1.00  0.00     0.116 A 
HETATM   17  F   UNL     1     -47.762  62.885 -49.643  1.00  0.00    -0.206 F 
HETATM   18  C   UNL     1     -45.994  62.015 -48.350  1.00  0.00     0.042 A 
HETATM   19  C   UNL     1     -44.700  61.505 -48.287  1.00  0.00     0.003 A 
HETATM   20  C   UNL     1     -43.945  61.366 -49.457  1.00  0.00     0.007 A 
ENDBRANCH  13  14
ENDBRANCH   9  13
BRANCH   9  21
HETATM   21  C   UNL     1     -43.114  59.102 -51.328  1.00  0.00     0.027 C 
HETATM   22  C   UNL     1     -41.640  58.828 -50.956  1.00  0.00     0.035 C 
HETATM   23  C   UNL     1     -40.877  57.925 -51.933  1.00  0.00     0.235 C 
HETATM   24  N   UNL     1     -41.640  56.667 -52.272  1.00  0.00    -0.067 N 
HETATM   25  H   UNL     1     -41.575  56.050 -51.452  1.00  0.00     0.280 HD
HETATM   26  C   UNL     1     -43.104  56.863 -52.575  1.00  0.00     0.235 C 
HETATM   27  C   UNL     1     -43.775  57.724 -51.526  1.00  0.00     0.035 C 
BRANCH  24  28
HETATM   28  C   UNL     1     -41.015  55.903 -53.441  1.00  0.00     0.273 C 
BRANCH  28  29
HETATM   29  C   UNL     1     -40.645  54.467 -53.196  1.00  0.00    -0.030 A 
HETATM   30  C   UNL     1     -40.572  53.929 -51.904  1.00  0.00     0.048 A 
HETATM   31  C   UNL     1     -40.261  52.580 -51.720  1.00  0.00     0.102 A 
HETATM   32  C   UNL     1     -40.024  51.754 -52.820  1.00  0.00     0.102 A 
HETATM   33  O   UNL     1     -40.201  52.140 -50.424  1.00  0.00    -0.346 OA
HETATM   34  O   UNL     1     -39.703  50.428 -52.712  1.00  0.00    -0.346 OA
HETATM   35  C   UNL     1     -40.127  52.267 -54.108  1.00  0.00     0.040 A 
HETATM   36  C   UNL     1     -39.299  50.088 -51.381  1.00  0.00     0.202 C 
HETATM   37  C   UNL     1     -40.239  50.706 -50.357  1.00  0.00     0.202 C 
HETATM   38  C   UNL     1     -40.431  53.616 -54.296  1.00  0.00     0.012 A 
ENDBRANCH  28  29
ENDBRANCH  24  28
ENDBRANCH   9  21
ENDBRANCH   4   5
ENDBRANCH   3   4
TORSDOF 7
ENDMDL
MODEL 8
REMARK VINA RESULT:      -7.7      2.433      4.351
REMARK  7 active torsions:
REMARK  status: ('A' for Active; 'I' for Inactive)
REMARK    1  A    between atoms: C_3  and  C_4 
REMARK    2  A    between atoms: C_4  and  N_5 
REMARK    3  A    between atoms: C_9  and  C_28 
REMARK    4  A    between atoms: C_9  and  C_10 
REMARK    5  A    between atoms: N_13  and  C_15 
REMARK    6  A    between atoms: C_15  and  C_16 
REMARK    7  A    between atoms: C_28  and  C_29 
ROOT
HETATM    1  C   UNL     1     -44.037  61.426 -51.343  1.00  0.00     0.112 C 
HETATM    2  C   UNL     1     -42.796  60.573 -51.138  1.00  0.00    -0.109 C 
HETATM    3  C   UNL     1     -41.731  59.842 -50.964  1.00  0.00    -0.087 C 
ENDROOT
BRANCH   3   4
HETATM    4  C   UNL     1     -40.488  58.990 -50.761  1.00  0.00     0.230 C 
BRANCH   4   5
HETATM    5  N   UNL     1     -40.682  57.663 -51.282  1.00  0.00    -0.257 N 
HETATM    6  C   UNL     1     -40.664  57.364 -52.601  1.00  0.00     0.327 A 
HETATM    7  O   UNL     1     -40.515  58.111 -53.551  1.00  0.00    -0.247 OA
HETATM    8  N   UNL     1     -40.977  56.039 -52.751  1.00  0.00    -0.324 N 
HETATM    9  C   UNL     1     -41.294  55.367 -51.496  1.00  0.00     0.123 A 
HETATM   10  H   UNL     1     -40.739  55.584 -53.626  1.00  0.00     0.165 HD
HETATM   11  C   UNL     1     -41.071  56.578 -50.547  1.00  0.00     0.257 A 
HETATM   12  O   UNL     1     -41.307  56.585 -49.349  1.00  0.00    -0.270 OA
BRANCH   9  13
HETATM   13  C   UNL     1     -40.219  54.274 -51.265  1.00  0.00     0.080 C 
BRANCH  13  14
HETATM   14  C   UNL     1     -40.164  53.121 -52.239  1.00  0.00    -0.052 A 
HETATM   15  C   UNL     1     -39.868  51.824 -51.799  1.00  0.00     0.049 A 
HETATM   16  C   UNL     1     -39.790  50.775 -52.710  1.00  0.00     0.116 A 
HETATM   17  F   UNL     1     -39.503  49.543 -52.272  1.00  0.00    -0.206 F 
HETATM   18  C   UNL     1     -39.999  50.987 -54.066  1.00  0.00     0.042 A 
HETATM   19  C   UNL     1     -40.285  52.272 -54.520  1.00  0.00     0.003 A 
HETATM   20  C   UNL     1     -40.363  53.334 -53.613  1.00  0.00     0.007 A 
ENDBRANCH  13  14
ENDBRANCH   9  13
BRANCH   9  21
HETATM   21  C   UNL     1     -42.783  54.843 -51.511  1.00  0.00     0.027 C 
HETATM   22  C   UNL     1     -43.378  54.667 -52.926  1.00  0.00     0.035 C 
HETATM   23  C   UNL     1     -43.832  55.963 -53.609  1.00  0.00     0.235 C 
HETATM   24  N   UNL     1     -44.697  56.815 -52.711  1.00  0.00    -0.067 N 
HETATM   25  H   UNL     1     -45.619  56.363 -52.670  1.00  0.00     0.280 HD
HETATM   26  C   UNL     1     -44.203  56.965 -51.294  1.00  0.00     0.235 C 
HETATM   27  C   UNL     1     -43.830  55.626 -50.695  1.00  0.00     0.035 C 
BRANCH  24  28
HETATM   28  C   UNL     1     -44.925  58.216 -53.281  1.00  0.00     0.273 C 
BRANCH  28  29
HETATM   29  C   UNL     1     -44.563  58.432 -54.724  1.00  0.00    -0.030 A 
HETATM   30  C   UNL     1     -45.407  58.034 -55.769  1.00  0.00     0.048 A 
HETATM   31  C   UNL     1     -45.052  58.285 -57.096  1.00  0.00     0.102 A 
HETATM   32  C   UNL     1     -43.853  58.936 -57.394  1.00  0.00     0.102 A 
HETATM   33  O   UNL     1     -45.931  57.855 -58.055  1.00  0.00    -0.346 OA
HETATM   34  O   UNL     1     -43.437  59.202 -58.671  1.00  0.00    -0.346 OA
HETATM   35  C   UNL     1     -43.023  59.366 -56.366  1.00  0.00     0.040 A 
HETATM   36  C   UNL     1     -44.173  58.443 -59.636  1.00  0.00     0.202 C 
HETATM   37  C   UNL     1     -45.661  58.468 -59.324  1.00  0.00     0.202 C 
HETATM   38  C   UNL     1     -43.372  59.112 -55.038  1.00  0.00     0.012 A 
ENDBRANCH  28  29
ENDBRANCH  24  28
ENDBRANCH   9  21
ENDBRANCH   4   5
ENDBRANCH   3   4
TORSDOF 7
ENDMDL
MODEL 9
REMARK VINA RESULT:      -7.6      2.942      4.327
REMARK  7 active torsions:
REMARK  status: ('A' for Active; 'I' for Inactive)
REMARK    1  A    between atoms: C_3  and  C_4 
REMARK    2  A    between atoms: C_4  and  N_5 
REMARK    3  A    between atoms: C_9  and  C_28 
REMARK    4  A    between atoms: C_9  and  C_10 
REMARK    5  A    between atoms: N_13  and  C_15 
REMARK    6  A    between atoms: C_15  and  C_16 
REMARK    7  A    between atoms: C_28  and  C_29 
ROOT
HETATM    1  C   UNL     1     -38.030  59.896 -49.699  1.00  0.00     0.112 C 
HETATM    2  C   UNL     1     -39.432  59.714 -50.258  1.00  0.00    -0.109 C 
HETATM    3  C   UNL     1     -40.634  59.558 -50.739  1.00  0.00    -0.087 C 
ENDROOT
BRANCH   3   4
HETATM    4  C   UNL     1     -42.035  59.374 -51.298  1.00  0.00     0.230 C 
BRANCH   4   5
HETATM    5  N   UNL     1     -42.149  58.124 -52.002  1.00  0.00    -0.257 N 
HETATM    6  C   UNL     1     -41.183  57.623 -52.806  1.00  0.00     0.327 A 
HETATM    7  O   UNL     1     -40.105  58.108 -53.097  1.00  0.00    -0.247 OA
HETATM    8  N   UNL     1     -41.654  56.477 -53.389  1.00  0.00    -0.324 N 
HETATM    9  C   UNL     1     -43.036  56.168 -53.041  1.00  0.00     0.123 A 
HETATM   10  H   UNL     1     -40.983  55.831 -53.791  1.00  0.00     0.165 HD
HETATM   11  C   UNL     1     -43.286  57.372 -52.089  1.00  0.00     0.257 A 
HETATM   12  O   UNL     1     -44.361  57.656 -51.583  1.00  0.00    -0.270 OA
BRANCH   9  13
HETATM   13  C   UNL     1     -43.035  54.830 -52.259  1.00  0.00     0.080 C 
BRANCH  13  14
HETATM   14  C   UNL     1     -41.823  53.939 -52.387  1.00  0.00    -0.052 A 
HETATM   15  C   UNL     1     -41.567  53.244 -53.576  1.00  0.00     0.049 A 
HETATM   16  C   UNL     1     -40.462  52.402 -53.673  1.00  0.00     0.116 A 
HETATM   17  F   UNL     1     -40.235  51.745 -54.816  1.00  0.00    -0.206 F 
HETATM   18  C   UNL     1     -39.599  52.228 -52.600  1.00  0.00     0.042 A 
HETATM   19  C   UNL     1     -39.846  52.904 -51.407  1.00  0.00     0.003 A 
HETATM   20  C   UNL     1     -40.953  53.752 -51.300  1.00  0.00     0.007 A 
ENDBRANCH  13  14
ENDBRANCH   9  13
BRANCH   9  21
HETATM   21  C   UNL     1     -43.947  56.185 -54.331  1.00  0.00     0.027 C 
HETATM   22  C   UNL     1     -43.212  55.788 -55.630  1.00  0.00     0.035 C 
HETATM   23  C   UNL     1     -42.332  56.884 -56.244  1.00  0.00     0.235 C 
HETATM   24  N   UNL     1     -43.054  58.205 -56.360  1.00  0.00    -0.067 N 
HETATM   25  H   UNL     1     -43.712  58.117 -57.144  1.00  0.00     0.280 HD
HETATM   26  C   UNL     1     -43.850  58.613 -55.145  1.00  0.00     0.235 C 
HETATM   27  C   UNL     1     -44.721  57.478 -54.649  1.00  0.00     0.035 C 
BRANCH  24  28
HETATM   28  C   UNL     1     -42.110  59.356 -56.713  1.00  0.00     0.273 C 
BRANCH  28  29
HETATM   29  C   UNL     1     -42.098  59.811 -58.145  1.00  0.00    -0.030 A 
HETATM   30  C   UNL     1     -41.441  60.982 -58.547  1.00  0.00     0.048 A 
HETATM   31  C   UNL     1     -41.421  61.351 -59.893  1.00  0.00     0.102 A 
HETATM   32  C   UNL     1     -42.052  60.557 -60.853  1.00  0.00     0.102 A 
HETATM   33  O   UNL     1     -40.765  62.515 -60.196  1.00  0.00    -0.346 OA
HETATM   34  O   UNL     1     -42.082  60.866 -62.186  1.00  0.00    -0.346 OA
HETATM   35  C   UNL     1     -42.677  59.376 -60.472  1.00  0.00     0.040 A 
HETATM   36  C   UNL     1     -41.717  62.230 -62.421  1.00  0.00     0.202 C 
HETATM   37  C   UNL     1     -40.492  62.611 -61.603  1.00  0.00     0.202 C 
HETATM   38  C   UNL     1     -42.705  59.006 -59.126  1.00  0.00     0.012 A 
ENDBRANCH  28  29
ENDBRANCH  24  28
ENDBRANCH   9  21
ENDBRANCH   4   5
ENDBRANCH   3   4
TORSDOF 7
ENDMDL
MODEL 10
REMARK VINA RESULT:      -7.5      2.316      3.091
REMARK  7 active torsions:
REMARK  status: ('A' for Active; 'I' for Inactive)
REMARK    1  A    between atoms: C_3  and  C_4 
REMARK    2  A    between atoms: C_4  and  N_5 
REMARK    3  A    between atoms: C_9  and  C_28 
REMARK    4  A    between atoms: C_9  and  C_10 
REMARK    5  A    between atoms: N_13  and  C_15 
REMARK    6  A    between atoms: C_15  and  C_16 
REMARK    7  A    between atoms: C_28  and  C_29 
ROOT
HETATM    1  C   UNL     1     -40.274  54.014 -49.218  1.00  0.00     0.112 C 
HETATM    2  C   UNL     1     -40.655  55.385 -49.752  1.00  0.00    -0.109 C 
HETATM    3  C   UNL     1     -40.981  56.561 -50.211  1.00  0.00    -0.087 C 
ENDROOT
BRANCH   3   4
HETATM    4  C   UNL     1     -41.362  57.931 -50.747  1.00  0.00     0.230 C 
BRANCH   4   5
HETATM    5  N   UNL     1     -41.738  57.857 -52.134  1.00  0.00    -0.257 N 
HETATM    6  C   UNL     1     -40.915  58.191 -53.155  1.00  0.00     0.327 A 
HETATM    7  O   UNL     1     -39.776  58.618 -53.108  1.00  0.00    -0.247 OA
HETATM    8  N   UNL     1     -41.618  58.097 -54.327  1.00  0.00    -0.324 N 
HETATM    9  C   UNL     1     -43.019  57.739 -54.143  1.00  0.00     0.123 A 
HETATM   10  H   UNL     1     -41.096  58.037 -55.196  1.00  0.00     0.165 HD
HETATM   11  C   UNL     1     -43.000  57.607 -52.594  1.00  0.00     0.257 A 
HETATM   12  O   UNL     1     -43.982  57.413 -51.893  1.00  0.00    -0.270 OA
BRANCH   9  13
HETATM   13  C   UNL     1     -43.244  56.361 -54.816  1.00  0.00     0.080 C 
BRANCH  13  14
HETATM   14  C   UNL     1     -42.260  55.257 -54.508  1.00  0.00    -0.052 A 
HETATM   15  C   UNL     1     -42.367  54.511 -53.327  1.00  0.00     0.049 A 
HETATM   16  C   UNL     1     -41.436  53.516 -53.040  1.00  0.00     0.116 A 
HETATM   17  F   UNL     1     -41.552  52.815 -51.905  1.00  0.00    -0.206 F 
HETATM   18  C   UNL     1     -40.386  53.245 -53.907  1.00  0.00     0.042 A 
HETATM   19  C   UNL     1     -40.262  53.984 -55.080  1.00  0.00     0.003 A 
HETATM   20  C   UNL     1     -41.191  54.987 -55.378  1.00  0.00     0.007 A 
ENDBRANCH  13  14
ENDBRANCH   9  13
BRANCH   9  21
HETATM   21  C   UNL     1     -43.957  58.896 -54.666  1.00  0.00     0.027 C 
HETATM   22  C   UNL     1     -45.339  58.416 -55.162  1.00  0.00     0.035 C 
HETATM   23  C   UNL     1     -45.347  57.785 -56.560  1.00  0.00     0.235 C 
HETATM   24  N   UNL     1     -44.621  58.630 -57.579  1.00  0.00    -0.067 N 
HETATM   25  H   UNL     1     -45.232  59.426 -57.795  1.00  0.00     0.280 HD
HETATM   26  C   UNL     1     -43.295  59.188 -57.124  1.00  0.00     0.235 C 
HETATM   27  C   UNL     1     -43.405  59.832 -55.758  1.00  0.00     0.035 C 
BRANCH  24  28
HETATM   28  C   UNL     1     -44.392  57.887 -58.896  1.00  0.00     0.273 C 
BRANCH  28  29
HETATM   29  C   UNL     1     -45.591  57.686 -59.781  1.00  0.00    -0.030 A 
HETATM   30  C   UNL     1     -46.313  58.764 -60.308  1.00  0.00     0.048 A 
HETATM   31  C   UNL     1     -47.399  58.536 -61.157  1.00  0.00     0.102 A 
HETATM   32  C   UNL     1     -47.773  57.233 -61.489  1.00  0.00     0.102 A 
HETATM   33  O   UNL     1     -48.054  59.647 -61.620  1.00  0.00    -0.346 OA
HETATM   34  O   UNL     1     -48.833  56.938 -62.304  1.00  0.00    -0.346 OA
HETATM   35  C   UNL     1     -47.044  56.156 -61.000  1.00  0.00     0.040 A 
HETATM   36  C   UNL     1     -49.698  58.065 -62.475  1.00  0.00     0.202 C 
HETATM   37  C   UNL     1     -48.894  59.329 -62.739  1.00  0.00     0.202 C 
HETATM   38  C   UNL     1     -45.962  56.379 -60.147  1.00  0.00     0.012 A 
ENDBRANCH  28  29
ENDBRANCH  24  28
ENDBRANCH   9  21
ENDBRANCH   4   5
ENDBRANCH   3   4
TORSDOF 7
ENDMDL
