MODEL 1
REMARK VINA RESULT:      -8.2      0.000      0.000
REMARK  3 active torsions:
REMARK  status: ('A' for Active; 'I' for Inactive)
REMARK    1  A    between atoms: C_2  and  N_3 
REMARK       I    between atoms: N_3  and  C_4 
REMARK    2  A    between atoms: C_4  and  C_5 
REMARK    3  A    between atoms: C_5  and  C_6 
ROOT
HETATM    1  C   UNL     1     -42.272  55.652 -50.526  1.00  0.00     0.286 C 
HETATM    2  N   UNL     1     -41.378  56.644 -51.267  1.00  0.00    -0.056 N 
HETATM    3  H   UNL     1     -41.391  57.517 -50.723  1.00  0.00     0.278 HD
HETATM    4  H   UNL     1     -40.393  56.317 -51.175  1.00  0.00     0.278 HD
HETATM    5  C   UNL     1     -41.720  56.974 -52.689  1.00  0.00     0.209 C 
HETATM    6  C   UNL     1     -43.226  57.304 -52.791  1.00  0.00     0.115 C 
HETATM    7  N   UNL     1     -44.065  56.307 -52.132  1.00  0.00    -0.353 N 
HETATM    8  C   UNL     1     -43.754  55.741 -50.922  1.00  0.00     0.249 C 
HETATM    9  O   UNL     1     -44.638  55.234 -50.238  1.00  0.00    -0.271 OA
HETATM   10  C   UNL     1     -41.270  55.857 -53.631  1.00  0.00     0.035 C 
HETATM   11  C   UNL     1     -41.691  56.148 -55.068  1.00  0.00     0.002 C 
HETATM   12  C   UNL     1     -43.197  56.373 -55.165  1.00  0.00     0.002 C 
HETATM   13  C   UNL     1     -43.655  57.508 -54.249  1.00  0.00     0.027 C 
HETATM   14  H   UNL     1     -45.072  56.356 -52.286  1.00  0.00     0.163 HD
ENDROOT
BRANCH   1  15
HETATM   15  C   UNL     1     -41.832  54.184 -50.663  1.00  0.00     0.146 C 
BRANCH  15  16
HETATM   16  C   UNL     1     -40.405  53.946 -50.259  1.00  0.00     0.224 C 
HETATM   17  N   UNL     1     -39.609  53.039 -50.881  1.00  0.00    -0.327 N 
HETATM   18  H   UNL     1     -38.690  53.003 -50.447  1.00  0.00     0.169 HD
HETATM   19  O   UNL     1     -39.919  54.635 -49.351  1.00  0.00    -0.273 OA
BRANCH  17  20
HETATM   20  C   UNL     1     -39.768  52.174 -51.983  1.00  0.00     0.034 A 
HETATM   21  C   UNL     1     -40.128  52.548 -53.280  1.00  0.00     0.032 A 
HETATM   22  C   UNL     1     -40.234  51.588 -54.295  1.00  0.00     0.044 A 
HETATM   23  C   UNL     1     -39.981  50.252 -54.019  1.00  0.00     0.116 A 
HETATM   24  C   UNL     1     -39.623  49.855 -52.742  1.00  0.00     0.044 A 
HETATM   25  F   UNL     1     -40.080  49.344 -54.995  1.00  0.00    -0.206 F 
HETATM   26  C   UNL     1     -39.516  50.812 -51.729  1.00  0.00     0.032 A 
ENDBRANCH  17  20
ENDBRANCH  15  16
ENDBRANCH   1  15
TORSDOF 3
ENDMDL
MODEL 2
REMARK VINA RESULT:      -7.5      2.529      4.032
REMARK  3 active torsions:
REMARK  status: ('A' for Active; 'I' for Inactive)
REMARK    1  A    between atoms: C_2  and  N_3 
REMARK       I    between atoms: N_3  and  C_4 
REMARK    2  A    between atoms: C_4  and  C_5 
REMARK    3  A    between atoms: C_5  and  C_6 
ROOT
HETATM    1  C   UNL     1     -43.518  56.021 -53.646  1.00  0.00     0.286 C 
HETATM    2  N   UNL     1     -44.188  56.219 -52.288  1.00  0.00    -0.056 N 
HETATM    3  H   UNL     1     -44.638  57.143 -52.313  1.00  0.00     0.278 HD
HETATM    4  H   UNL     1     -44.993  55.559 -52.229  1.00  0.00     0.278 HD
HETATM    5  C   UNL     1     -43.328  56.150 -51.061  1.00  0.00     0.209 C 
HETATM    6  C   UNL     1     -42.074  57.030 -51.266  1.00  0.00     0.115 C 
HETATM    7  N   UNL     1     -41.412  56.776 -52.542  1.00  0.00    -0.353 N 
HETATM    8  C   UNL     1     -42.091  56.586 -53.719  1.00  0.00     0.249 C 
HETATM    9  O   UNL     1     -41.523  56.769 -54.791  1.00  0.00    -0.271 OA
HETATM   10  C   UNL     1     -43.010  54.700 -50.699  1.00  0.00     0.035 C 
HETATM   11  C   UNL     1     -42.065  54.628 -49.503  1.00  0.00     0.002 C 
HETATM   12  C   UNL     1     -40.788  55.421 -49.762  1.00  0.00     0.002 C 
HETATM   13  C   UNL     1     -41.092  56.881 -50.098  1.00  0.00     0.027 C 
HETATM   14  H   UNL     1     -40.492  57.190 -52.693  1.00  0.00     0.163 HD
ENDROOT
BRANCH   1  15
HETATM   15  C   UNL     1     -43.473  54.556 -54.117  1.00  0.00     0.146 C 
BRANCH  15  16
HETATM   16  C   UNL     1     -42.550  54.328 -55.280  1.00  0.00     0.224 C 
HETATM   17  N   UNL     1     -41.399  53.616 -55.172  1.00  0.00    -0.327 N 
HETATM   18  H   UNL     1     -40.899  53.598 -56.058  1.00  0.00     0.169 HD
HETATM   19  O   UNL     1     -42.872  54.769 -56.392  1.00  0.00    -0.273 OA
BRANCH  17  20
HETATM   20  C   UNL     1     -40.773  52.897 -54.133  1.00  0.00     0.034 A 
HETATM   21  C   UNL     1     -40.507  53.372 -52.846  1.00  0.00     0.032 A 
HETATM   22  C   UNL     1     -39.893  52.545 -51.896  1.00  0.00     0.044 A 
HETATM   23  C   UNL     1     -39.544  51.244 -52.226  1.00  0.00     0.116 A 
HETATM   24  C   UNL     1     -39.797  50.750 -53.494  1.00  0.00     0.044 A 
HETATM   25  F   UNL     1     -38.962  50.462 -51.310  1.00  0.00    -0.206 F 
HETATM   26  C   UNL     1     -40.409  51.573 -54.443  1.00  0.00     0.032 A 
ENDBRANCH  17  20
ENDBRANCH  15  16
ENDBRANCH   1  15
TORSDOF 3
ENDMDL
MODEL 3
REMARK VINA RESULT:      -7.4     13.902     15.968
REMARK  3 active torsions:
REMARK  status: ('A' for Active; 'I' for Inactive)
REMARK    1  A    between atoms: C_2  and  N_3 
REMARK       I    between atoms: N_3  and  C_4 
REMARK    2  A    between atoms: C_4  and  C_5 
REMARK    3  A    between atoms: C_5  and  C_6 
ROOT
HETATM    1  C   UNL     1     -34.740  41.206 -53.789  1.00  0.00     0.286 C 
HETATM    2  N   UNL     1     -34.637  41.919 -52.443  1.00  0.00    -0.056 N 
HETATM    3  H   UNL     1     -34.185  42.825 -52.623  1.00  0.00     0.278 HD
HETATM    4  H   UNL     1     -35.600  42.183 -52.146  1.00  0.00     0.278 HD
HETATM    5  C   UNL     1     -33.888  41.234 -51.339  1.00  0.00     0.209 C 
HETATM    6  C   UNL     1     -32.529  40.730 -51.877  1.00  0.00     0.115 C 
HETATM    7  N   UNL     1     -32.661  39.994 -53.131  1.00  0.00    -0.353 N 
HETATM    8  C   UNL     1     -33.494  40.382 -54.150  1.00  0.00     0.249 C 
HETATM    9  O   UNL     1     -33.289  39.987 -55.293  1.00  0.00    -0.271 OA
HETATM   10  C   UNL     1     -34.740  40.140 -50.699  1.00  0.00     0.035 C 
HETATM   11  C   UNL     1     -33.953  39.383 -49.632  1.00  0.00     0.002 C 
HETATM   12  C   UNL     1     -32.663  38.807 -50.208  1.00  0.00     0.002 C 
HETATM   13  C   UNL     1     -31.787  39.897 -50.825  1.00  0.00     0.027 C 
HETATM   14  H   UNL     1     -31.845  39.488 -53.474  1.00  0.00     0.163 HD
ENDROOT
BRANCH   1  15
HETATM   15  C   UNL     1     -35.969  40.288 -53.922  1.00  0.00     0.146 C 
BRANCH  15  16
HETATM   16  C   UNL     1     -37.277  41.017 -53.802  1.00  0.00     0.224 C 
HETATM   17  N   UNL     1     -37.998  41.409 -54.883  1.00  0.00    -0.327 N 
HETATM   18  H   UNL     1     -38.837  41.911 -54.598  1.00  0.00     0.169 HD
HETATM   19  O   UNL     1     -37.740  41.230 -52.672  1.00  0.00    -0.273 OA
BRANCH  17  20
HETATM   20  C   UNL     1     -37.854  41.258 -56.277  1.00  0.00     0.034 A 
HETATM   21  C   UNL     1     -38.421  40.249 -57.060  1.00  0.00     0.032 A 
HETATM   22  C   UNL     1     -38.215  40.223 -58.446  1.00  0.00     0.044 A 
HETATM   23  C   UNL     1     -37.443  41.203 -59.054  1.00  0.00     0.116 A 
HETATM   24  C   UNL     1     -36.870  42.213 -58.300  1.00  0.00     0.044 A 
HETATM   25  F   UNL     1     -37.256  41.171 -60.377  1.00  0.00    -0.206 F 
HETATM   26  C   UNL     1     -37.076  42.240 -56.918  1.00  0.00     0.032 A 
ENDBRANCH  17  20
ENDBRANCH  15  16
ENDBRANCH   1  15
TORSDOF 3
ENDMDL
MODEL 4
REMARK VINA RESULT:      -7.3      2.660      3.798
REMARK  3 active torsions:
REMARK  status: ('A' for Active; 'I' for Inactive)
REMARK    1  A    between atoms: C_2  and  N_3 
REMARK       I    between atoms: N_3  and  C_4 
REMARK    2  A    between atoms: C_4  and  C_5 
REMARK    3  A    between atoms: C_5  and  C_6 
ROOT
HETATM    1  C   UNL     1     -42.156  57.886 -53.229  1.00  0.00     0.286 C 
HETATM    2  N   UNL     1     -41.751  57.654 -54.683  1.00  0.00    -0.056 N 
HETATM    3  H   UNL     1     -42.382  58.225 -55.260  1.00  0.00     0.278 HD
HETATM    4  H   UNL     1     -40.819  58.097 -54.830  1.00  0.00     0.278 HD
HETATM    5  C   UNL     1     -41.782  56.249 -55.207  1.00  0.00     0.209 C 
HETATM    6  C   UNL     1     -43.128  55.591 -54.827  1.00  0.00     0.115 C 
HETATM    7  N   UNL     1     -43.462  55.769 -53.417  1.00  0.00    -0.353 N 
HETATM    8  C   UNL     1     -43.268  56.946 -52.740  1.00  0.00     0.249 C 
HETATM    9  O   UNL     1     -43.904  57.175 -51.715  1.00  0.00    -0.271 OA
HETATM   10  C   UNL     1     -40.559  55.464 -54.735  1.00  0.00     0.035 C 
HETATM   11  C   UNL     1     -40.629  54.010 -55.194  1.00  0.00     0.002 C 
HETATM   12  C   UNL     1     -41.920  53.347 -54.725  1.00  0.00     0.002 C 
HETATM   13  C   UNL     1     -43.152  54.107 -55.215  1.00  0.00     0.027 C 
HETATM   14  H   UNL     1     -44.246  55.235 -53.043  1.00  0.00     0.163 HD
ENDROOT
BRANCH   1  15
HETATM   15  C   UNL     1     -40.988  57.800 -52.230  1.00  0.00     0.146 C 
BRANCH  15  16
HETATM   16  C   UNL     1     -41.411  57.966 -50.798  1.00  0.00     0.224 C 
HETATM   17  N   UNL     1     -41.470  56.927 -49.927  1.00  0.00    -0.327 N 
HETATM   18  H   UNL     1     -41.804  57.235 -49.016  1.00  0.00     0.169 HD
HETATM   19  O   UNL     1     -41.673  59.104 -50.382  1.00  0.00    -0.273 OA
BRANCH  17  20
HETATM   20  C   UNL     1     -41.157  55.554 -50.000  1.00  0.00     0.034 A 
HETATM   21  C   UNL     1     -40.991  54.808 -51.169  1.00  0.00     0.032 A 
HETATM   22  C   UNL     1     -40.660  53.448 -51.104  1.00  0.00     0.044 A 
HETATM   23  C   UNL     1     -40.494  52.829 -49.874  1.00  0.00     0.116 A 
HETATM   24  C   UNL     1     -40.654  53.546 -48.701  1.00  0.00     0.044 A 
HETATM   25  F   UNL     1     -40.175  51.531 -49.823  1.00  0.00    -0.206 F 
HETATM   26  C   UNL     1     -40.983  54.903 -48.764  1.00  0.00     0.032 A 
ENDBRANCH  17  20
ENDBRANCH  15  16
ENDBRANCH   1  15
TORSDOF 3
ENDMDL
MODEL 5
REMARK VINA RESULT:      -7.3      3.039      4.718
REMARK  3 active torsions:
REMARK  status: ('A' for Active; 'I' for Inactive)
REMARK    1  A    between atoms: C_2  and  N_3 
REMARK       I    between atoms: N_3  and  C_4 
REMARK    2  A    between atoms: C_4  and  C_5 
REMARK    3  A    between atoms: C_5  and  C_6 
ROOT
HETATM    1  C   UNL     1     -43.273  58.677 -54.168  1.00  0.00     0.286 C 
HETATM    2  N   UNL     1     -43.854  58.686 -52.756  1.00  0.00    -0.056 N 
HETATM    3  H   UNL     1     -44.453  59.520 -52.689  1.00  0.00     0.278 HD
HETATM    4  H   UNL     1     -44.529  57.896 -52.682  1.00  0.00     0.278 HD
HETATM    5  C   UNL     1     -42.898  58.703 -51.600  1.00  0.00     0.209 C 
HETATM    6  C   UNL     1     -41.829  59.795 -51.837  1.00  0.00     0.115 C 
HETATM    7  N   UNL     1     -41.240  59.725 -53.170  1.00  0.00    -0.353 N 
HETATM    8  C   UNL     1     -41.971  59.481 -54.306  1.00  0.00     0.249 C 
HETATM    9  O   UNL     1     -41.530  59.815 -55.401  1.00  0.00    -0.271 OA
HETATM   10  C   UNL     1     -42.313  57.313 -51.356  1.00  0.00     0.035 C 
HETATM   11  C   UNL     1     -41.276  57.342 -50.237  1.00  0.00     0.002 C 
HETATM   12  C   UNL     1     -40.175  58.355 -50.535  1.00  0.00     0.002 C 
HETATM   13  C   UNL     1     -40.745  59.756 -50.753  1.00  0.00     0.027 C 
HETATM   14  H   UNL     1     -40.418  60.298 -53.359  1.00  0.00     0.163 HD
ENDROOT
BRANCH   1  15
HETATM   15  C   UNL     1     -43.021  57.268 -54.735  1.00  0.00     0.146 C 
BRANCH  15  16
HETATM   16  C   UNL     1     -44.128  56.296 -54.439  1.00  0.00     0.224 C 
HETATM   17  N   UNL     1     -43.895  55.015 -54.056  1.00  0.00    -0.327 N 
HETATM   18  H   UNL     1     -44.768  54.509 -53.931  1.00  0.00     0.169 HD
HETATM   19  O   UNL     1     -45.301  56.691 -54.504  1.00  0.00    -0.273 OA
BRANCH  17  20
HETATM   20  C   UNL     1     -42.737  54.260 -53.779  1.00  0.00     0.034 A 
HETATM   21  C   UNL     1     -41.868  53.707 -54.723  1.00  0.00     0.032 A 
HETATM   22  C   UNL     1     -40.736  52.990 -54.314  1.00  0.00     0.044 A 
HETATM   23  C   UNL     1     -40.467  52.823 -52.964  1.00  0.00     0.116 A 
HETATM   24  C   UNL     1     -41.312  53.362 -52.009  1.00  0.00     0.044 A 
HETATM   25  F   UNL     1     -39.381  52.141 -52.584  1.00  0.00    -0.206 F 
HETATM   26  C   UNL     1     -42.441  54.077 -52.415  1.00  0.00     0.032 A 
ENDBRANCH  17  20
ENDBRANCH  15  16
ENDBRANCH   1  15
TORSDOF 3
ENDMDL
MODEL 6
REMARK VINA RESULT:      -7.2      1.521      2.158
REMARK  3 active torsions:
REMARK  status: ('A' for Active; 'I' for Inactive)
REMARK    1  A    between atoms: C_2  and  N_3 
REMARK       I    between atoms: N_3  and  C_4 
REMARK    2  A    between atoms: C_4  and  C_5 
REMARK    3  A    between atoms: C_5  and  C_6 
ROOT
HETATM    1  C   UNL     1     -42.678  55.195 -51.558  1.00  0.00     0.286 C 
HETATM    2  N   UNL     1     -42.945  56.376 -50.628  1.00  0.00    -0.056 N 
HETATM    3  H   UNL     1     -43.775  56.134 -50.072  1.00  0.00     0.278 HD
HETATM    4  H   UNL     1     -42.180  56.406 -49.921  1.00  0.00     0.278 HD
HETATM    5  C   UNL     1     -43.174  57.723 -51.248  1.00  0.00     0.209 C 
HETATM    6  C   UNL     1     -44.206  57.591 -52.391  1.00  0.00     0.115 C 
HETATM    7  N   UNL     1     -43.895  56.497 -53.305  1.00  0.00    -0.353 N 
HETATM    8  C   UNL     1     -43.447  55.269 -52.887  1.00  0.00     0.249 C 
HETATM    9  O   UNL     1     -43.576  54.290 -53.615  1.00  0.00    -0.271 OA
HETATM   10  C   UNL     1     -41.852  58.356 -51.682  1.00  0.00     0.035 C 
HETATM   11  C   UNL     1     -42.087  59.687 -52.390  1.00  0.00     0.002 C 
HETATM   12  C   UNL     1     -43.031  59.519 -53.577  1.00  0.00     0.002 C 
HETATM   13  C   UNL     1     -44.368  58.914 -53.150  1.00  0.00     0.027 C 
HETATM   14  H   UNL     1     -44.426  56.436 -54.174  1.00  0.00     0.163 HD
ENDROOT
BRANCH   1  15
HETATM   15  C   UNL     1     -41.190  54.973 -51.883  1.00  0.00     0.146 C 
BRANCH  15  16
HETATM   16  C   UNL     1     -40.419  54.340 -50.761  1.00  0.00     0.224 C 
HETATM   17  N   UNL     1     -39.910  53.084 -50.840  1.00  0.00    -0.327 N 
HETATM   18  H   UNL     1     -39.447  52.824 -49.972  1.00  0.00     0.169 HD
HETATM   19  O   UNL     1     -40.200  55.005 -49.738  1.00  0.00    -0.273 OA
BRANCH  17  20
HETATM   20  C   UNL     1     -39.864  52.096 -51.844  1.00  0.00     0.034 A 
HETATM   21  C   UNL     1     -39.557  50.746 -51.659  1.00  0.00     0.032 A 
HETATM   22  C   UNL     1     -39.565  49.859 -52.744  1.00  0.00     0.044 A 
HETATM   23  C   UNL     1     -39.879  50.315 -54.015  1.00  0.00     0.116 A 
HETATM   24  C   UNL     1     -40.187  51.649 -54.225  1.00  0.00     0.044 A 
HETATM   25  F   UNL     1     -39.888  49.460 -55.043  1.00  0.00    -0.206 F 
HETATM   26  C   UNL     1     -40.180  52.535 -53.144  1.00  0.00     0.032 A 
ENDBRANCH  17  20
ENDBRANCH  15  16
ENDBRANCH   1  15
TORSDOF 3
ENDMDL
MODEL 7
REMARK VINA RESULT:      -7.1     13.761     16.739
REMARK  3 active torsions:
REMARK  status: ('A' for Active; 'I' for Inactive)
REMARK    1  A    between atoms: C_2  and  N_3 
REMARK       I    between atoms: N_3  and  C_4 
REMARK    2  A    between atoms: C_4  and  C_5 
REMARK    3  A    between atoms: C_5  and  C_6 
ROOT
HETATM    1  C   UNL     1     -34.234  40.590 -54.988  1.00  0.00     0.286 C 
HETATM    2  N   UNL     1     -32.912  41.014 -54.353  1.00  0.00    -0.056 N 
HETATM    3  H   UNL     1     -32.344  41.429 -55.103  1.00  0.00     0.278 HD
HETATM    4  H   UNL     1     -33.105  41.820 -53.721  1.00  0.00     0.278 HD
HETATM    5  C   UNL     1     -32.089  39.963 -53.670  1.00  0.00     0.209 C 
HETATM    6  C   UNL     1     -31.963  38.731 -54.594  1.00  0.00     0.115 C 
HETATM    7  N   UNL     1     -33.249  38.302 -55.137  1.00  0.00    -0.353 N 
HETATM    8  C   UNL     1     -34.205  39.176 -55.590  1.00  0.00     0.249 C 
HETATM    9  O   UNL     1     -35.065  38.790 -56.375  1.00  0.00    -0.271 OA
HETATM   10  C   UNL     1     -32.655  39.640 -52.288  1.00  0.00     0.035 C 
HETATM   11  C   UNL     1     -31.872  38.511 -51.624  1.00  0.00     0.002 C 
HETATM   12  C   UNL     1     -31.843  37.268 -52.509  1.00  0.00     0.002 C 
HETATM   13  C   UNL     1     -31.252  37.572 -53.884  1.00  0.00     0.027 C 
HETATM   14  H   UNL     1     -33.286  37.407 -55.624  1.00  0.00     0.163 HD
ENDROOT
BRANCH   1  15
HETATM   15  C   UNL     1     -35.443  40.676 -54.040  1.00  0.00     0.146 C 
BRANCH  15  16
HETATM   16  C   UNL     1     -36.176  41.985 -54.120  1.00  0.00     0.224 C 
HETATM   17  N   UNL     1     -36.901  42.352 -55.208  1.00  0.00    -0.327 N 
HETATM   18  H   UNL     1     -37.297  43.281 -55.084  1.00  0.00     0.169 HD
HETATM   19  O   UNL     1     -36.157  42.741 -53.139  1.00  0.00    -0.273 OA
BRANCH  17  20
HETATM   20  C   UNL     1     -37.233  41.734 -56.431  1.00  0.00     0.034 A 
HETATM   21  C   UNL     1     -38.187  40.731 -56.616  1.00  0.00     0.032 A 
HETATM   22  C   UNL     1     -38.436  40.212 -57.893  1.00  0.00     0.044 A 
HETATM   23  C   UNL     1     -37.735  40.693 -58.989  1.00  0.00     0.116 A 
HETATM   24  C   UNL     1     -36.784  41.687 -58.833  1.00  0.00     0.044 A 
HETATM   25  F   UNL     1     -37.984  40.194 -60.205  1.00  0.00    -0.206 F 
HETATM   26  C   UNL     1     -36.535  42.205 -57.559  1.00  0.00     0.032 A 
ENDBRANCH  17  20
ENDBRANCH  15  16
ENDBRANCH   1  15
TORSDOF 3
ENDMDL
MODEL 8
REMARK VINA RESULT:      -7.1     13.733     16.351
REMARK  3 active torsions:
REMARK  status: ('A' for Active; 'I' for Inactive)
REMARK    1  A    between atoms: C_2  and  N_3 
REMARK       I    between atoms: N_3  and  C_4 
REMARK    2  A    between atoms: C_4  and  C_5 
REMARK    3  A    between atoms: C_5  and  C_6 
ROOT
HETATM    1  C   UNL     1     -34.613  40.051 -54.236  1.00  0.00     0.286 C 
HETATM    2  N   UNL     1     -33.445  40.877 -53.703  1.00  0.00    -0.056 N 
HETATM    3  H   UNL     1     -32.729  40.888 -54.441  1.00  0.00     0.278 HD
HETATM    4  H   UNL     1     -33.754  41.872 -53.651  1.00  0.00     0.278 HD
HETATM    5  C   UNL     1     -32.794  40.436 -52.426  1.00  0.00     0.209 C 
HETATM    6  C   UNL     1     -32.496  38.921 -52.500  1.00  0.00     0.115 C 
HETATM    7  N   UNL     1     -33.647  38.144 -52.949  1.00  0.00    -0.353 N 
HETATM    8  C   UNL     1     -34.478  38.544 -53.965  1.00  0.00     0.249 C 
HETATM    9  O   UNL     1     -35.162  37.717 -54.559  1.00  0.00    -0.271 OA
HETATM   10  C   UNL     1     -33.638  40.838 -51.216  1.00  0.00     0.035 C 
HETATM   11  C   UNL     1     -33.023  40.317 -49.921  1.00  0.00     0.002 C 
HETATM   12  C   UNL     1     -32.828  38.804 -49.975  1.00  0.00     0.002 C 
HETATM   13  C   UNL     1     -31.961  38.392 -51.164  1.00  0.00     0.027 C 
HETATM   14  H   UNL     1     -33.594  37.128 -52.874  1.00  0.00     0.163 HD
ENDROOT
BRANCH   1  15
HETATM   15  C   UNL     1     -35.991  40.503 -53.720  1.00  0.00     0.146 C 
BRANCH  15  16
HETATM   16  C   UNL     1     -36.279  41.955 -53.974  1.00  0.00     0.224 C 
HETATM   17  N   UNL     1     -36.758  42.411 -55.160  1.00  0.00    -0.327 N 
HETATM   18  H   UNL     1     -36.860  43.423 -55.145  1.00  0.00     0.169 HD
HETATM   19  O   UNL     1     -36.116  42.766 -53.050  1.00  0.00    -0.273 OA
BRANCH  17  20
HETATM   20  C   UNL     1     -37.153  41.800 -56.367  1.00  0.00     0.034 A 
HETATM   21  C   UNL     1     -38.226  40.922 -56.535  1.00  0.00     0.032 A 
HETATM   22  C   UNL     1     -38.527  40.397 -57.799  1.00  0.00     0.044 A 
HETATM   23  C   UNL     1     -37.758  40.747 -58.899  1.00  0.00     0.116 A 
HETATM   24  C   UNL     1     -36.689  41.615 -58.760  1.00  0.00     0.044 A 
HETATM   25  F   UNL     1     -38.056  40.244 -60.102  1.00  0.00    -0.206 F 
HETATM   26  C   UNL     1     -36.389  42.140 -57.499  1.00  0.00     0.032 A 
ENDBRANCH  17  20
ENDBRANCH  15  16
ENDBRANCH   1  15
TORSDOF 3
ENDMDL
MODEL 9
REMARK VINA RESULT:      -7.0      2.285      3.235
REMARK  3 active torsions:
REMARK  status: ('A' for Active; 'I' for Inactive)
REMARK    1  A    between atoms: C_2  and  N_3 
REMARK       I    between atoms: N_3  and  C_4 
REMARK    2  A    between atoms: C_4  and  C_5 
REMARK    3  A    between atoms: C_5  and  C_6 
ROOT
HETATM    1  C   UNL     1     -41.405  56.243 -52.641  1.00  0.00     0.286 C 
HETATM    2  N   UNL     1     -41.450  57.544 -53.440  1.00  0.00    -0.056 N 
HETATM    3  H   UNL     1     -40.555  58.023 -53.274  1.00  0.00     0.278 HD
HETATM    4  H   UNL     1     -41.410  57.299 -54.452  1.00  0.00     0.278 HD
HETATM    5  C   UNL     1     -42.558  58.511 -53.150  1.00  0.00     0.209 C 
HETATM    6  C   UNL     1     -42.669  58.720 -51.622  1.00  0.00     0.115 C 
HETATM    7  N   UNL     1     -42.691  57.461 -50.883  1.00  0.00    -0.353 N 
HETATM    8  C   UNL     1     -41.886  56.393 -51.189  1.00  0.00     0.249 C 
HETATM    9  O   UNL     1     -41.652  55.539 -50.339  1.00  0.00    -0.271 OA
HETATM   10  C   UNL     1     -43.863  58.058 -53.804  1.00  0.00     0.035 C 
HETATM   11  C   UNL     1     -45.013  58.993 -53.442  1.00  0.00     0.002 C 
HETATM   12  C   UNL     1     -45.170  59.109 -51.928  1.00  0.00     0.002 C 
HETATM   13  C   UNL     1     -43.880  59.590 -51.265  1.00  0.00     0.027 C 
HETATM   14  H   UNL     1     -42.923  57.496 -49.891  1.00  0.00     0.163 HD
ENDROOT
BRANCH   1  15
HETATM   15  C   UNL     1     -42.189  55.084 -53.282  1.00  0.00     0.146 C 
BRANCH  15  16
HETATM   16  C   UNL     1     -41.592  54.597 -54.571  1.00  0.00     0.224 C 
HETATM   17  N   UNL     1     -40.803  53.495 -54.641  1.00  0.00    -0.327 N 
HETATM   18  H   UNL     1     -40.473  53.344 -55.592  1.00  0.00     0.169 HD
HETATM   19  O   UNL     1     -41.865  55.197 -55.620  1.00  0.00    -0.273 OA
BRANCH  17  20
HETATM   20  C   UNL     1     -40.369  52.526 -53.713  1.00  0.00     0.034 A 
HETATM   21  C   UNL     1     -40.163  52.728 -52.346  1.00  0.00     0.032 A 
HETATM   22  C   UNL     1     -39.748  51.672 -51.525  1.00  0.00     0.044 A 
HETATM   23  C   UNL     1     -39.536  50.412 -52.064  1.00  0.00     0.116 A 
HETATM   24  C   UNL     1     -39.733  50.185 -53.416  1.00  0.00     0.044 A 
HETATM   25  F   UNL     1     -39.143  49.409 -51.271  1.00  0.00    -0.206 F 
HETATM   26  C   UNL     1     -40.148  51.238 -54.236  1.00  0.00     0.032 A 
ENDBRANCH  17  20
ENDBRANCH  15  16
ENDBRANCH   1  15
TORSDOF 3
ENDMDL
MODEL 10
REMARK VINA RESULT:      -7.0     14.096     15.675
REMARK  3 active torsions:
REMARK  status: ('A' for Active; 'I' for Inactive)
REMARK    1  A    between atoms: C_2  and  N_3 
REMARK       I    between atoms: N_3  and  C_4 
REMARK    2  A    between atoms: C_4  and  C_5 
REMARK    3  A    between atoms: C_5  and  C_6 
ROOT
HETATM    1  C   UNL     1     -36.758  40.178 -54.431  1.00  0.00     0.286 C 
HETATM    2  N   UNL     1     -37.776  41.202 -54.928  1.00  0.00    -0.056 N 
HETATM    3  H   UNL     1     -38.683  40.937 -54.522  1.00  0.00     0.278 HD
HETATM    4  H   UNL     1     -37.562  42.113 -54.471  1.00  0.00     0.278 HD
HETATM    5  C   UNL     1     -37.953  41.357 -56.409  1.00  0.00     0.209 C 
HETATM    6  C   UNL     1     -38.114  39.962 -57.054  1.00  0.00     0.115 C 
HETATM    7  N   UNL     1     -37.091  39.018 -56.615  1.00  0.00    -0.353 N 
HETATM    8  C   UNL     1     -36.658  38.926 -55.316  1.00  0.00     0.249 C 
HETATM    9  O   UNL     1     -36.117  37.897 -54.923  1.00  0.00    -0.271 OA
HETATM   10  C   UNL     1     -36.819  42.185 -57.010  1.00  0.00     0.035 C 
HETATM   11  C   UNL     1     -36.948  42.274 -58.528  1.00  0.00     0.002 C 
HETATM   12  C   UNL     1     -37.006  40.885 -59.157  1.00  0.00     0.002 C 
HETATM   13  C   UNL     1     -38.155  40.057 -58.584  1.00  0.00     0.027 C 
HETATM   14  H   UNL     1     -37.021  38.128 -57.107  1.00  0.00     0.163 HD
ENDROOT
BRANCH   1  15
HETATM   15  C   UNL     1     -35.338  40.742 -54.246  1.00  0.00     0.146 C 
BRANCH  15  16
HETATM   16  C   UNL     1     -35.283  41.949 -53.355  1.00  0.00     0.224 C 
HETATM   17  N   UNL     1     -34.645  41.946 -52.156  1.00  0.00    -0.327 N 
HETATM   18  H   UNL     1     -34.744  42.846 -51.690  1.00  0.00     0.169 HD
HETATM   19  O   UNL     1     -35.802  43.004 -53.747  1.00  0.00    -0.273 OA
BRANCH  17  20
HETATM   20  C   UNL     1     -33.878  41.001 -51.446  1.00  0.00     0.034 A 
HETATM   21  C   UNL     1     -32.507  40.777 -51.588  1.00  0.00     0.032 A 
HETATM   22  C   UNL     1     -31.856  39.816 -50.803  1.00  0.00     0.044 A 
HETATM   23  C   UNL     1     -32.572  39.076 -49.874  1.00  0.00     0.116 A 
HETATM   24  C   UNL     1     -33.933  39.278 -49.714  1.00  0.00     0.044 A 
HETATM   25  F   UNL     1     -31.942  38.163 -49.127  1.00  0.00    -0.206 F 
HETATM   26  C   UNL     1     -34.582  40.237 -50.496  1.00  0.00     0.032 A 
ENDBRANCH  17  20
ENDBRANCH  15  16
ENDBRANCH   1  15
TORSDOF 3
ENDMDL
