MODEL 1
REMARK VINA RESULT:      -8.7      0.000      0.000
REMARK  6 active torsions:
REMARK  status: ('A' for Active; 'I' for Inactive)
REMARK    1  A    between atoms: C_2  and  O_3 
REMARK    2  A    between atoms: C_2  and  C_4 
REMARK    3  A    between atoms: C_6  and  N_7 
REMARK       I    between atoms: N_7  and  C_8 
REMARK    4  A    between atoms: C_8  and  C_9 
REMARK    5  A    between atoms: C_12  and  C_13 
REMARK    6  A    between atoms: C_18  and  C_19 
ROOT
HETATM    1  C   UNL     1     -42.740  56.880 -55.905  1.00  0.00     0.096 A 
HETATM    2  C   UNL     1     -42.574  57.032 -57.269  1.00  0.00     0.138 A 
HETATM    3  N   UNL     1     -42.792  58.357 -57.551  1.00  0.00    -0.240 N 
HETATM    4  C   UNL     1     -42.832  58.909 -58.896  1.00  0.00     0.221 C 
HETATM    5  C   UNL     1     -42.203  57.928 -59.908  1.00  0.00     0.068 C 
HETATM    6  C   UNL     1     -42.640  56.479 -59.641  1.00  0.00     0.143 C 
HETATM    7  N   UNL     1     -42.280  56.151 -58.259  1.00  0.00    -0.363 N 
HETATM    8  N   UNL     1     -43.162  59.071 -56.475  1.00  0.00    -0.181 NA
HETATM    9  C   UNL     1     -43.100  58.183 -55.478  1.00  0.00     0.160 A 
HETATM   10  H   UNL     1     -42.330  55.153 -58.031  1.00  0.00     0.162 HD
ENDROOT
BRANCH   1  11
HETATM   11  C   UNL     1     -42.621  55.626 -55.166  1.00  0.00     0.261 C 
HETATM   12  N   UNL     1     -41.334  55.334 -54.745  1.00  0.00    -0.323 N 
HETATM   13  H   UNL     1     -40.600  55.961 -55.038  1.00  0.00     0.169 HD
HETATM   14  O   UNL     1     -43.610  54.929 -54.958  1.00  0.00    -0.267 OA
BRANCH  12  15
HETATM   15  C   UNL     1     -40.907  54.236 -53.968  1.00  0.00     0.035 A 
HETATM   16  C   UNL     1     -40.696  52.949 -54.473  1.00  0.00     0.039 A 
HETATM   17  C   UNL     1     -40.281  51.897 -53.637  1.00  0.00    -0.028 A 
HETATM   18  C   UNL     1     -40.070  52.157 -52.277  1.00  0.00     0.010 A 
HETATM   19  C   UNL     1     -40.277  53.433 -51.763  1.00  0.00     0.003 A 
HETATM   20  C   UNL     1     -40.692  54.467 -52.604  1.00  0.00     0.029 A 
BRANCH  17  21
HETATM   21  C   UNL     1     -40.033  50.525 -54.226  1.00  0.00     0.147 C 
HETATM   22  C   UNL     1     -39.472  49.564 -53.186  1.00  0.00     0.044 C 
BRANCH  21  23
HETATM   23  O   UNL     1     -41.250  49.991 -54.747  1.00  0.00    -0.391 OA
HETATM   24  H   UNL     1     -41.712  50.723 -55.189  1.00  0.00     0.210 HD
ENDBRANCH  21  23
ENDBRANCH  17  21
ENDBRANCH  12  15
ENDBRANCH   1  11
BRANCH   4  25
HETATM   25  C   UNL     1     -42.121  60.241 -58.975  1.00  0.00     0.409 C 
HETATM   26  F   UNL     1     -41.050  60.306 -58.151  1.00  0.00    -0.169 F 
HETATM   27  F   UNL     1     -41.648  60.434 -60.237  1.00  0.00    -0.169 F 
HETATM   28  F   UNL     1     -42.919  61.297 -58.712  1.00  0.00    -0.169 F 
ENDBRANCH   4  25
BRANCH   6  29
HETATM   29  C   UNL     1     -44.081  56.254 -59.991  1.00  0.00     0.075 A 
HETATM   30  O   UNL     1     -44.330  55.484 -61.091  1.00  0.00    -0.325 OA
HETATM   31  C   UNL     1     -45.679  55.407 -61.227  1.00  0.00     0.142 A 
HETATM   32  C   UNL     1     -46.305  56.116 -60.229  1.00  0.00     0.027 A 
HETATM   33  C   UNL     1     -45.275  56.661 -59.428  1.00  0.00     0.037 A 
ENDBRANCH   6  29
TORSDOF 6
ENDMDL
MODEL 2
REMARK VINA RESULT:      -8.6      1.313      2.063
REMARK  6 active torsions:
REMARK  status: ('A' for Active; 'I' for Inactive)
REMARK    1  A    between atoms: C_2  and  O_3 
REMARK    2  A    between atoms: C_2  and  C_4 
REMARK    3  A    between atoms: C_6  and  N_7 
REMARK       I    between atoms: N_7  and  C_8 
REMARK    4  A    between atoms: C_8  and  C_9 
REMARK    5  A    between atoms: C_12  and  C_13 
REMARK    6  A    between atoms: C_18  and  C_19 
ROOT
HETATM    1  C   UNL     1     -42.799  57.245 -55.947  1.00  0.00     0.096 A 
HETATM    2  C   UNL     1     -42.586  57.286 -57.312  1.00  0.00     0.138 A 
HETATM    3  N   UNL     1     -42.790  58.584 -57.708  1.00  0.00    -0.240 N 
HETATM    4  C   UNL     1     -42.782  59.025 -59.093  1.00  0.00     0.221 C 
HETATM    5  C   UNL     1     -42.121  57.965 -60.000  1.00  0.00     0.068 C 
HETATM    6  C   UNL     1     -42.571  56.543 -59.633  1.00  0.00     0.143 C 
HETATM    7  N   UNL     1     -42.260  56.328 -58.217  1.00  0.00    -0.363 N 
HETATM    8  N   UNL     1     -43.195  59.382 -56.706  1.00  0.00    -0.181 NA
HETATM    9  C   UNL     1     -43.170  58.578 -55.640  1.00  0.00     0.160 A 
HETATM   10  H   UNL     1     -42.321  55.352 -57.911  1.00  0.00     0.162 HD
ENDROOT
BRANCH   1  11
HETATM   11  C   UNL     1     -42.709  56.054 -55.106  1.00  0.00     0.261 C 
HETATM   12  N   UNL     1     -41.414  55.674 -54.795  1.00  0.00    -0.323 N 
HETATM   13  H   UNL     1     -40.665  56.197 -55.224  1.00  0.00     0.169 HD
HETATM   14  O   UNL     1     -43.726  55.480 -54.728  1.00  0.00    -0.267 OA
BRANCH  12  15
HETATM   15  C   UNL     1     -41.000  54.611 -53.964  1.00  0.00     0.035 A 
HETATM   16  C   UNL     1     -41.069  54.631 -52.568  1.00  0.00     0.039 A 
HETATM   17  C   UNL     1     -40.626  53.537 -51.801  1.00  0.00    -0.028 A 
HETATM   18  C   UNL     1     -40.118  52.411 -52.460  1.00  0.00     0.010 A 
HETATM   19  C   UNL     1     -40.044  52.380 -53.849  1.00  0.00     0.003 A 
HETATM   20  C   UNL     1     -40.484  53.474 -54.597  1.00  0.00     0.029 A 
BRANCH  17  21
HETATM   21  C   UNL     1     -40.745  53.583 -50.293  1.00  0.00     0.147 C 
HETATM   22  C   UNL     1     -39.563  54.310 -49.662  1.00  0.00     0.044 C 
BRANCH  21  23
HETATM   23  O   UNL     1     -41.953  54.244 -49.920  1.00  0.00    -0.391 OA
HETATM   24  H   UNL     1     -41.853  54.510 -48.991  1.00  0.00     0.210 HD
ENDBRANCH  21  23
ENDBRANCH  17  21
ENDBRANCH  12  15
ENDBRANCH   1  11
BRANCH   4  25
HETATM   25  C   UNL     1     -42.065  60.347 -59.255  1.00  0.00     0.409 C 
HETATM   26  F   UNL     1     -41.009  60.468 -58.419  1.00  0.00    -0.169 F 
HETATM   27  F   UNL     1     -41.570  60.448 -60.519  1.00  0.00    -0.169 F 
HETATM   28  F   UNL     1     -42.864  61.421 -59.082  1.00  0.00    -0.169 F 
ENDBRANCH   4  25
BRANCH   6  29
HETATM   29  C   UNL     1     -44.000  56.291 -60.013  1.00  0.00     0.075 A 
HETATM   30  O   UNL     1     -44.211  55.507 -61.111  1.00  0.00    -0.325 OA
HETATM   31  C   UNL     1     -45.555  55.406 -61.277  1.00  0.00     0.142 A 
HETATM   32  C   UNL     1     -46.215  56.113 -60.300  1.00  0.00     0.027 A 
HETATM   33  C   UNL     1     -45.213  56.683 -59.481  1.00  0.00     0.037 A 
ENDBRANCH   6  29
TORSDOF 6
ENDMDL
MODEL 3
REMARK VINA RESULT:      -8.3      2.030      2.685
REMARK  6 active torsions:
REMARK  status: ('A' for Active; 'I' for Inactive)
REMARK    1  A    between atoms: C_2  and  O_3 
REMARK    2  A    between atoms: C_2  and  C_4 
REMARK    3  A    between atoms: C_6  and  N_7 
REMARK       I    between atoms: N_7  and  C_8 
REMARK    4  A    between atoms: C_8  and  C_9 
REMARK    5  A    between atoms: C_12  and  C_13 
REMARK    6  A    between atoms: C_18  and  C_19 
ROOT
HETATM    1  C   UNL     1     -43.095  56.879 -55.180  1.00  0.00     0.096 A 
HETATM    2  C   UNL     1     -43.181  57.306 -56.492  1.00  0.00     0.138 A 
HETATM    3  N   UNL     1     -44.366  57.987 -56.613  1.00  0.00    -0.240 N 
HETATM    4  C   UNL     1     -44.892  58.493 -57.870  1.00  0.00     0.221 C 
HETATM    5  C   UNL     1     -43.785  58.538 -58.946  1.00  0.00     0.068 C 
HETATM    6  C   UNL     1     -42.911  57.275 -58.914  1.00  0.00     0.143 C 
HETATM    7  N   UNL     1     -42.361  57.147 -57.562  1.00  0.00    -0.363 N 
HETATM    8  N   UNL     1     -45.099  57.971 -55.487  1.00  0.00    -0.181 NA
HETATM    9  C   UNL     1     -44.316  57.329 -54.616  1.00  0.00     0.160 A 
HETATM   10  H   UNL     1     -41.600  56.465 -57.474  1.00  0.00     0.162 HD
ENDROOT
BRANCH   1  11
HETATM   11  C   UNL     1     -42.003  56.096 -54.608  1.00  0.00     0.261 C 
HETATM   12  N   UNL     1     -42.357  54.806 -54.249  1.00  0.00    -0.323 N 
HETATM   13  H   UNL     1     -43.328  54.551 -54.345  1.00  0.00     0.169 HD
HETATM   14  O   UNL     1     -40.884  56.586 -54.484  1.00  0.00    -0.267 OA
BRANCH  12  15
HETATM   15  C   UNL     1     -41.522  53.795 -53.727  1.00  0.00     0.035 A 
HETATM   16  C   UNL     1     -41.197  53.664 -52.373  1.00  0.00     0.039 A 
HETATM   17  C   UNL     1     -40.346  52.637 -51.924  1.00  0.00    -0.028 A 
HETATM   18  C   UNL     1     -39.830  51.730 -52.858  1.00  0.00     0.010 A 
HETATM   19  C   UNL     1     -40.146  51.851 -54.208  1.00  0.00     0.003 A 
HETATM   20  C   UNL     1     -40.988  52.877 -54.639  1.00  0.00     0.029 A 
BRANCH  17  21
HETATM   21  C   UNL     1     -40.042  52.508 -50.447  1.00  0.00     0.147 C 
HETATM   22  C   UNL     1     -40.788  53.557 -49.632  1.00  0.00     0.044 C 
BRANCH  21  23
HETATM   23  O   UNL     1     -40.410  51.209 -49.986  1.00  0.00    -0.391 OA
HETATM   24  H   UNL     1     -40.232  50.591 -50.714  1.00  0.00     0.210 HD
ENDBRANCH  21  23
ENDBRANCH  17  21
ENDBRANCH  12  15
ENDBRANCH   1  11
BRANCH   4  25
HETATM   25  C   UNL     1     -45.495  59.870 -57.710  1.00  0.00     0.409 C 
HETATM   26  F   UNL     1     -44.791  60.647 -56.854  1.00  0.00    -0.169 F 
HETATM   27  F   UNL     1     -45.490  60.516 -58.908  1.00  0.00    -0.169 F 
HETATM   28  F   UNL     1     -46.781  59.854 -57.302  1.00  0.00    -0.169 F 
ENDBRANCH   4  25
BRANCH   6  29
HETATM   29  C   UNL     1     -43.650  56.068 -59.413  1.00  0.00     0.075 A 
HETATM   30  O   UNL     1     -44.154  56.142 -60.681  1.00  0.00    -0.325 OA
HETATM   31  C   UNL     1     -44.776  54.961 -60.932  1.00  0.00     0.142 A 
HETATM   32  C   UNL     1     -44.679  54.125 -59.845  1.00  0.00     0.027 A 
HETATM   33  C   UNL     1     -43.949  54.837 -58.864  1.00  0.00     0.037 A 
ENDBRANCH   6  29
TORSDOF 6
ENDMDL
MODEL 4
REMARK VINA RESULT:      -8.2      1.971      2.334
REMARK  6 active torsions:
REMARK  status: ('A' for Active; 'I' for Inactive)
REMARK    1  A    between atoms: C_2  and  O_3 
REMARK    2  A    between atoms: C_2  and  C_4 
REMARK    3  A    between atoms: C_6  and  N_7 
REMARK       I    between atoms: N_7  and  C_8 
REMARK    4  A    between atoms: C_8  and  C_9 
REMARK    5  A    between atoms: C_12  and  C_13 
REMARK    6  A    between atoms: C_18  and  C_19 
ROOT
HETATM    1  C   UNL     1     -43.097  56.400 -55.079  1.00  0.00     0.096 A 
HETATM    2  C   UNL     1     -43.231  57.043 -56.295  1.00  0.00     0.138 A 
HETATM    3  N   UNL     1     -44.439  57.694 -56.270  1.00  0.00    -0.240 N 
HETATM    4  C   UNL     1     -45.014  58.391 -57.409  1.00  0.00     0.221 C 
HETATM    5  C   UNL     1     -43.939  58.658 -58.485  1.00  0.00     0.068 C 
HETATM    6  C   UNL     1     -43.027  57.439 -58.691  1.00  0.00     0.143 C 
HETATM    7  N   UNL     1     -42.436  57.099 -57.394  1.00  0.00    -0.363 N 
HETATM    8  N   UNL     1     -45.140  57.460 -55.148  1.00  0.00    -0.181 NA
HETATM    9  C   UNL     1     -44.314  56.704 -54.419  1.00  0.00     0.160 A 
HETATM   10  H   UNL     1     -41.654  56.439 -57.442  1.00  0.00     0.162 HD
ENDROOT
BRANCH   1  11
HETATM   11  C   UNL     1     -41.967  55.568 -54.675  1.00  0.00     0.261 C 
HETATM   12  N   UNL     1     -42.189  54.826 -53.527  1.00  0.00    -0.323 N 
HETATM   13  H   UNL     1     -43.062  54.976 -53.044  1.00  0.00     0.169 HD
HETATM   14  O   UNL     1     -40.932  55.558 -55.336  1.00  0.00    -0.267 OA
BRANCH  12  15
HETATM   15  C   UNL     1     -41.322  53.894 -52.919  1.00  0.00     0.035 A 
HETATM   16  C   UNL     1     -40.937  52.681 -53.499  1.00  0.00     0.039 A 
HETATM   17  C   UNL     1     -40.078  51.792 -52.828  1.00  0.00    -0.028 A 
HETATM   18  C   UNL     1     -39.597  52.143 -51.561  1.00  0.00     0.010 A 
HETATM   19  C   UNL     1     -39.974  53.346 -50.972  1.00  0.00     0.003 A 
HETATM   20  C   UNL     1     -40.830  54.217 -51.648  1.00  0.00     0.029 A 
BRANCH  17  21
HETATM   21  C   UNL     1     -39.659  50.503 -53.503  1.00  0.00     0.147 C 
HETATM   22  C   UNL     1     -39.540  49.362 -52.499  1.00  0.00     0.044 C 
BRANCH  21  23
HETATM   23  O   UNL     1     -40.610  50.147 -54.505  1.00  0.00    -0.391 OA
HETATM   24  H   UNL     1     -41.458  50.011 -54.053  1.00  0.00     0.210 HD
ENDBRANCH  21  23
ENDBRANCH  17  21
ENDBRANCH  12  15
ENDBRANCH   1  11
BRANCH   4  25
HETATM   25  C   UNL     1     -45.653  59.699 -56.999  1.00  0.00     0.409 C 
HETATM   26  F   UNL     1     -45.220  60.742 -57.743  1.00  0.00    -0.169 F 
HETATM   27  F   UNL     1     -47.000  59.628 -57.183  1.00  0.00    -0.169 F 
HETATM   28  F   UNL     1     -45.471  60.006 -55.698  1.00  0.00    -0.169 F 
ENDBRANCH   4  25
BRANCH   6  29
HETATM   29  C   UNL     1     -43.743  56.312 -59.375  1.00  0.00     0.075 A 
HETATM   30  O   UNL     1     -43.711  55.099 -58.749  1.00  0.00    -0.325 OA
HETATM   31  C   UNL     1     -44.410  54.231 -59.525  1.00  0.00     0.142 A 
HETATM   32  C   UNL     1     -44.895  54.867 -60.643  1.00  0.00     0.027 A 
HETATM   33  C   UNL     1     -44.467  56.212 -60.547  1.00  0.00     0.037 A 
ENDBRANCH   6  29
TORSDOF 6
ENDMDL
MODEL 5
REMARK VINA RESULT:      -8.1      1.613      2.037
REMARK  6 active torsions:
REMARK  status: ('A' for Active; 'I' for Inactive)
REMARK    1  A    between atoms: C_2  and  O_3 
REMARK    2  A    between atoms: C_2  and  C_4 
REMARK    3  A    between atoms: C_6  and  N_7 
REMARK       I    between atoms: N_7  and  C_8 
REMARK    4  A    between atoms: C_8  and  C_9 
REMARK    5  A    between atoms: C_12  and  C_13 
REMARK    6  A    between atoms: C_18  and  C_19 
ROOT
HETATM    1  C   UNL     1     -43.100  58.291 -56.219  1.00  0.00     0.096 A 
HETATM    2  C   UNL     1     -42.854  58.107 -57.566  1.00  0.00     0.138 A 
HETATM    3  N   UNL     1     -43.674  58.974 -58.243  1.00  0.00    -0.240 N 
HETATM    4  C   UNL     1     -43.809  59.008 -59.690  1.00  0.00     0.221 C 
HETATM    5  C   UNL     1     -42.641  58.259 -60.366  1.00  0.00     0.068 C 
HETATM    6  C   UNL     1     -42.313  56.945 -59.639  1.00  0.00     0.143 C 
HETATM    7  N   UNL     1     -42.025  57.269 -58.239  1.00  0.00    -0.363 N 
HETATM    8  N   UNL     1     -44.495  59.663 -57.433  1.00  0.00    -0.181 NA
HETATM    9  C   UNL     1     -44.125  59.271 -56.211  1.00  0.00     0.160 A 
HETATM   10  H   UNL     1     -41.592  56.508 -57.706  1.00  0.00     0.162 HD
ENDROOT
BRANCH   1  11
HETATM   11  C   UNL     1     -42.461  57.561 -55.128  1.00  0.00     0.261 C 
HETATM   12  N   UNL     1     -42.978  56.294 -54.912  1.00  0.00    -0.323 N 
HETATM   13  H   UNL     1     -43.777  56.023 -55.465  1.00  0.00     0.169 HD
HETATM   14  O   UNL     1     -41.542  58.069 -54.491  1.00  0.00    -0.267 OA
BRANCH  12  15
HETATM   15  C   UNL     1     -42.542  55.330 -53.978  1.00  0.00     0.035 A 
HETATM   16  C   UNL     1     -41.592  54.342 -54.253  1.00  0.00     0.039 A 
HETATM   17  C   UNL     1     -41.214  53.403 -53.276  1.00  0.00    -0.028 A 
HETATM   18  C   UNL     1     -41.799  53.475 -52.006  1.00  0.00     0.010 A 
HETATM   19  C   UNL     1     -42.747  54.454 -51.721  1.00  0.00     0.003 A 
HETATM   20  C   UNL     1     -43.115  55.376 -52.701  1.00  0.00     0.029 A 
BRANCH  17  21
HETATM   21  C   UNL     1     -40.158  52.368 -53.601  1.00  0.00     0.147 C 
HETATM   22  C   UNL     1     -39.592  51.733 -52.337  1.00  0.00     0.044 C 
BRANCH  21  23
HETATM   23  O   UNL     1     -40.716  51.347 -54.427  1.00  0.00    -0.391 OA
HETATM   24  H   UNL     1     -40.853  51.739 -55.305  1.00  0.00     0.210 HD
ENDBRANCH  21  23
ENDBRANCH  17  21
ENDBRANCH  12  15
ENDBRANCH   1  11
BRANCH   4  25
HETATM   25  C   UNL     1     -43.870  60.425 -60.213  1.00  0.00     0.409 C 
HETATM   26  F   UNL     1     -43.524  60.510 -61.518  1.00  0.00    -0.169 F 
HETATM   27  F   UNL     1     -45.145  60.894 -60.122  1.00  0.00    -0.169 F 
HETATM   28  F   UNL     1     -43.105  61.292 -59.518  1.00  0.00    -0.169 F 
ENDBRANCH   4  25
BRANCH   6  29
HETATM   29  C   UNL     1     -43.380  55.910 -59.843  1.00  0.00     0.075 A 
HETATM   30  O   UNL     1     -44.025  55.927 -61.047  1.00  0.00    -0.325 OA
HETATM   31  C   UNL     1     -44.938  54.922 -61.024  1.00  0.00     0.142 A 
HETATM   32  C   UNL     1     -44.890  54.255 -59.823  1.00  0.00     0.027 A 
HETATM   33  C   UNL     1     -43.882  54.890 -59.060  1.00  0.00     0.037 A 
ENDBRANCH   6  29
TORSDOF 6
ENDMDL
MODEL 6
REMARK VINA RESULT:      -8.1      3.458      7.925
REMARK  6 active torsions:
REMARK  status: ('A' for Active; 'I' for Inactive)
REMARK    1  A    between atoms: C_2  and  O_3 
REMARK    2  A    between atoms: C_2  and  C_4 
REMARK    3  A    between atoms: C_6  and  N_7 
REMARK       I    between atoms: N_7  and  C_8 
REMARK    4  A    between atoms: C_8  and  C_9 
REMARK    5  A    between atoms: C_12  and  C_13 
REMARK    6  A    between atoms: C_18  and  C_19 
ROOT
HETATM    1  C   UNL     1     -42.332  57.274 -54.407  1.00  0.00     0.096 A 
HETATM    2  C   UNL     1     -42.412  56.255 -53.478  1.00  0.00     0.138 A 
HETATM    3  N   UNL     1     -41.544  56.571 -52.463  1.00  0.00    -0.240 N 
HETATM    4  C   UNL     1     -41.241  55.693 -51.345  1.00  0.00     0.221 C 
HETATM    5  C   UNL     1     -42.299  54.575 -51.226  1.00  0.00     0.068 C 
HETATM    6  C   UNL     1     -42.671  53.996 -52.599  1.00  0.00     0.143 C 
HETATM    7  N   UNL     1     -43.130  55.104 -53.442  1.00  0.00    -0.363 N 
HETATM    8  N   UNL     1     -40.845  57.694 -52.699  1.00  0.00    -0.181 NA
HETATM    9  C   UNL     1     -41.345  58.131 -53.859  1.00  0.00     0.160 A 
HETATM   10  H   UNL     1     -43.600  54.815 -54.306  1.00  0.00     0.162 HD
ENDROOT
BRANCH   1  11
HETATM   11  C   UNL     1     -43.072  57.343 -55.664  1.00  0.00     0.261 C 
HETATM   12  N   UNL     1     -42.311  57.067 -56.788  1.00  0.00    -0.323 N 
HETATM   13  H   UNL     1     -41.323  56.917 -56.649  1.00  0.00     0.169 HD
HETATM   14  O   UNL     1     -44.269  57.619 -55.668  1.00  0.00    -0.267 OA
BRANCH  12  15
HETATM   15  C   UNL     1     -42.744  56.998 -58.129  1.00  0.00     0.035 A 
HETATM   16  C   UNL     1     -43.736  56.128 -58.593  1.00  0.00     0.039 A 
HETATM   17  C   UNL     1     -44.109  56.104 -59.949  1.00  0.00    -0.028 A 
HETATM   18  C   UNL     1     -43.475  56.979 -60.840  1.00  0.00     0.010 A 
HETATM   19  C   UNL     1     -42.485  57.849 -60.391  1.00  0.00     0.003 A 
HETATM   20  C   UNL     1     -42.123  57.858 -59.043  1.00  0.00     0.029 A 
BRANCH  17  21
HETATM   21  C   UNL     1     -45.208  55.171 -60.407  1.00  0.00     0.147 C 
HETATM   22  C   UNL     1     -46.543  55.897 -60.525  1.00  0.00     0.044 C 
BRANCH  21  23
HETATM   23  O   UNL     1     -44.871  54.605 -61.673  1.00  0.00    -0.391 OA
HETATM   24  H   UNL     1     -45.308  55.148 -62.349  1.00  0.00     0.210 HD
ENDBRANCH  21  23
ENDBRANCH  17  21
ENDBRANCH  12  15
ENDBRANCH   1  11
BRANCH   4  25
HETATM   25  C   UNL     1     -41.163  56.454 -50.041  1.00  0.00     0.409 C 
HETATM   26  F   UNL     1     -40.018  57.166 -49.926  1.00  0.00    -0.169 F 
HETATM   27  F   UNL     1     -42.183  57.353 -49.972  1.00  0.00    -0.169 F 
HETATM   28  F   UNL     1     -41.283  55.672 -48.949  1.00  0.00    -0.169 F 
ENDBRANCH   4  25
BRANCH   6  29
HETATM   29  C   UNL     1     -41.557  53.177 -53.183  1.00  0.00     0.075 A 
HETATM   30  O   UNL     1     -40.706  52.583 -52.295  1.00  0.00    -0.325 OA
HETATM   31  C   UNL     1     -39.784  51.900 -53.021  1.00  0.00     0.142 A 
HETATM   32  C   UNL     1     -40.029  52.043 -54.367  1.00  0.00     0.027 A 
HETATM   33  C   UNL     1     -41.175  52.866 -54.473  1.00  0.00     0.037 A 
ENDBRANCH   6  29
TORSDOF 6
ENDMDL
MODEL 7
REMARK VINA RESULT:      -8.0      2.639      3.933
REMARK  6 active torsions:
REMARK  status: ('A' for Active; 'I' for Inactive)
REMARK    1  A    between atoms: C_2  and  O_3 
REMARK    2  A    between atoms: C_2  and  C_4 
REMARK    3  A    between atoms: C_6  and  N_7 
REMARK       I    between atoms: N_7  and  C_8 
REMARK    4  A    between atoms: C_8  and  C_9 
REMARK    5  A    between atoms: C_12  and  C_13 
REMARK    6  A    between atoms: C_18  and  C_19 
ROOT
HETATM    1  C   UNL     1     -42.955  56.048 -56.803  1.00  0.00     0.096 A 
HETATM    2  C   UNL     1     -43.663  57.232 -56.891  1.00  0.00     0.138 A 
HETATM    3  N   UNL     1     -44.297  57.227 -58.108  1.00  0.00    -0.240 N 
HETATM    4  C   UNL     1     -45.050  58.351 -58.640  1.00  0.00     0.221 C 
HETATM    5  C   UNL     1     -45.389  59.360 -57.522  1.00  0.00     0.068 C 
HETATM    6  C   UNL     1     -44.194  59.591 -56.584  1.00  0.00     0.143 C 
HETATM    7  N   UNL     1     -43.789  58.288 -56.048  1.00  0.00    -0.363 N 
HETATM    8  N   UNL     1     -43.993  56.153 -58.856  1.00  0.00    -0.181 NA
HETATM    9  C   UNL     1     -43.208  55.430 -58.053  1.00  0.00     0.160 A 
HETATM   10  H   UNL     1     -43.142  58.336 -55.255  1.00  0.00     0.162 HD
ENDROOT
BRANCH   1  11
HETATM   11  C   UNL     1     -42.115  55.638 -55.681  1.00  0.00     0.261 C 
HETATM   12  N   UNL     1     -42.212  54.295 -55.360  1.00  0.00    -0.323 N 
HETATM   13  H   UNL     1     -42.888  53.747 -55.869  1.00  0.00     0.169 HD
HETATM   14  O   UNL     1     -41.398  56.455 -55.109  1.00  0.00    -0.267 OA
BRANCH  12  15
HETATM   15  C   UNL     1     -41.493  53.588 -54.372  1.00  0.00     0.035 A 
HETATM   16  C   UNL     1     -40.918  52.329 -54.566  1.00  0.00     0.039 A 
HETATM   17  C   UNL     1     -40.225  51.676 -53.530  1.00  0.00    -0.028 A 
HETATM   18  C   UNL     1     -40.106  52.314 -52.290  1.00  0.00     0.010 A 
HETATM   19  C   UNL     1     -40.675  53.567 -52.083  1.00  0.00     0.003 A 
HETATM   20  C   UNL     1     -41.363  54.201 -53.119  1.00  0.00     0.029 A 
BRANCH  17  21
HETATM   21  C   UNL     1     -39.589  50.327 -53.789  1.00  0.00     0.147 C 
HETATM   22  C   UNL     1     -39.553  49.476 -52.525  1.00  0.00     0.044 C 
BRANCH  21  23
HETATM   23  O   UNL     1     -40.318  49.631 -54.799  1.00  0.00    -0.391 OA
HETATM   24  H   UNL     1     -39.897  49.847 -55.648  1.00  0.00     0.210 HD
ENDBRANCH  21  23
ENDBRANCH  17  21
ENDBRANCH  12  15
ENDBRANCH   1  11
BRANCH   4  25
HETATM   25  C   UNL     1     -46.325  57.900 -59.316  1.00  0.00     0.409 C 
HETATM   26  F   UNL     1     -46.883  56.829 -58.707  1.00  0.00    -0.169 F 
HETATM   27  F   UNL     1     -47.251  58.898 -59.263  1.00  0.00    -0.169 F 
HETATM   28  F   UNL     1     -46.170  57.607 -60.624  1.00  0.00    -0.169 F 
ENDBRANCH   4  25
BRANCH   6  29
HETATM   29  C   UNL     1     -43.098  60.368 -57.252  1.00  0.00     0.075 A 
HETATM   30  O   UNL     1     -43.405  61.639 -57.647  1.00  0.00    -0.325 OA
HETATM   31  C   UNL     1     -42.289  62.159 -58.220  1.00  0.00     0.142 A 
HETATM   32  C   UNL     1     -41.265  61.242 -58.199  1.00  0.00     0.027 A 
HETATM   33  C   UNL     1     -41.785  60.085 -57.571  1.00  0.00     0.037 A 
ENDBRANCH   6  29
TORSDOF 6
ENDMDL
MODEL 8
REMARK VINA RESULT:      -8.0      3.364      8.105
REMARK  6 active torsions:
REMARK  status: ('A' for Active; 'I' for Inactive)
REMARK    1  A    between atoms: C_2  and  O_3 
REMARK    2  A    between atoms: C_2  and  C_4 
REMARK    3  A    between atoms: C_6  and  N_7 
REMARK       I    between atoms: N_7  and  C_8 
REMARK    4  A    between atoms: C_8  and  C_9 
REMARK    5  A    between atoms: C_12  and  C_13 
REMARK    6  A    between atoms: C_18  and  C_19 
ROOT
HETATM    1  C   UNL     1     -42.856  58.033 -54.886  1.00  0.00     0.096 A 
HETATM    2  C   UNL     1     -42.714  57.566 -53.593  1.00  0.00     0.138 A 
HETATM    3  N   UNL     1     -41.647  58.231 -53.044  1.00  0.00    -0.240 N 
HETATM    4  C   UNL     1     -41.092  57.940 -51.732  1.00  0.00     0.221 C 
HETATM    5  C   UNL     1     -42.083  57.106 -50.892  1.00  0.00     0.068 C 
HETATM    6  C   UNL     1     -42.743  55.998 -51.727  1.00  0.00     0.143 C 
HETATM    7  N   UNL     1     -43.392  56.633 -52.877  1.00  0.00    -0.363 N 
HETATM    8  N   UNL     1     -41.032  59.049 -53.914  1.00  0.00    -0.181 NA
HETATM    9  C   UNL     1     -41.783  58.950 -55.015  1.00  0.00     0.160 A 
HETATM   10  H   UNL     1     -44.039  56.025 -53.390  1.00  0.00     0.162 HD
ENDROOT
BRANCH   1  11
HETATM   11  C   UNL     1     -43.858  57.585 -55.849  1.00  0.00     0.261 C 
HETATM   12  N   UNL     1     -43.348  57.287 -57.102  1.00  0.00    -0.323 N 
HETATM   13  H   UNL     1     -42.368  57.468 -57.256  1.00  0.00     0.169 HD
HETATM   14  O   UNL     1     -45.038  57.493 -55.523  1.00  0.00    -0.267 OA
BRANCH  12  15
HETATM   15  C   UNL     1     -44.045  56.781 -58.221  1.00  0.00     0.035 A 
HETATM   16  C   UNL     1     -45.159  57.398 -58.799  1.00  0.00     0.039 A 
HETATM   17  C   UNL     1     -45.813  56.829 -59.907  1.00  0.00    -0.028 A 
HETATM   18  C   UNL     1     -45.325  55.629 -60.439  1.00  0.00     0.010 A 
HETATM   19  C   UNL     1     -44.217  55.006 -59.871  1.00  0.00     0.003 A 
HETATM   20  C   UNL     1     -43.581  55.579 -58.769  1.00  0.00     0.029 A 
BRANCH  17  21
HETATM   21  C   UNL     1     -46.996  57.542 -60.525  1.00  0.00     0.147 C 
HETATM   22  C   UNL     1     -46.718  59.029 -60.707  1.00  0.00     0.044 C 
BRANCH  21  23
HETATM   23  O   UNL     1     -47.305  56.966 -61.793  1.00  0.00    -0.391 OA
HETATM   24  H   UNL     1     -46.469  56.635 -62.163  1.00  0.00     0.210 HD
ENDBRANCH  21  23
ENDBRANCH  17  21
ENDBRANCH  12  15
ENDBRANCH   1  11
BRANCH   4  25
HETATM   25  C   UNL     1     -40.735  59.204 -50.983  1.00  0.00     0.409 C 
HETATM   26  F   UNL     1     -41.560  60.234 -51.283  1.00  0.00    -0.169 F 
HETATM   27  F   UNL     1     -40.855  58.993 -49.643  1.00  0.00    -0.169 F 
HETATM   28  F   UNL     1     -39.464  59.611 -51.182  1.00  0.00    -0.169 F 
ENDBRANCH   4  25
BRANCH   6  29
HETATM   29  C   UNL     1     -41.776  54.903 -52.071  1.00  0.00     0.075 A 
HETATM   30  O   UNL     1     -40.965  54.466 -51.062  1.00  0.00    -0.325 OA
HETATM   31  C   UNL     1     -40.179  53.487 -51.579  1.00  0.00     0.142 A 
HETATM   32  C   UNL     1     -40.472  53.284 -52.907  1.00  0.00     0.027 A 
HETATM   33  C   UNL     1     -41.506  54.196 -53.225  1.00  0.00     0.037 A 
ENDBRANCH   6  29
TORSDOF 6
ENDMDL
MODEL 9
REMARK VINA RESULT:      -8.0      2.337      4.008
REMARK  6 active torsions:
REMARK  status: ('A' for Active; 'I' for Inactive)
REMARK    1  A    between atoms: C_2  and  O_3 
REMARK    2  A    between atoms: C_2  and  C_4 
REMARK    3  A    between atoms: C_6  and  N_7 
REMARK       I    between atoms: N_7  and  C_8 
REMARK    4  A    between atoms: C_8  and  C_9 
REMARK    5  A    between atoms: C_12  and  C_13 
REMARK    6  A    between atoms: C_18  and  C_19 
ROOT
HETATM    1  C   UNL     1     -43.133  55.730 -56.393  1.00  0.00     0.096 A 
HETATM    2  C   UNL     1     -44.003  56.803 -56.331  1.00  0.00     0.138 A 
HETATM    3  N   UNL     1     -43.946  57.432 -57.549  1.00  0.00    -0.240 N 
HETATM    4  C   UNL     1     -44.624  58.682 -57.854  1.00  0.00     0.221 C 
HETATM    5  C   UNL     1     -45.716  58.981 -56.805  1.00  0.00     0.068 C 
HETATM    6  C   UNL     1     -45.232  58.680 -55.379  1.00  0.00     0.143 C 
HETATM    7  N   UNL     1     -44.799  57.281 -55.341  1.00  0.00    -0.363 N 
HETATM    8  N   UNL     1     -43.043  56.888 -58.382  1.00  0.00    -0.181 NA
HETATM    9  C   UNL     1     -42.577  55.843 -57.692  1.00  0.00     0.160 A 
HETATM   10  H   UNL     1     -44.652  56.905 -54.398  1.00  0.00     0.162 HD
ENDROOT
BRANCH   1  11
HETATM   11  C   UNL     1     -42.860  54.791 -55.309  1.00  0.00     0.261 C 
HETATM   12  N   UNL     1     -41.522  54.465 -55.163  1.00  0.00    -0.323 N 
HETATM   13  H   UNL     1     -40.880  54.840 -55.845  1.00  0.00     0.169 HD
HETATM   14  O   UNL     1     -43.775  54.361 -54.611  1.00  0.00    -0.267 OA
BRANCH  12  15
HETATM   15  C   UNL     1     -40.936  53.636 -54.183  1.00  0.00     0.035 A 
HETATM   16  C   UNL     1     -40.531  52.317 -54.407  1.00  0.00     0.039 A 
HETATM   17  C   UNL     1     -39.965  51.543 -53.377  1.00  0.00    -0.028 A 
HETATM   18  C   UNL     1     -39.799  52.119 -52.112  1.00  0.00     0.010 A 
HETATM   19  C   UNL     1     -40.199  53.431 -51.876  1.00  0.00     0.003 A 
HETATM   20  C   UNL     1     -40.763  54.185 -52.906  1.00  0.00     0.029 A 
BRANCH  17  21
HETATM   21  C   UNL     1     -39.510  50.129 -53.667  1.00  0.00     0.147 C 
HETATM   22  C   UNL     1     -39.562  49.260 -52.416  1.00  0.00     0.044 C 
BRANCH  21  23
HETATM   23  O   UNL     1     -40.337  49.548 -54.674  1.00  0.00    -0.391 OA
HETATM   24  H   UNL     1     -39.841  48.801 -55.049  1.00  0.00     0.210 HD
ENDBRANCH  21  23
ENDBRANCH  17  21
ENDBRANCH  12  15
ENDBRANCH   1  11
BRANCH   4  25
HETATM   25  C   UNL     1     -45.242  58.661 -59.234  1.00  0.00     0.409 C 
HETATM   26  F   UNL     1     -45.837  57.479 -59.516  1.00  0.00    -0.169 F 
HETATM   27  F   UNL     1     -46.213  59.611 -59.317  1.00  0.00    -0.169 F 
HETATM   28  F   UNL     1     -44.367  58.937 -60.223  1.00  0.00    -0.169 F 
ENDBRANCH   4  25
BRANCH   6  29
HETATM   29  C   UNL     1     -44.208  59.672 -54.913  1.00  0.00     0.075 A 
HETATM   30  O   UNL     1     -43.048  59.160 -54.404  1.00  0.00    -0.325 OA
HETATM   31  C   UNL     1     -42.269  60.213 -54.047  1.00  0.00     0.142 A 
HETATM   32  C   UNL     1     -42.909  61.400 -54.321  1.00  0.00     0.027 A 
HETATM   33  C   UNL     1     -44.160  61.052 -54.883  1.00  0.00     0.037 A 
ENDBRANCH   6  29
TORSDOF 6
ENDMDL
MODEL 10
REMARK VINA RESULT:      -7.9      6.191      8.862
REMARK  6 active torsions:
REMARK  status: ('A' for Active; 'I' for Inactive)
REMARK    1  A    between atoms: C_2  and  O_3 
REMARK    2  A    between atoms: C_2  and  C_4 
REMARK    3  A    between atoms: C_6  and  N_7 
REMARK       I    between atoms: N_7  and  C_8 
REMARK    4  A    between atoms: C_8  and  C_9 
REMARK    5  A    between atoms: C_12  and  C_13 
REMARK    6  A    between atoms: C_18  and  C_19 
ROOT
HETATM    1  C   UNL     1     -43.122  58.028 -51.517  1.00  0.00     0.096 A 
HETATM    2  C   UNL     1     -43.394  57.096 -52.500  1.00  0.00     0.138 A 
HETATM    3  N   UNL     1     -42.322  56.242 -52.547  1.00  0.00    -0.240 N 
HETATM    4  C   UNL     1     -42.161  55.188 -53.536  1.00  0.00     0.221 C 
HETATM    5  C   UNL     1     -43.502  54.890 -54.240  1.00  0.00     0.068 C 
HETATM    6  C   UNL     1     -44.261  56.180 -54.586  1.00  0.00     0.143 C 
HETATM    7  N   UNL     1     -44.445  56.936 -53.344  1.00  0.00    -0.363 N 
HETATM    8  N   UNL     1     -41.330  56.595 -51.712  1.00  0.00    -0.181 NA
HETATM    9  C   UNL     1     -41.830  57.656 -51.071  1.00  0.00     0.160 A 
HETATM   10  H   UNL     1     -45.116  57.708 -53.412  1.00  0.00     0.162 HD
ENDROOT
BRANCH   1  11
HETATM   11  C   UNL     1     -43.986  59.143 -51.137  1.00  0.00     0.261 C 
HETATM   12  N   UNL     1     -43.494  59.913 -50.095  1.00  0.00    -0.323 N 
HETATM   13  H   UNL     1     -42.641  59.602 -49.656  1.00  0.00     0.169 HD
HETATM   14  O   UNL     1     -45.044  59.341 -51.727  1.00  0.00    -0.267 OA
BRANCH  12  15
HETATM   15  C   UNL     1     -44.061  61.080 -49.541  1.00  0.00     0.035 A 
HETATM   16  C   UNL     1     -45.083  61.082 -48.587  1.00  0.00     0.039 A 
HETATM   17  C   UNL     1     -45.611  62.286 -48.086  1.00  0.00    -0.028 A 
HETATM   18  C   UNL     1     -45.088  63.499 -48.552  1.00  0.00     0.010 A 
HETATM   19  C   UNL     1     -44.071  63.510 -49.503  1.00  0.00     0.003 A 
HETATM   20  C   UNL     1     -43.561  62.307 -49.993  1.00  0.00     0.029 A 
BRANCH  17  21
HETATM   21  C   UNL     1     -46.695  62.248 -47.031  1.00  0.00     0.147 C 
HETATM   22  C   UNL     1     -46.440  63.272 -45.932  1.00  0.00     0.044 C 
BRANCH  21  23
HETATM   23  O   UNL     1     -47.965  62.508 -47.627  1.00  0.00    -0.391 OA
HETATM   24  H   UNL     1     -47.877  63.338 -48.125  1.00  0.00     0.210 HD
ENDBRANCH  21  23
ENDBRANCH  17  21
ENDBRANCH  12  15
ENDBRANCH   1  11
BRANCH   4  25
HETATM   25  C   UNL     1     -41.622  53.918 -52.916  1.00  0.00     0.409 C 
HETATM   26  F   UNL     1     -42.248  53.601 -51.760  1.00  0.00    -0.169 F 
HETATM   27  F   UNL     1     -41.826  52.872 -53.764  1.00  0.00    -0.169 F 
HETATM   28  F   UNL     1     -40.294  53.951 -52.681  1.00  0.00    -0.169 F 
ENDBRANCH   4  25
BRANCH   6  29
HETATM   29  C   UNL     1     -43.598  56.939 -55.697  1.00  0.00     0.075 A 
HETATM   30  O   UNL     1     -43.281  56.228 -56.819  1.00  0.00    -0.325 OA
HETATM   31  C   UNL     1     -42.699  57.093 -57.689  1.00  0.00     0.142 A 
HETATM   32  C   UNL     1     -42.636  58.354 -57.145  1.00  0.00     0.027 A 
HETATM   33  C   UNL     1     -43.219  58.257 -55.859  1.00  0.00     0.037 A 
ENDBRANCH   6  29
TORSDOF 6
ENDMDL
