MODEL 1
REMARK VINA RESULT:      -8.5      0.000      0.000
REMARK  8 active torsions:
REMARK  status: ('A' for Active; 'I' for Inactive)
REMARK    1  A    between atoms: O_2  and  C_3 
REMARK    2  A    between atoms: C_5  and  N_6 
REMARK       I    between atoms: N_6  and  C_7 
REMARK    3  A    between atoms: C_7  and  C_8 
REMARK    4  A    between atoms: C_8  and  O_9 
REMARK    5  A    between atoms: O_9  and  C_10 
REMARK    6  A    between atoms: C_13  and  C_14 
REMARK       I    between atoms: C_14  and  N_15 
REMARK    7  A    between atoms: N_15  and  C_16 
REMARK    8  A    between atoms: C_19  and  N_20 
ROOT
HETATM    1  C   UNL     1     -45.441  61.296 -50.821  1.00  0.00     0.069 A 
HETATM    2  C   UNL     1     -44.131  61.767 -50.854  1.00  0.00     0.038 A 
HETATM    3  C   UNL     1     -43.067  60.859 -50.926  1.00  0.00     0.020 A 
HETATM    4  C   UNL     1     -43.304  59.478 -50.959  1.00  0.00     0.032 A 
HETATM    5  C   UNL     1     -44.623  59.014 -50.872  1.00  0.00     0.020 A 
HETATM    6  C   UNL     1     -45.681  59.922 -50.783  1.00  0.00     0.038 A 
ENDROOT
BRANCH   4   7
HETATM    7  C   UNL     1     -42.152  58.561 -51.237  1.00  0.00     0.256 C 
HETATM    8  N   UNL     1     -42.327  57.245 -50.853  1.00  0.00    -0.323 N 
HETATM    9  H   UNL     1     -43.039  57.048 -50.164  1.00  0.00     0.169 HD
HETATM   10  O   UNL     1     -41.166  59.018 -51.806  1.00  0.00    -0.267 OA
BRANCH   8  11
HETATM   11  C   UNL     1     -41.716  56.116 -51.435  1.00  0.00     0.035 A 
HETATM   12  C   UNL     1     -41.945  55.693 -52.741  1.00  0.00     0.032 A 
HETATM   13  C   UNL     1     -41.446  54.460 -53.189  1.00  0.00     0.031 A 
HETATM   14  C   UNL     1     -40.707  53.613 -52.353  1.00  0.00     0.030 A 
HETATM   15  C   UNL     1     -40.438  54.087 -51.060  1.00  0.00     0.031 A 
HETATM   16  C   UNL     1     -40.928  55.318 -50.605  1.00  0.00     0.032 A 
BRANCH  14  17
HETATM   17  N   UNL     1     -40.323  52.323 -52.716  1.00  0.00    -0.381 N 
HETATM   18  C   UNL     1     -39.434  51.604 -51.791  1.00  0.00     0.123 C 
HETATM   19  C   UNL     1     -39.656  50.100 -51.959  1.00  0.00     0.020 C 
HETATM   20  C   UNL     1     -39.461  49.668 -53.411  1.00  0.00     0.003 C 
HETATM   21  C   UNL     1     -40.321  50.508 -54.353  1.00  0.00     0.020 C 
HETATM   22  C   UNL     1     -40.106  52.005 -54.133  1.00  0.00     0.123 C 
ENDBRANCH  14  17
ENDBRANCH   8  11
ENDBRANCH   4   7
BRANCH   1  23
HETATM   23  O   UNL     1     -46.572  62.061 -50.912  1.00  0.00    -0.342 OA
BRANCH  23  24
HETATM   24  C   UNL     1     -46.721  63.133 -49.989  1.00  0.00     0.278 C 
BRANCH  24  25
HETATM   25  C   UNL     1     -46.722  62.812 -48.478  1.00  0.00     0.246 C 
HETATM   26  N   UNL     1     -45.495  63.016 -47.871  1.00  0.00    -0.325 N 
HETATM   27  H   UNL     1     -44.753  63.337 -48.482  1.00  0.00     0.169 HD
HETATM   28  O   UNL     1     -47.749  62.419 -47.931  1.00  0.00    -0.271 OA
BRANCH  26  29
HETATM   29  C   UNL     1     -45.107  62.683 -46.557  1.00  0.00     0.037 A 
HETATM   30  C   UNL     1     -45.020  63.605 -45.510  1.00  0.00     0.066 A 
HETATM   31  C   UNL     1     -44.650  63.187 -44.227  1.00  0.00     0.070 A 
HETATM   32  C   UNL     1     -44.382  61.836 -43.993  1.00  0.00     0.037 A 
HETATM   33  C   UNL     1     -44.464  60.910 -45.028  1.00  0.00     0.005 A 
HETATM   34  C   UNL     1     -44.817  61.336 -46.309  1.00  0.00     0.029 A 
BRANCH  31  35
HETATM   35  O   UNL     1     -44.521  63.989 -43.124  1.00  0.00    -0.356 OA
HETATM   36  C   UNL     1     -43.508  63.636 -42.190  1.00  0.00     0.210 C 
ENDBRANCH  31  35
ENDBRANCH  26  29
ENDBRANCH  24  25
ENDBRANCH  23  24
ENDBRANCH   1  23
TORSDOF 8
ENDMDL
MODEL 2
REMARK VINA RESULT:      -8.1      3.880      6.520
REMARK  8 active torsions:
REMARK  status: ('A' for Active; 'I' for Inactive)
REMARK    1  A    between atoms: O_2  and  C_3 
REMARK    2  A    between atoms: C_5  and  N_6 
REMARK       I    between atoms: N_6  and  C_7 
REMARK    3  A    between atoms: C_7  and  C_8 
REMARK    4  A    between atoms: C_8  and  O_9 
REMARK    5  A    between atoms: O_9  and  C_10 
REMARK    6  A    between atoms: C_13  and  C_14 
REMARK       I    between atoms: C_14  and  N_15 
REMARK    7  A    between atoms: N_15  and  C_16 
REMARK    8  A    between atoms: C_19  and  N_20 
ROOT
HETATM    1  C   UNL     1     -45.268  61.304 -51.425  1.00  0.00     0.069 A 
HETATM    2  C   UNL     1     -43.951  61.754 -51.381  1.00  0.00     0.038 A 
HETATM    3  C   UNL     1     -42.904  60.831 -51.267  1.00  0.00     0.020 A 
HETATM    4  C   UNL     1     -43.165  59.456 -51.188  1.00  0.00     0.032 A 
HETATM    5  C   UNL     1     -44.496  59.018 -51.179  1.00  0.00     0.020 A 
HETATM    6  C   UNL     1     -45.539  59.942 -51.277  1.00  0.00     0.038 A 
ENDROOT
BRANCH   4   7
HETATM    7  C   UNL     1     -42.011  58.503 -51.267  1.00  0.00     0.256 C 
HETATM    8  N   UNL     1     -42.295  57.191 -50.938  1.00  0.00    -0.323 N 
HETATM    9  H   UNL     1     -43.124  57.013 -50.390  1.00  0.00     0.169 HD
HETATM   10  O   UNL     1     -40.926  58.930 -51.645  1.00  0.00    -0.267 OA
BRANCH   8  11
HETATM   11  C   UNL     1     -41.626  56.046 -51.416  1.00  0.00     0.035 A 
HETATM   12  C   UNL     1     -41.451  55.753 -52.765  1.00  0.00     0.032 A 
HETATM   13  C   UNL     1     -40.940  54.508 -53.164  1.00  0.00     0.031 A 
HETATM   14  C   UNL     1     -40.590  53.520 -52.235  1.00  0.00     0.030 A 
HETATM   15  C   UNL     1     -40.719  53.860 -50.880  1.00  0.00     0.031 A 
HETATM   16  C   UNL     1     -41.223  55.101 -50.472  1.00  0.00     0.032 A 
BRANCH  14  17
HETATM   17  N   UNL     1     -40.219  52.225 -52.597  1.00  0.00    -0.381 N 
HETATM   18  C   UNL     1     -39.422  51.461 -51.626  1.00  0.00     0.123 C 
HETATM   19  C   UNL     1     -39.676  49.969 -51.841  1.00  0.00     0.020 C 
HETATM   20  C   UNL     1     -39.390  49.558 -53.284  1.00  0.00     0.003 C 
HETATM   21  C   UNL     1     -40.155  50.441 -54.266  1.00  0.00     0.020 C 
HETATM   22  C   UNL     1     -39.911  51.927 -54.001  1.00  0.00     0.123 C 
ENDBRANCH  14  17
ENDBRANCH   8  11
ENDBRANCH   4   7
BRANCH   1  23
HETATM   23  O   UNL     1     -46.370  62.069 -51.695  1.00  0.00    -0.342 OA
BRANCH  23  24
HETATM   24  C   UNL     1     -47.122  61.754 -52.861  1.00  0.00     0.278 C 
BRANCH  24  25
HETATM   25  C   UNL     1     -48.426  62.537 -53.132  1.00  0.00     0.246 C 
HETATM   26  N   UNL     1     -49.570  61.783 -52.938  1.00  0.00    -0.325 N 
HETATM   27  H   UNL     1     -49.418  60.823 -52.656  1.00  0.00     0.169 HD
HETATM   28  O   UNL     1     -48.379  63.714 -53.481  1.00  0.00    -0.271 OA
BRANCH  26  29
HETATM   29  C   UNL     1     -50.903  62.132 -53.236  1.00  0.00     0.037 A 
HETATM   30  C   UNL     1     -51.573  61.741 -54.400  1.00  0.00     0.066 A 
HETATM   31  C   UNL     1     -52.906  62.109 -54.607  1.00  0.00     0.070 A 
HETATM   32  C   UNL     1     -53.573  62.860 -53.637  1.00  0.00     0.037 A 
HETATM   33  C   UNL     1     -52.916  63.256 -52.476  1.00  0.00     0.005 A 
HETATM   34  C   UNL     1     -51.582  62.900 -52.282  1.00  0.00     0.029 A 
BRANCH  31  35
HETATM   35  O   UNL     1     -53.666  61.798 -55.704  1.00  0.00    -0.356 OA
HETATM   36  C   UNL     1     -53.181  60.760 -56.546  1.00  0.00     0.210 C 
ENDBRANCH  31  35
ENDBRANCH  26  29
ENDBRANCH  24  25
ENDBRANCH  23  24
ENDBRANCH   1  23
TORSDOF 8
ENDMDL
MODEL 3
REMARK VINA RESULT:      -7.9     19.648     23.235
REMARK  8 active torsions:
REMARK  status: ('A' for Active; 'I' for Inactive)
REMARK    1  A    between atoms: O_2  and  C_3 
REMARK    2  A    between atoms: C_5  and  N_6 
REMARK       I    between atoms: N_6  and  C_7 
REMARK    3  A    between atoms: C_7  and  C_8 
REMARK    4  A    between atoms: C_8  and  O_9 
REMARK    5  A    between atoms: O_9  and  C_10 
REMARK    6  A    between atoms: C_13  and  C_14 
REMARK       I    between atoms: C_14  and  N_15 
REMARK    7  A    between atoms: N_15  and  C_16 
REMARK    8  A    between atoms: C_19  and  N_20 
ROOT
HETATM    1  C   UNL     1     -35.065  41.589 -56.367  1.00  0.00     0.069 A 
HETATM    2  C   UNL     1     -34.025  40.827 -55.841  1.00  0.00     0.038 A 
HETATM    3  C   UNL     1     -33.915  40.662 -54.455  1.00  0.00     0.020 A 
HETATM    4  C   UNL     1     -34.837  41.262 -53.586  1.00  0.00     0.032 A 
HETATM    5  C   UNL     1     -35.848  42.070 -54.122  1.00  0.00     0.020 A 
HETATM    6  C   UNL     1     -35.945  42.246 -55.505  1.00  0.00     0.038 A 
ENDROOT
BRANCH   4   7
HETATM    7  C   UNL     1     -34.795  40.894 -52.134  1.00  0.00     0.256 C 
HETATM    8  N   UNL     1     -34.178  39.693 -51.838  1.00  0.00    -0.323 N 
HETATM    9  H   UNL     1     -34.079  39.019 -52.584  1.00  0.00     0.169 HD
HETATM   10  O   UNL     1     -35.267  41.679 -51.319  1.00  0.00    -0.267 OA
BRANCH   8  11
HETATM   11  C   UNL     1     -33.528  39.362 -50.631  1.00  0.00     0.035 A 
HETATM   12  C   UNL     1     -34.120  38.635 -49.603  1.00  0.00     0.032 A 
HETATM   13  C   UNL     1     -33.477  38.504 -48.361  1.00  0.00     0.031 A 
HETATM   14  C   UNL     1     -32.232  39.092 -48.107  1.00  0.00     0.030 A 
HETATM   15  C   UNL     1     -31.629  39.770 -49.177  1.00  0.00     0.031 A 
HETATM   16  C   UNL     1     -32.259  39.902 -50.421  1.00  0.00     0.032 A 
BRANCH  14  17
HETATM   17  N   UNL     1     -31.635  39.107 -46.847  1.00  0.00    -0.381 N 
HETATM   18  C   UNL     1     -30.279  39.668 -46.755  1.00  0.00     0.123 C 
HETATM   19  C   UNL     1     -30.062  40.215 -45.344  1.00  0.00     0.020 C 
HETATM   20  C   UNL     1     -30.324  39.144 -44.287  1.00  0.00     0.003 C 
HETATM   21  C   UNL     1     -31.700  38.511 -44.478  1.00  0.00     0.020 C 
HETATM   22  C   UNL     1     -31.900  38.010 -45.909  1.00  0.00     0.123 C 
ENDBRANCH  14  17
ENDBRANCH   8  11
ENDBRANCH   4   7
BRANCH   1  23
HETATM   23  O   UNL     1     -35.388  41.702 -57.691  1.00  0.00    -0.342 OA
BRANCH  23  24
HETATM   24  C   UNL     1     -36.725  42.069 -58.016  1.00  0.00     0.278 C 
BRANCH  24  25
HETATM   25  C   UNL     1     -37.322  41.576 -59.352  1.00  0.00     0.246 C 
HETATM   26  N   UNL     1     -37.524  40.208 -59.393  1.00  0.00    -0.325 N 
HETATM   27  H   UNL     1     -37.252  39.701 -58.560  1.00  0.00     0.169 HD
HETATM   28  O   UNL     1     -37.571  42.376 -60.250  1.00  0.00    -0.271 OA
BRANCH  26  29
HETATM   29  C   UNL     1     -37.906  39.417 -60.495  1.00  0.00     0.037 A 
HETATM   30  C   UNL     1     -37.203  39.365 -61.703  1.00  0.00     0.066 A 
HETATM   31  C   UNL     1     -37.636  38.533 -62.741  1.00  0.00     0.070 A 
HETATM   32  C   UNL     1     -38.771  37.740 -62.559  1.00  0.00     0.037 A 
HETATM   33  C   UNL     1     -39.480  37.784 -61.363  1.00  0.00     0.005 A 
HETATM   34  C   UNL     1     -39.053  38.628 -60.338  1.00  0.00     0.029 A 
BRANCH  31  35
HETATM   35  O   UNL     1     -37.042  38.400 -63.968  1.00  0.00    -0.356 OA
HETATM   36  C   UNL     1     -36.033  37.406 -64.087  1.00  0.00     0.210 C 
ENDBRANCH  31  35
ENDBRANCH  26  29
ENDBRANCH  24  25
ENDBRANCH  23  24
ENDBRANCH   1  23
TORSDOF 8
ENDMDL
MODEL 4
REMARK VINA RESULT:      -7.8      6.941     11.289
REMARK  8 active torsions:
REMARK  status: ('A' for Active; 'I' for Inactive)
REMARK    1  A    between atoms: O_2  and  C_3 
REMARK    2  A    between atoms: C_5  and  N_6 
REMARK       I    between atoms: N_6  and  C_7 
REMARK    3  A    between atoms: C_7  and  C_8 
REMARK    4  A    between atoms: C_8  and  O_9 
REMARK    5  A    between atoms: O_9  and  C_10 
REMARK    6  A    between atoms: C_13  and  C_14 
REMARK       I    between atoms: C_14  and  N_15 
REMARK    7  A    between atoms: N_15  and  C_16 
REMARK    8  A    between atoms: C_19  and  N_20 
ROOT
HETATM    1  C   UNL     1     -43.446  57.278 -53.061  1.00  0.00     0.069 A 
HETATM    2  C   UNL     1     -42.266  57.938 -53.393  1.00  0.00     0.038 A 
HETATM    3  C   UNL     1     -41.992  58.243 -54.732  1.00  0.00     0.020 A 
HETATM    4  C   UNL     1     -42.890  57.886 -55.747  1.00  0.00     0.032 A 
HETATM    5  C   UNL     1     -44.049  57.176 -55.408  1.00  0.00     0.020 A 
HETATM    6  C   UNL     1     -44.311  56.858 -54.073  1.00  0.00     0.038 A 
ENDROOT
BRANCH   4   7
HETATM    7  C   UNL     1     -42.649  58.408 -57.131  1.00  0.00     0.256 C 
HETATM    8  N   UNL     1     -43.035  59.716 -57.353  1.00  0.00    -0.323 N 
HETATM    9  H   UNL     1     -43.703  60.124 -56.715  1.00  0.00     0.169 HD
HETATM   10  O   UNL     1     -42.108  57.671 -57.947  1.00  0.00    -0.267 OA
BRANCH   8  11
HETATM   11  C   UNL     1     -42.475  60.604 -58.295  1.00  0.00     0.035 A 
HETATM   12  C   UNL     1     -42.809  60.617 -59.646  1.00  0.00     0.032 A 
HETATM   13  C   UNL     1     -42.079  61.401 -60.552  1.00  0.00     0.031 A 
HETATM   14  C   UNL     1     -40.998  62.192 -60.144  1.00  0.00     0.030 A 
HETATM   15  C   UNL     1     -40.718  62.209 -58.769  1.00  0.00     0.031 A 
HETATM   16  C   UNL     1     -41.444  61.434 -57.856  1.00  0.00     0.032 A 
BRANCH  14  17
HETATM   17  N   UNL     1     -40.162  62.866 -61.033  1.00  0.00    -0.381 N 
HETATM   18  C   UNL     1     -39.513  64.092 -60.544  1.00  0.00     0.123 C 
HETATM   19  C   UNL     1     -38.207  64.301 -61.312  1.00  0.00     0.020 C 
HETATM   20  C   UNL     1     -38.447  64.330 -62.820  1.00  0.00     0.003 C 
HETATM   21  C   UNL     1     -39.216  63.091 -63.275  1.00  0.00     0.020 C 
HETATM   22  C   UNL     1     -40.495  62.887 -62.463  1.00  0.00     0.123 C 
ENDBRANCH  14  17
ENDBRANCH   8  11
ENDBRANCH   4   7
BRANCH   1  23
HETATM   23  O   UNL     1     -43.917  57.062 -51.795  1.00  0.00    -0.342 OA
BRANCH  23  24
HETATM   24  C   UNL     1     -43.140  56.237 -50.933  1.00  0.00     0.278 C 
BRANCH  24  25
HETATM   25  C   UNL     1     -42.780  54.811 -51.404  1.00  0.00     0.246 C 
HETATM   26  N   UNL     1     -41.449  54.667 -51.758  1.00  0.00    -0.325 N 
HETATM   27  H   UNL     1     -40.883  55.503 -51.677  1.00  0.00     0.169 HD
HETATM   28  O   UNL     1     -43.640  53.935 -51.435  1.00  0.00    -0.271 OA
BRANCH  26  29
HETATM   29  C   UNL     1     -40.825  53.560 -52.365  1.00  0.00     0.037 A 
HETATM   30  C   UNL     1     -40.277  52.485 -51.658  1.00  0.00     0.066 A 
HETATM   31  C   UNL     1     -39.696  51.411 -52.340  1.00  0.00     0.070 A 
HETATM   32  C   UNL     1     -39.677  51.409 -53.736  1.00  0.00     0.037 A 
HETATM   33  C   UNL     1     -40.217  52.474 -54.450  1.00  0.00     0.005 A 
HETATM   34  C   UNL     1     -40.781  53.551 -53.765  1.00  0.00     0.029 A 
BRANCH  31  35
HETATM   35  O   UNL     1     -39.121  50.308 -51.764  1.00  0.00    -0.356 OA
HETATM   36  C   UNL     1     -39.727  49.816 -50.576  1.00  0.00     0.210 C 
ENDBRANCH  31  35
ENDBRANCH  26  29
ENDBRANCH  24  25
ENDBRANCH  23  24
ENDBRANCH   1  23
TORSDOF 8
ENDMDL
MODEL 5
REMARK VINA RESULT:      -7.7      6.964     11.300
REMARK  8 active torsions:
REMARK  status: ('A' for Active; 'I' for Inactive)
REMARK    1  A    between atoms: O_2  and  C_3 
REMARK    2  A    between atoms: C_5  and  N_6 
REMARK       I    between atoms: N_6  and  C_7 
REMARK    3  A    between atoms: C_7  and  C_8 
REMARK    4  A    between atoms: C_8  and  O_9 
REMARK    5  A    between atoms: O_9  and  C_10 
REMARK    6  A    between atoms: C_13  and  C_14 
REMARK       I    between atoms: C_14  and  N_15 
REMARK    7  A    between atoms: N_15  and  C_16 
REMARK    8  A    between atoms: C_19  and  N_20 
ROOT
HETATM    1  C   UNL     1     -42.764  57.330 -52.678  1.00  0.00     0.069 A 
HETATM    2  C   UNL     1     -41.714  57.669 -53.527  1.00  0.00     0.038 A 
HETATM    3  C   UNL     1     -41.912  57.664 -54.914  1.00  0.00     0.020 A 
HETATM    4  C   UNL     1     -43.154  57.316 -55.459  1.00  0.00     0.032 A 
HETATM    5  C   UNL     1     -44.189  56.927 -54.598  1.00  0.00     0.020 A 
HETATM    6  C   UNL     1     -43.983  56.916 -53.216  1.00  0.00     0.038 A 
ENDROOT
BRANCH   4   7
HETATM    7  C   UNL     1     -43.373  57.519 -56.928  1.00  0.00     0.256 C 
HETATM    8  N   UNL     1     -44.513  56.938 -57.450  1.00  0.00    -0.323 N 
HETATM    9  H   UNL     1     -44.944  56.191 -56.923  1.00  0.00     0.169 HD
HETATM   10  O   UNL     1     -42.565  58.199 -57.550  1.00  0.00    -0.267 OA
BRANCH   8  11
HETATM   11  C   UNL     1     -45.237  57.382 -58.576  1.00  0.00     0.035 A 
HETATM   12  C   UNL     1     -45.816  58.643 -58.682  1.00  0.00     0.032 A 
HETATM   13  C   UNL     1     -46.674  58.945 -59.750  1.00  0.00     0.031 A 
HETATM   14  C   UNL     1     -46.982  58.005 -60.742  1.00  0.00     0.030 A 
HETATM   15  C   UNL     1     -46.340  56.761 -60.646  1.00  0.00     0.031 A 
HETATM   16  C   UNL     1     -45.478  56.451 -59.586  1.00  0.00     0.032 A 
BRANCH  14  17
HETATM   17  N   UNL     1     -47.939  58.220 -61.732  1.00  0.00    -0.381 N 
HETATM   18  C   UNL     1     -48.839  59.370 -61.555  1.00  0.00     0.123 C 
HETATM   19  C   UNL     1     -49.311  59.846 -62.930  1.00  0.00     0.020 C 
HETATM   20  C   UNL     1     -49.962  58.712 -63.718  1.00  0.00     0.003 C 
HETATM   21  C   UNL     1     -49.039  57.497 -63.791  1.00  0.00     0.020 C 
HETATM   22  C   UNL     1     -48.554  57.070 -62.405  1.00  0.00     0.123 C 
ENDBRANCH  14  17
ENDBRANCH   8  11
ENDBRANCH   4   7
BRANCH   1  23
HETATM   23  O   UNL     1     -42.763  57.447 -51.315  1.00  0.00    -0.342 OA
BRANCH  23  24
HETATM   24  C   UNL     1     -42.007  56.498 -50.571  1.00  0.00     0.278 C 
BRANCH  24  25
HETATM   25  C   UNL     1     -41.963  55.036 -51.069  1.00  0.00     0.246 C 
HETATM   26  N   UNL     1     -40.786  54.711 -51.720  1.00  0.00    -0.325 N 
HETATM   27  H   UNL     1     -40.110  55.461 -51.799  1.00  0.00     0.169 HD
HETATM   28  O   UNL     1     -42.916  54.287 -50.870  1.00  0.00    -0.271 OA
BRANCH  26  29
HETATM   29  C   UNL     1     -40.476  53.529 -52.422  1.00  0.00     0.037 A 
HETATM   30  C   UNL     1     -40.072  52.339 -51.810  1.00  0.00     0.066 A 
HETATM   31  C   UNL     1     -39.807  51.201 -52.580  1.00  0.00     0.070 A 
HETATM   32  C   UNL     1     -39.963  51.255 -53.966  1.00  0.00     0.037 A 
HETATM   33  C   UNL     1     -40.363  52.435 -54.586  1.00  0.00     0.005 A 
HETATM   34  C   UNL     1     -40.610  53.571 -53.816  1.00  0.00     0.029 A 
BRANCH  31  35
HETATM   35  O   UNL     1     -39.398  49.983 -52.103  1.00  0.00    -0.356 OA
HETATM   36  C   UNL     1     -39.487  49.783 -50.698  1.00  0.00     0.210 C 
ENDBRANCH  31  35
ENDBRANCH  26  29
ENDBRANCH  24  25
ENDBRANCH  23  24
ENDBRANCH   1  23
TORSDOF 8
ENDMDL
MODEL 6
REMARK VINA RESULT:      -7.7      4.208      7.203
REMARK  8 active torsions:
REMARK  status: ('A' for Active; 'I' for Inactive)
REMARK    1  A    between atoms: O_2  and  C_3 
REMARK    2  A    between atoms: C_5  and  N_6 
REMARK       I    between atoms: N_6  and  C_7 
REMARK    3  A    between atoms: C_7  and  C_8 
REMARK    4  A    between atoms: C_8  and  O_9 
REMARK    5  A    between atoms: O_9  and  C_10 
REMARK    6  A    between atoms: C_13  and  C_14 
REMARK       I    between atoms: C_14  and  N_15 
REMARK    7  A    between atoms: N_15  and  C_16 
REMARK    8  A    between atoms: C_19  and  N_20 
ROOT
HETATM    1  C   UNL     1     -44.773  61.264 -52.048  1.00  0.00     0.069 A 
HETATM    2  C   UNL     1     -43.409  61.504 -52.189  1.00  0.00     0.038 A 
HETATM    3  C   UNL     1     -42.491  60.476 -51.938  1.00  0.00     0.020 A 
HETATM    4  C   UNL     1     -42.929  59.206 -51.539  1.00  0.00     0.032 A 
HETATM    5  C   UNL     1     -44.301  58.990 -51.349  1.00  0.00     0.020 A 
HETATM    6  C   UNL     1     -45.212  60.023 -51.583  1.00  0.00     0.038 A 
ENDROOT
BRANCH   4   7
HETATM    7  C   UNL     1     -41.930  58.091 -51.478  1.00  0.00     0.256 C 
HETATM    8  N   UNL     1     -42.345  56.950 -50.818  1.00  0.00    -0.323 N 
HETATM    9  H   UNL     1     -43.123  57.034 -50.178  1.00  0.00     0.169 HD
HETATM   10  O   UNL     1     -40.848  58.246 -52.034  1.00  0.00    -0.267 OA
BRANCH   8  11
HETATM   11  C   UNL     1     -41.894  55.636 -51.057  1.00  0.00     0.035 A 
HETATM   12  C   UNL     1     -40.764  55.081 -50.465  1.00  0.00     0.032 A 
HETATM   13  C   UNL     1     -40.275  53.836 -50.891  1.00  0.00     0.031 A 
HETATM   14  C   UNL     1     -40.894  53.109 -51.915  1.00  0.00     0.030 A 
HETATM   15  C   UNL     1     -42.065  53.660 -52.455  1.00  0.00     0.031 A 
HETATM   16  C   UNL     1     -42.564  54.899 -52.034  1.00  0.00     0.032 A 
BRANCH  14  17
HETATM   17  N   UNL     1     -40.355  51.945 -52.461  1.00  0.00    -0.381 N 
HETATM   18  C   UNL     1     -39.531  51.108 -51.576  1.00  0.00     0.123 C 
HETATM   19  C   UNL     1     -39.598  49.659 -52.060  1.00  0.00     0.020 C 
HETATM   20  C   UNL     1     -39.184  49.542 -53.526  1.00  0.00     0.003 C 
HETATM   21  C   UNL     1     -39.989  50.501 -54.400  1.00  0.00     0.020 C 
HETATM   22  C   UNL     1     -39.934  51.934 -53.868  1.00  0.00     0.123 C 
ENDBRANCH  14  17
ENDBRANCH   8  11
ENDBRANCH   4   7
BRANCH   1  23
HETATM   23  O   UNL     1     -45.780  62.116 -52.411  1.00  0.00    -0.342 OA
BRANCH  23  24
HETATM   24  C   UNL     1     -46.450  61.859 -53.640  1.00  0.00     0.278 C 
BRANCH  24  25
HETATM   25  C   UNL     1     -45.653  61.214 -54.795  1.00  0.00     0.246 C 
HETATM   26  N   UNL     1     -45.839  59.846 -54.895  1.00  0.00    -0.325 N 
HETATM   27  H   UNL     1     -46.458  59.438 -54.205  1.00  0.00     0.169 HD
HETATM   28  O   UNL     1     -44.942  61.907 -55.518  1.00  0.00    -0.271 OA
BRANCH  26  29
HETATM   29  C   UNL     1     -45.159  58.933 -55.725  1.00  0.00     0.037 A 
HETATM   30  C   UNL     1     -45.497  58.687 -57.060  1.00  0.00     0.066 A 
HETATM   31  C   UNL     1     -44.752  57.781 -57.824  1.00  0.00     0.070 A 
HETATM   32  C   UNL     1     -43.657  57.132 -57.249  1.00  0.00     0.037 A 
HETATM   33  C   UNL     1     -43.314  57.368 -55.922  1.00  0.00     0.005 A 
HETATM   34  C   UNL     1     -44.069  58.259 -55.160  1.00  0.00     0.029 A 
BRANCH  31  35
HETATM   35  O   UNL     1     -44.985  57.449 -59.132  1.00  0.00    -0.356 OA
HETATM   36  C   UNL     1     -43.938  57.713 -60.057  1.00  0.00     0.210 C 
ENDBRANCH  31  35
ENDBRANCH  26  29
ENDBRANCH  24  25
ENDBRANCH  23  24
ENDBRANCH   1  23
TORSDOF 8
ENDMDL
MODEL 7
REMARK VINA RESULT:      -7.7      6.293      9.690
REMARK  8 active torsions:
REMARK  status: ('A' for Active; 'I' for Inactive)
REMARK    1  A    between atoms: O_2  and  C_3 
REMARK    2  A    between atoms: C_5  and  N_6 
REMARK       I    between atoms: N_6  and  C_7 
REMARK    3  A    between atoms: C_7  and  C_8 
REMARK    4  A    between atoms: C_8  and  O_9 
REMARK    5  A    between atoms: O_9  and  C_10 
REMARK    6  A    between atoms: C_13  and  C_14 
REMARK       I    between atoms: C_14  and  N_15 
REMARK    7  A    between atoms: N_15  and  C_16 
REMARK    8  A    between atoms: C_19  and  N_20 
ROOT
HETATM    1  C   UNL     1     -41.610  53.761 -53.199  1.00  0.00     0.069 A 
HETATM    2  C   UNL     1     -40.628  54.015 -54.152  1.00  0.00     0.038 A 
HETATM    3  C   UNL     1     -40.967  54.669 -55.343  1.00  0.00     0.020 A 
HETATM    4  C   UNL     1     -42.287  55.067 -55.592  1.00  0.00     0.032 A 
HETATM    5  C   UNL     1     -43.277  54.760 -54.649  1.00  0.00     0.020 A 
HETATM    6  C   UNL     1     -42.938  54.092 -53.470  1.00  0.00     0.038 A 
ENDROOT
BRANCH   4   7
HETATM    7  C   UNL     1     -42.561  55.935 -56.782  1.00  0.00     0.256 C 
HETATM    8  N   UNL     1     -43.361  55.376 -57.760  1.00  0.00    -0.323 N 
HETATM    9  H   UNL     1     -43.450  54.370 -57.776  1.00  0.00     0.169 HD
HETATM   10  O   UNL     1     -42.099  57.070 -56.795  1.00  0.00    -0.267 OA
BRANCH   8  11
HETATM   11  C   UNL     1     -44.196  56.073 -58.658  1.00  0.00     0.035 A 
HETATM   12  C   UNL     1     -44.740  57.327 -58.400  1.00  0.00     0.032 A 
HETATM   13  C   UNL     1     -45.707  57.875 -59.257  1.00  0.00     0.031 A 
HETATM   14  C   UNL     1     -46.160  57.192 -60.393  1.00  0.00     0.030 A 
HETATM   15  C   UNL     1     -45.554  55.956 -60.665  1.00  0.00     0.031 A 
HETATM   16  C   UNL     1     -44.585  55.404 -59.818  1.00  0.00     0.032 A 
BRANCH  14  17
HETATM   17  N   UNL     1     -47.219  57.638 -61.183  1.00  0.00    -0.381 N 
HETATM   18  C   UNL     1     -47.835  58.921 -60.815  1.00  0.00     0.123 C 
HETATM   19  C   UNL     1     -48.444  59.556 -62.066  1.00  0.00     0.020 C 
HETATM   20  C   UNL     1     -49.430  58.608 -62.747  1.00  0.00     0.003 C 
HETATM   21  C   UNL     1     -48.786  57.251 -63.019  1.00  0.00     0.020 C 
HETATM   22  C   UNL     1     -48.153  56.662 -61.757  1.00  0.00     0.123 C 
ENDBRANCH  14  17
ENDBRANCH   8  11
ENDBRANCH   4   7
BRANCH   1  23
HETATM   23  O   UNL     1     -41.398  53.281 -51.935  1.00  0.00    -0.342 OA
BRANCH  23  24
HETATM   24  C   UNL     1     -40.565  54.046 -51.070  1.00  0.00     0.278 C 
BRANCH  24  25
HETATM   25  C   UNL     1     -41.129  55.351 -50.467  1.00  0.00     0.246 C 
HETATM   26  N   UNL     1     -41.236  56.381 -51.385  1.00  0.00    -0.325 N 
HETATM   27  H   UNL     1     -40.928  56.162 -52.324  1.00  0.00     0.169 HD
HETATM   28  O   UNL     1     -41.435  55.401 -49.278  1.00  0.00    -0.271 OA
BRANCH  26  29
HETATM   29  C   UNL     1     -41.564  57.730 -51.146  1.00  0.00     0.037 A 
HETATM   30  C   UNL     1     -42.816  58.291 -51.416  1.00  0.00     0.066 A 
HETATM   31  C   UNL     1     -43.068  59.637 -51.125  1.00  0.00     0.070 A 
HETATM   32  C   UNL     1     -42.063  60.416 -50.548  1.00  0.00     0.037 A 
HETATM   33  C   UNL     1     -40.813  59.869 -50.276  1.00  0.00     0.005 A 
HETATM   34  C   UNL     1     -40.562  58.532 -50.584  1.00  0.00     0.029 A 
BRANCH  31  35
HETATM   35  O   UNL     1     -44.244  60.303 -51.349  1.00  0.00    -0.356 OA
HETATM   36  C   UNL     1     -45.282  59.572 -51.989  1.00  0.00     0.210 C 
ENDBRANCH  31  35
ENDBRANCH  26  29
ENDBRANCH  24  25
ENDBRANCH  23  24
ENDBRANCH   1  23
TORSDOF 8
ENDMDL
MODEL 8
REMARK VINA RESULT:      -7.6      5.646      8.328
REMARK  8 active torsions:
REMARK  status: ('A' for Active; 'I' for Inactive)
REMARK    1  A    between atoms: O_2  and  C_3 
REMARK    2  A    between atoms: C_5  and  N_6 
REMARK       I    between atoms: N_6  and  C_7 
REMARK    3  A    between atoms: C_7  and  C_8 
REMARK    4  A    between atoms: C_8  and  O_9 
REMARK    5  A    between atoms: O_9  and  C_10 
REMARK    6  A    between atoms: C_13  and  C_14 
REMARK       I    between atoms: C_14  and  N_15 
REMARK    7  A    between atoms: N_15  and  C_16 
REMARK    8  A    between atoms: C_19  and  N_20 
ROOT
HETATM    1  C   UNL     1     -44.830  61.378 -54.675  1.00  0.00     0.069 A 
HETATM    2  C   UNL     1     -43.485  61.737 -54.719  1.00  0.00     0.038 A 
HETATM    3  C   UNL     1     -42.511  60.847 -54.249  1.00  0.00     0.020 A 
HETATM    4  C   UNL     1     -42.874  59.598 -53.728  1.00  0.00     0.032 A 
HETATM    5  C   UNL     1     -44.233  59.268 -53.639  1.00  0.00     0.020 A 
HETATM    6  C   UNL     1     -45.203  60.165 -54.093  1.00  0.00     0.038 A 
ENDROOT
BRANCH   4   7
HETATM    7  C   UNL     1     -41.791  58.607 -53.426  1.00  0.00     0.256 C 
HETATM    8  N   UNL     1     -42.212  57.406 -52.887  1.00  0.00    -0.323 N 
HETATM    9  H   UNL     1     -43.124  57.378 -52.456  1.00  0.00     0.169 HD
HETATM   10  O   UNL     1     -40.634  58.905 -53.702  1.00  0.00    -0.267 OA
BRANCH   8  11
HETATM   11  C   UNL     1     -41.560  56.161 -53.009  1.00  0.00     0.035 A 
HETATM   12  C   UNL     1     -41.303  55.533 -54.224  1.00  0.00     0.032 A 
HETATM   13  C   UNL     1     -40.819  54.216 -54.257  1.00  0.00     0.031 A 
HETATM   14  C   UNL     1     -40.578  53.487 -53.086  1.00  0.00     0.030 A 
HETATM   15  C   UNL     1     -40.788  54.161 -51.873  1.00  0.00     0.031 A 
HETATM   16  C   UNL     1     -41.266  55.477 -51.830  1.00  0.00     0.032 A 
BRANCH  14  17
HETATM   17  N   UNL     1     -40.239  52.134 -53.081  1.00  0.00    -0.381 N 
HETATM   18  C   UNL     1     -39.410  51.655 -51.965  1.00  0.00     0.123 C 
HETATM   19  C   UNL     1     -39.692  50.169 -51.740  1.00  0.00     0.020 C 
HETATM   20  C   UNL     1     -39.472  49.362 -53.019  1.00  0.00     0.003 C 
HETATM   21  C   UNL     1     -40.267  49.952 -54.182  1.00  0.00     0.020 C 
HETATM   22  C   UNL     1     -39.993  51.447 -54.355  1.00  0.00     0.123 C 
ENDBRANCH  14  17
ENDBRANCH   8  11
ENDBRANCH   4   7
BRANCH   1  23
HETATM   23  O   UNL     1     -45.865  62.071 -55.241  1.00  0.00    -0.342 OA
BRANCH  23  24
HETATM   24  C   UNL     1     -45.775  62.378 -56.628  1.00  0.00     0.278 C 
BRANCH  24  25
HETATM   25  C   UNL     1     -45.259  61.288 -57.593  1.00  0.00     0.246 C 
HETATM   26  N   UNL     1     -46.071  60.168 -57.643  1.00  0.00    -0.325 N 
HETATM   27  H   UNL     1     -46.886  60.193 -57.043  1.00  0.00     0.169 HD
HETATM   28  O   UNL     1     -44.222  61.464 -58.227  1.00  0.00    -0.271 OA
BRANCH  26  29
HETATM   29  C   UNL     1     -45.824  58.942 -58.292  1.00  0.00     0.037 A 
HETATM   30  C   UNL     1     -44.621  58.235 -58.199  1.00  0.00     0.066 A 
HETATM   31  C   UNL     1     -44.466  57.010 -58.857  1.00  0.00     0.070 A 
HETATM   32  C   UNL     1     -45.528  56.487 -59.599  1.00  0.00     0.037 A 
HETATM   33  C   UNL     1     -46.728  57.183 -59.701  1.00  0.00     0.005 A 
HETATM   34  C   UNL     1     -46.871  58.412 -59.057  1.00  0.00     0.029 A 
BRANCH  31  35
HETATM   35  O   UNL     1     -43.341  56.228 -58.851  1.00  0.00    -0.356 OA
HETATM   36  C   UNL     1     -43.006  55.598 -57.621  1.00  0.00     0.210 C 
ENDBRANCH  31  35
ENDBRANCH  26  29
ENDBRANCH  24  25
ENDBRANCH  23  24
ENDBRANCH   1  23
TORSDOF 8
ENDMDL
MODEL 9
REMARK VINA RESULT:      -7.6     19.422     22.349
REMARK  8 active torsions:
REMARK  status: ('A' for Active; 'I' for Inactive)
REMARK    1  A    between atoms: O_2  and  C_3 
REMARK    2  A    between atoms: C_5  and  N_6 
REMARK       I    between atoms: N_6  and  C_7 
REMARK    3  A    between atoms: C_7  and  C_8 
REMARK    4  A    between atoms: C_8  and  O_9 
REMARK    5  A    between atoms: O_9  and  C_10 
REMARK    6  A    between atoms: C_13  and  C_14 
REMARK       I    between atoms: C_14  and  N_15 
REMARK    7  A    between atoms: N_15  and  C_16 
REMARK    8  A    between atoms: C_19  and  N_20 
ROOT
HETATM    1  C   UNL     1     -33.883  41.121 -51.381  1.00  0.00     0.069 A 
HETATM    2  C   UNL     1     -34.917  42.040 -51.536  1.00  0.00     0.038 A 
HETATM    3  C   UNL     1     -35.580  42.142 -52.766  1.00  0.00     0.020 A 
HETATM    4  C   UNL     1     -35.211  41.332 -53.848  1.00  0.00     0.032 A 
HETATM    5  C   UNL     1     -34.135  40.447 -53.698  1.00  0.00     0.020 A 
HETATM    6  C   UNL     1     -33.465  40.361 -52.475  1.00  0.00     0.038 A 
ENDROOT
BRANCH   4   7
HETATM    7  C   UNL     1     -36.075  41.337 -55.072  1.00  0.00     0.256 C 
HETATM    8  N   UNL     1     -35.414  41.515 -56.272  1.00  0.00    -0.323 N 
HETATM    9  H   UNL     1     -34.491  41.924 -56.244  1.00  0.00     0.169 HD
HETATM   10  O   UNL     1     -37.280  41.151 -54.937  1.00  0.00    -0.267 OA
BRANCH   8  11
HETATM   11  C   UNL     1     -35.829  41.042 -57.534  1.00  0.00     0.035 A 
HETATM   12  C   UNL     1     -36.668  41.747 -58.392  1.00  0.00     0.032 A 
HETATM   13  C   UNL     1     -37.184  41.136 -59.545  1.00  0.00     0.031 A 
HETATM   14  C   UNL     1     -36.884  39.809 -59.877  1.00  0.00     0.030 A 
HETATM   15  C   UNL     1     -35.990  39.138 -59.030  1.00  0.00     0.031 A 
HETATM   16  C   UNL     1     -35.465  39.741 -57.879  1.00  0.00     0.032 A 
BRANCH  14  17
HETATM   17  N   UNL     1     -37.492  39.126 -60.930  1.00  0.00    -0.381 N 
HETATM   18  C   UNL     1     -38.640  38.269 -60.598  1.00  0.00     0.123 C 
HETATM   19  C   UNL     1     -39.549  38.161 -61.823  1.00  0.00     0.020 C 
HETATM   20  C   UNL     1     -38.779  37.660 -63.044  1.00  0.00     0.003 C 
HETATM   21  C   UNL     1     -37.536  38.511 -63.295  1.00  0.00     0.020 C 
HETATM   22  C   UNL     1     -36.670  38.632 -62.041  1.00  0.00     0.123 C 
ENDBRANCH  14  17
ENDBRANCH   8  11
ENDBRANCH   4   7
BRANCH   1  23
HETATM   23  O   UNL     1     -33.261  40.801 -50.206  1.00  0.00    -0.342 OA
BRANCH  23  24
HETATM   24  C   UNL     1     -32.109  39.968 -50.273  1.00  0.00     0.278 C 
BRANCH  24  25
HETATM   25  C   UNL     1     -31.672  39.208 -49.001  1.00  0.00     0.246 C 
HETATM   26  N   UNL     1     -31.209  40.039 -47.996  1.00  0.00    -0.325 N 
HETATM   27  H   UNL     1     -31.203  41.028 -48.215  1.00  0.00     0.169 HD
HETATM   28  O   UNL     1     -31.756  37.984 -48.953  1.00  0.00    -0.271 OA
BRANCH  26  29
HETATM   29  C   UNL     1     -30.598  39.676 -46.779  1.00  0.00     0.037 A 
HETATM   30  C   UNL     1     -29.260  39.935 -46.466  1.00  0.00     0.066 A 
HETATM   31  C   UNL     1     -28.738  39.562 -45.223  1.00  0.00     0.070 A 
HETATM   32  C   UNL     1     -29.566  38.942 -44.285  1.00  0.00     0.037 A 
HETATM   33  C   UNL     1     -30.899  38.677 -44.586  1.00  0.00     0.005 A 
HETATM   34  C   UNL     1     -31.410  39.035 -45.834  1.00  0.00     0.029 A 
BRANCH  31  35
HETATM   35  O   UNL     1     -27.448  39.752 -44.802  1.00  0.00    -0.356 OA
HETATM   36  C   UNL     1     -26.921  38.787 -43.899  1.00  0.00     0.210 C 
ENDBRANCH  31  35
ENDBRANCH  26  29
ENDBRANCH  24  25
ENDBRANCH  23  24
ENDBRANCH   1  23
TORSDOF 8
ENDMDL
MODEL 10
REMARK VINA RESULT:      -7.5      1.048      1.581
REMARK  8 active torsions:
REMARK  status: ('A' for Active; 'I' for Inactive)
REMARK    1  A    between atoms: O_2  and  C_3 
REMARK    2  A    between atoms: C_5  and  N_6 
REMARK       I    between atoms: N_6  and  C_7 
REMARK    3  A    between atoms: C_7  and  C_8 
REMARK    4  A    between atoms: C_8  and  O_9 
REMARK    5  A    between atoms: O_9  and  C_10 
REMARK    6  A    between atoms: C_13  and  C_14 
REMARK       I    between atoms: C_14  and  N_15 
REMARK    7  A    between atoms: N_15  and  C_16 
REMARK    8  A    between atoms: C_19  and  N_20 
ROOT
HETATM    1  C   UNL     1     -45.079  62.309 -51.189  1.00  0.00     0.069 A 
HETATM    2  C   UNL     1     -45.265  61.065 -51.787  1.00  0.00     0.038 A 
HETATM    3  C   UNL     1     -44.213  60.141 -51.812  1.00  0.00     0.020 A 
HETATM    4  C   UNL     1     -42.969  60.455 -51.249  1.00  0.00     0.032 A 
HETATM    5  C   UNL     1     -42.777  61.729 -50.696  1.00  0.00     0.020 A 
HETATM    6  C   UNL     1     -43.823  62.654 -50.688  1.00  0.00     0.038 A 
ENDROOT
BRANCH   4   7
HETATM    7  C   UNL     1     -41.946  59.368 -51.123  1.00  0.00     0.256 C 
HETATM    8  N   UNL     1     -42.444  58.080 -51.061  1.00  0.00    -0.323 N 
HETATM    9  H   UNL     1     -43.412  57.963 -50.798  1.00  0.00     0.169 HD
HETATM   10  O   UNL     1     -40.760  59.680 -51.120  1.00  0.00    -0.267 OA
BRANCH   8  11
HETATM   11  C   UNL     1     -41.782  56.907 -51.477  1.00  0.00     0.035 A 
HETATM   12  C   UNL     1     -41.639  56.523 -52.806  1.00  0.00     0.032 A 
HETATM   13  C   UNL     1     -41.133  55.255 -53.131  1.00  0.00     0.031 A 
HETATM   14  C   UNL     1     -40.756  54.333 -52.147  1.00  0.00     0.030 A 
HETATM   15  C   UNL     1     -40.854  54.764 -50.815  1.00  0.00     0.031 A 
HETATM   16  C   UNL     1     -41.353  56.030 -50.480  1.00  0.00     0.032 A 
BRANCH  14  17
HETATM   17  N   UNL     1     -40.389  53.018 -52.428  1.00  0.00    -0.381 N 
HETATM   18  C   UNL     1     -40.852  52.451 -53.703  1.00  0.00     0.123 C 
HETATM   19  C   UNL     1     -39.873  51.363 -54.147  1.00  0.00     0.020 C 
HETATM   20  C   UNL     1     -39.698  50.299 -53.065  1.00  0.00     0.003 C 
HETATM   21  C   UNL     1     -39.319  50.935 -51.728  1.00  0.00     0.020 C 
HETATM   22  C   UNL     1     -40.294  52.045 -51.333  1.00  0.00     0.123 C 
ENDBRANCH  14  17
ENDBRANCH   8  11
ENDBRANCH   4   7
BRANCH   1  23
HETATM   23  O   UNL     1     -46.054  63.239 -50.950  1.00  0.00    -0.342 OA
BRANCH  23  24
HETATM   24  C   UNL     1     -46.755  63.156 -49.714  1.00  0.00     0.278 C 
BRANCH  24  25
HETATM   25  C   UNL     1     -46.008  63.530 -48.415  1.00  0.00     0.246 C 
HETATM   26  N   UNL     1     -45.768  62.448 -47.586  1.00  0.00    -0.325 N 
HETATM   27  H   UNL     1     -46.114  61.557 -47.921  1.00  0.00     0.169 HD
HETATM   28  O   UNL     1     -45.685  64.696 -48.202  1.00  0.00    -0.271 OA
BRANCH  26  29
HETATM   29  C   UNL     1     -45.252  62.453 -46.275  1.00  0.00     0.037 A 
HETATM   30  C   UNL     1     -45.243  63.576 -45.442  1.00  0.00     0.066 A 
HETATM   31  C   UNL     1     -44.734  63.490 -44.141  1.00  0.00     0.070 A 
HETATM   32  C   UNL     1     -44.246  62.268 -43.672  1.00  0.00     0.037 A 
HETATM   33  C   UNL     1     -44.249  61.145 -44.493  1.00  0.00     0.005 A 
HETATM   34  C   UNL     1     -44.742  61.241 -45.794  1.00  0.00     0.029 A 
BRANCH  31  35
HETATM   35  O   UNL     1     -44.661  64.514 -43.235  1.00  0.00    -0.356 OA
HETATM   36  C   UNL     1     -45.508  64.423 -42.096  1.00  0.00     0.210 C 
ENDBRANCH  31  35
ENDBRANCH  26  29
ENDBRANCH  24  25
ENDBRANCH  23  24
ENDBRANCH   1  23
TORSDOF 8
ENDMDL
