MODEL 1
REMARK VINA RESULT:      -8.0      0.000      0.000
REMARK  4 active torsions:
REMARK  status: ('A' for Active; 'I' for Inactive)
REMARK    1  A    between atoms: C_9  and  N_10 
REMARK    2  A    between atoms: N_10  and  C_12 
REMARK    3  A    between atoms: C_12  and  C_13 
REMARK    4  A    between atoms: C_14  and  C_15 
ROOT
HETATM    1  C   UNL     1     -42.114  58.537 -55.371  1.00  0.00     0.016 A 
HETATM    2  C   UNL     1     -42.514  58.980 -56.679  1.00  0.00     0.096 A 
HETATM    3  N   UNL     1     -42.463  60.312 -56.772  1.00  0.00    -0.174 NA
HETATM    4  N   UNL     1     -42.133  60.735 -55.551  1.00  0.00    -0.288 N 
HETATM    5  H   UNL     1     -42.069  61.738 -55.391  1.00  0.00     0.188 HD
HETATM    6  C   UNL     1     -41.909  59.712 -54.672  1.00  0.00     0.120 A 
ENDROOT
BRANCH   1   7
HETATM    7  C   UNL     1     -41.995  57.113 -54.953  1.00  0.00     0.277 C 
BRANCH   7   8
HETATM    8  N   UNL     1     -42.921  56.533 -53.901  1.00  0.00    -0.065 N 
HETATM    9  H   UNL     1     -42.841  57.161 -53.093  1.00  0.00     0.280 HD
HETATM   10  C   UNL     1     -44.360  56.531 -54.326  1.00  0.00     0.270 C 
BRANCH   8  11
HETATM   11  C   UNL     1     -42.510  55.144 -53.514  1.00  0.00     0.205 C 
HETATM   12  C   UNL     1     -42.240  54.912 -51.981  1.00  0.00     0.008 C 
HETATM   13  C   UNL     1     -42.006  56.112 -51.057  1.00  0.00     0.020 C 
HETATM   14  C   UNL     1     -43.235  53.933 -51.350  1.00  0.00     0.020 C 
HETATM   15  C   UNL     1     -40.883  54.269 -52.361  1.00  0.00     0.137 C 
HETATM   16  C   UNL     1     -41.017  54.804 -53.797  1.00  0.00     0.049 C 
HETATM   17  O   UNL     1     -40.778  52.835 -52.434  1.00  0.00    -0.385 OA
HETATM   18  C   UNL     1     -40.761  53.547 -54.642  1.00  0.00     0.035 C 
HETATM   19  C   UNL     1     -40.160  52.521 -53.684  1.00  0.00     0.168 C 
ENDBRANCH   8  11
ENDBRANCH   7   8
ENDBRANCH   1   7
BRANCH   2  20
HETATM   20  C   UNL     1     -42.918  58.172 -57.827  1.00  0.00    -0.002 A 
HETATM   21  C   UNL     1     -44.250  57.761 -57.977  1.00  0.00     0.053 A 
HETATM   22  C   UNL     1     -44.622  56.984 -59.075  1.00  0.00     0.103 A 
HETATM   23  C   UNL     1     -43.671  56.599 -60.021  1.00  0.00     0.102 A 
HETATM   24  O   UNL     1     -45.946  56.632 -59.152  1.00  0.00    -0.346 OA
HETATM   25  O   UNL     1     -43.964  55.818 -61.107  1.00  0.00    -0.346 OA
HETATM   26  C   UNL     1     -42.353  57.028 -59.895  1.00  0.00     0.040 A 
HETATM   27  C   UNL     1     -45.256  55.208 -60.996  1.00  0.00     0.202 C 
HETATM   28  C   UNL     1     -46.285  56.202 -60.479  1.00  0.00     0.202 C 
HETATM   29  C   UNL     1     -41.976  57.814 -58.804  1.00  0.00     0.017 A 
ENDBRANCH   2  20
TORSDOF 4
ENDMDL
MODEL 2
REMARK VINA RESULT:      -7.9      4.703      6.712
REMARK  4 active torsions:
REMARK  status: ('A' for Active; 'I' for Inactive)
REMARK    1  A    between atoms: C_9  and  N_10 
REMARK    2  A    between atoms: N_10  and  C_12 
REMARK    3  A    between atoms: C_12  and  C_13 
REMARK    4  A    between atoms: C_14  and  C_15 
ROOT
HETATM    1  C   UNL     1     -43.222  56.136 -53.103  1.00  0.00     0.016 A 
HETATM    2  C   UNL     1     -44.069  57.297 -53.106  1.00  0.00     0.096 A 
HETATM    3  N   UNL     1     -45.024  57.194 -54.035  1.00  0.00    -0.174 NA
HETATM    4  N   UNL     1     -44.762  56.057 -54.680  1.00  0.00    -0.288 N 
HETATM    5  H   UNL     1     -45.360  55.799 -55.461  1.00  0.00     0.188 HD
HETATM    6  C   UNL     1     -43.693  55.381 -54.161  1.00  0.00     0.120 A 
ENDROOT
BRANCH   1   7
HETATM    7  C   UNL     1     -42.103  55.899 -52.150  1.00  0.00     0.277 C 
BRANCH   7   8
HETATM    8  N   UNL     1     -42.233  54.874 -51.040  1.00  0.00    -0.065 N 
HETATM    9  H   UNL     1     -41.756  55.289 -50.230  1.00  0.00     0.280 HD
HETATM   10  C   UNL     1     -43.657  54.622 -50.640  1.00  0.00     0.270 C 
BRANCH   8  11
HETATM   11  C   UNL     1     -41.579  53.577 -51.412  1.00  0.00     0.205 C 
HETATM   12  C   UNL     1     -40.355  53.147 -50.520  1.00  0.00     0.008 C 
HETATM   13  C   UNL     1     -39.653  54.184 -49.637  1.00  0.00     0.020 C 
HETATM   14  C   UNL     1     -40.627  51.862 -49.731  1.00  0.00     0.020 C 
HETATM   15  C   UNL     1     -39.541  52.925 -51.819  1.00  0.00     0.137 C 
HETATM   16  C   UNL     1     -40.618  53.659 -52.635  1.00  0.00     0.049 C 
HETATM   17  O   UNL     1     -39.416  51.594 -52.354  1.00  0.00    -0.385 OA
HETATM   18  C   UNL     1     -40.897  52.672 -53.778  1.00  0.00     0.035 C 
HETATM   19  C   UNL     1     -39.750  51.665 -53.742  1.00  0.00     0.168 C 
ENDBRANCH   8  11
ENDBRANCH   7   8
ENDBRANCH   1   7
BRANCH   2  20
HETATM   20  C   UNL     1     -44.000  58.474 -52.242  1.00  0.00    -0.002 A 
HETATM   21  C   UNL     1     -44.967  58.688 -51.250  1.00  0.00     0.053 A 
HETATM   22  C   UNL     1     -44.894  59.819 -50.436  1.00  0.00     0.103 A 
HETATM   23  C   UNL     1     -43.870  60.750 -50.613  1.00  0.00     0.102 A 
HETATM   24  O   UNL     1     -45.873  59.949 -49.483  1.00  0.00    -0.346 OA
HETATM   25  O   UNL     1     -43.754  61.892 -49.866  1.00  0.00    -0.346 OA
HETATM   26  C   UNL     1     -42.889  60.530 -51.576  1.00  0.00     0.040 A 
HETATM   27  C   UNL     1     -44.942  62.163 -49.112  1.00  0.00     0.202 C 
HETATM   28  C   UNL     1     -45.483  60.893 -48.474  1.00  0.00     0.202 C 
HETATM   29  C   UNL     1     -42.951  59.394 -52.387  1.00  0.00     0.017 A 
ENDBRANCH   2  20
TORSDOF 4
ENDMDL
MODEL 3
REMARK VINA RESULT:      -7.7      4.039      6.795
REMARK  4 active torsions:
REMARK  status: ('A' for Active; 'I' for Inactive)
REMARK    1  A    between atoms: C_9  and  N_10 
REMARK    2  A    between atoms: N_10  and  C_12 
REMARK    3  A    between atoms: C_12  and  C_13 
REMARK    4  A    between atoms: C_14  and  C_15 
ROOT
HETATM    1  C   UNL     1     -43.414  56.129 -54.023  1.00  0.00     0.016 A 
HETATM    2  C   UNL     1     -42.577  55.120 -54.614  1.00  0.00     0.096 A 
HETATM    3  N   UNL     1     -42.622  55.180 -55.949  1.00  0.00    -0.174 NA
HETATM    4  N   UNL     1     -43.519  56.126 -56.226  1.00  0.00    -0.288 N 
HETATM    5  H   UNL     1     -43.732  56.314 -57.203  1.00  0.00     0.188 HD
HETATM    6  C   UNL     1     -44.024  56.730 -55.109  1.00  0.00     0.120 A 
ENDROOT
BRANCH   1   7
HETATM    7  C   UNL     1     -43.543  56.381 -52.561  1.00  0.00     0.277 C 
BRANCH   7   8
HETATM    8  N   UNL     1     -44.063  57.709 -52.046  1.00  0.00    -0.065 N 
HETATM    9  H   UNL     1     -44.455  58.184 -52.867  1.00  0.00     0.280 HD
HETATM   10  C   UNL     1     -45.171  57.555 -51.046  1.00  0.00     0.270 C 
BRANCH   8  11
HETATM   11  C   UNL     1     -42.962  58.535 -51.451  1.00  0.00     0.205 C 
HETATM   12  C   UNL     1     -42.682  59.914 -52.158  1.00  0.00     0.008 C 
HETATM   13  C   UNL     1     -43.207  60.164 -53.576  1.00  0.00     0.020 C 
HETATM   14  C   UNL     1     -42.985  61.111 -51.252  1.00  0.00     0.020 C 
HETATM   15  C   UNL     1     -41.182  59.532 -52.213  1.00  0.00     0.137 C 
HETATM   16  C   UNL     1     -41.523  58.080 -51.839  1.00  0.00     0.049 C 
HETATM   17  O   UNL     1     -40.287  60.046 -51.210  1.00  0.00    -0.385 OA
HETATM   18  C   UNL     1     -40.565  57.808 -50.670  1.00  0.00     0.035 C 
HETATM   19  C   UNL     1     -39.539  58.938 -50.704  1.00  0.00     0.168 C 
ENDBRANCH   8  11
ENDBRANCH   7   8
ENDBRANCH   1   7
BRANCH   2  20
HETATM   20  C   UNL     1     -41.737  54.131 -53.944  1.00  0.00    -0.002 A 
HETATM   21  C   UNL     1     -41.553  52.857 -54.500  1.00  0.00     0.053 A 
HETATM   22  C   UNL     1     -40.753  51.919 -53.848  1.00  0.00     0.103 A 
HETATM   23  C   UNL     1     -40.144  52.235 -52.633  1.00  0.00     0.102 A 
HETATM   24  O   UNL     1     -40.617  50.699 -54.463  1.00  0.00    -0.346 OA
HETATM   25  O   UNL     1     -39.367  51.353 -51.929  1.00  0.00    -0.346 OA
HETATM   26  C   UNL     1     -40.297  53.507 -52.089  1.00  0.00     0.040 A 
HETATM   27  C   UNL     1     -39.501  50.013 -52.418  1.00  0.00     0.202 C 
HETATM   28  C   UNL     1     -39.489  49.984 -53.938  1.00  0.00     0.202 C 
HETATM   29  C   UNL     1     -41.089  54.454 -52.743  1.00  0.00     0.017 A 
ENDBRANCH   2  20
TORSDOF 4
ENDMDL
MODEL 4
REMARK VINA RESULT:      -7.6      1.955      2.841
REMARK  4 active torsions:
REMARK  status: ('A' for Active; 'I' for Inactive)
REMARK    1  A    between atoms: C_9  and  N_10 
REMARK    2  A    between atoms: N_10  and  C_12 
REMARK    3  A    between atoms: C_12  and  C_13 
REMARK    4  A    between atoms: C_14  and  C_15 
ROOT
HETATM    1  C   UNL     1     -41.715  56.979 -52.851  1.00  0.00     0.016 A 
HETATM    2  C   UNL     1     -41.730  57.735 -54.073  1.00  0.00     0.096 A 
HETATM    3  N   UNL     1     -40.994  58.845 -53.960  1.00  0.00    -0.174 NA
HETATM    4  N   UNL     1     -40.588  58.867 -52.691  1.00  0.00    -0.288 N 
HETATM    5  H   UNL     1     -40.030  59.660 -52.379  1.00  0.00     0.188 HD
HETATM    6  C   UNL     1     -40.990  57.772 -51.980  1.00  0.00     0.120 A 
ENDROOT
BRANCH   1   7
HETATM    7  C   UNL     1     -42.378  55.659 -52.657  1.00  0.00     0.277 C 
BRANCH   7   8
HETATM    8  N   UNL     1     -42.171  54.868 -51.380  1.00  0.00    -0.065 N 
HETATM    9  H   UNL     1     -41.529  55.433 -50.812  1.00  0.00     0.280 HD
HETATM   10  C   UNL     1     -43.434  54.694 -50.589  1.00  0.00     0.270 C 
BRANCH   8  11
HETATM   11  C   UNL     1     -41.565  53.526 -51.659  1.00  0.00     0.205 C 
HETATM   12  C   UNL     1     -40.327  53.135 -50.768  1.00  0.00     0.008 C 
HETATM   13  C   UNL     1     -39.569  54.221 -49.997  1.00  0.00     0.020 C 
HETATM   14  C   UNL     1     -40.609  51.930 -49.866  1.00  0.00     0.020 C 
HETATM   15  C   UNL     1     -39.559  52.781 -52.067  1.00  0.00     0.137 C 
HETATM   16  C   UNL     1     -40.640  53.476 -52.912  1.00  0.00     0.049 C 
HETATM   17  O   UNL     1     -39.487  51.407 -52.490  1.00  0.00    -0.385 OA
HETATM   18  C   UNL     1     -40.980  52.405 -53.958  1.00  0.00     0.035 C 
HETATM   19  C   UNL     1     -39.861  51.370 -53.869  1.00  0.00     0.168 C 
ENDBRANCH   8  11
ENDBRANCH   7   8
ENDBRANCH   1   7
BRANCH   2  20
HETATM   20  C   UNL     1     -42.403  57.417 -55.331  1.00  0.00    -0.002 A 
HETATM   21  C   UNL     1     -43.329  58.309 -55.890  1.00  0.00     0.053 A 
HETATM   22  C   UNL     1     -43.969  57.990 -57.087  1.00  0.00     0.103 A 
HETATM   23  C   UNL     1     -43.706  56.779 -57.728  1.00  0.00     0.102 A 
HETATM   24  O   UNL     1     -44.854  58.921 -57.572  1.00  0.00    -0.346 OA
HETATM   25  O   UNL     1     -44.317  56.394 -58.892  1.00  0.00    -0.346 OA
HETATM   26  C   UNL     1     -42.765  55.901 -57.195  1.00  0.00     0.040 A 
HETATM   27  C   UNL     1     -45.448  57.218 -59.200  1.00  0.00     0.202 C 
HETATM   28  C   UNL     1     -45.134  58.686 -58.960  1.00  0.00     0.202 C 
HETATM   29  C   UNL     1     -42.113  56.219 -56.001  1.00  0.00     0.017 A 
ENDBRANCH   2  20
TORSDOF 4
ENDMDL
MODEL 5
REMARK VINA RESULT:      -7.5     15.960     17.984
REMARK  4 active torsions:
REMARK  status: ('A' for Active; 'I' for Inactive)
REMARK    1  A    between atoms: C_9  and  N_10 
REMARK    2  A    between atoms: N_10  and  C_12 
REMARK    3  A    between atoms: C_12  and  C_13 
REMARK    4  A    between atoms: C_14  and  C_15 
ROOT
HETATM    1  C   UNL     1     -37.091  41.041 -53.395  1.00  0.00     0.016 A 
HETATM    2  C   UNL     1     -38.041  41.181 -54.465  1.00  0.00     0.096 A 
HETATM    3  N   UNL     1     -39.269  41.412 -53.991  1.00  0.00    -0.174 NA
HETATM    4  N   UNL     1     -39.151  41.336 -52.665  1.00  0.00    -0.288 N 
HETATM    5  H   UNL     1     -39.990  41.452 -52.101  1.00  0.00     0.188 HD
HETATM    6  C   UNL     1     -37.867  41.117 -52.253  1.00  0.00     0.120 A 
ENDROOT
BRANCH   1   7
HETATM    7  C   UNL     1     -35.627  40.842 -53.576  1.00  0.00     0.277 C 
BRANCH   7   8
HETATM    8  N   UNL     1     -34.956  39.561 -53.121  1.00  0.00    -0.065 N 
HETATM    9  H   UNL     1     -34.690  39.726 -52.143  1.00  0.00     0.280 HD
HETATM   10  C   UNL     1     -35.878  38.378 -53.141  1.00  0.00     0.270 C 
BRANCH   8  11
HETATM   11  C   UNL     1     -33.736  39.260 -53.940  1.00  0.00     0.205 C 
HETATM   12  C   UNL     1     -32.359  39.385 -53.189  1.00  0.00     0.008 C 
HETATM   13  C   UNL     1     -32.277  40.161 -51.870  1.00  0.00     0.020 C 
HETATM   14  C   UNL     1     -31.630  38.043 -53.070  1.00  0.00     0.020 C 
HETATM   15  C   UNL     1     -31.853  40.273 -54.353  1.00  0.00     0.137 C 
HETATM   16  C   UNL     1     -33.288  40.412 -54.889  1.00  0.00     0.049 C 
HETATM   17  O   UNL     1     -31.051  39.682 -55.393  1.00  0.00    -0.385 OA
HETATM   18  C   UNL     1     -33.124  40.040 -56.370  1.00  0.00     0.035 C 
HETATM   19  C   UNL     1     -31.623  40.078 -56.642  1.00  0.00     0.168 C 
ENDBRANCH   8  11
ENDBRANCH   7   8
ENDBRANCH   1   7
BRANCH   2  20
HETATM   20  C   UNL     1     -37.803  41.120 -55.906  1.00  0.00    -0.002 A 
HETATM   21  C   UNL     1     -38.104  39.958 -56.630  1.00  0.00     0.053 A 
HETATM   22  C   UNL     1     -37.866  39.910 -58.003  1.00  0.00     0.103 A 
HETATM   23  C   UNL     1     -37.313  41.008 -58.663  1.00  0.00     0.102 A 
HETATM   24  O   UNL     1     -38.197  38.739 -58.639  1.00  0.00    -0.346 OA
HETATM   25  O   UNL     1     -37.032  41.018 -60.003  1.00  0.00    -0.346 OA
HETATM   26  C   UNL     1     -37.039  42.176 -57.956  1.00  0.00     0.040 A 
HETATM   27  C   UNL     1     -37.084  39.704 -60.571  1.00  0.00     0.202 C 
HETATM   28  C   UNL     1     -38.292  38.936 -60.058  1.00  0.00     0.202 C 
HETATM   29  C   UNL     1     -37.285  42.234 -56.582  1.00  0.00     0.017 A 
ENDBRANCH   2  20
TORSDOF 4
ENDMDL
MODEL 6
REMARK VINA RESULT:      -7.5      2.068      7.116
REMARK  4 active torsions:
REMARK  status: ('A' for Active; 'I' for Inactive)
REMARK    1  A    between atoms: C_9  and  N_10 
REMARK    2  A    between atoms: N_10  and  C_12 
REMARK    3  A    between atoms: C_12  and  C_13 
REMARK    4  A    between atoms: C_14  and  C_15 
ROOT
HETATM    1  C   UNL     1     -43.167  57.081 -52.250  1.00  0.00     0.016 A 
HETATM    2  C   UNL     1     -43.075  55.821 -51.562  1.00  0.00     0.096 A 
HETATM    3  N   UNL     1     -44.071  55.680 -50.683  1.00  0.00    -0.174 NA
HETATM    4  N   UNL     1     -44.738  56.833 -50.723  1.00  0.00    -0.288 N 
HETATM    5  H   UNL     1     -45.531  56.951 -50.096  1.00  0.00     0.188 HD
HETATM    6  C   UNL     1     -44.241  57.709 -51.646  1.00  0.00     0.120 A 
ENDROOT
BRANCH   1   7
HETATM    7  C   UNL     1     -42.254  57.526 -53.339  1.00  0.00     0.277 C 
BRANCH   7   8
HETATM    8  N   UNL     1     -42.635  58.679 -54.247  1.00  0.00    -0.065 N 
HETATM    9  H   UNL     1     -43.565  58.979 -53.930  1.00  0.00     0.280 HD
HETATM   10  C   UNL     1     -41.715  59.857 -54.115  1.00  0.00     0.270 C 
BRANCH   8  11
HETATM   11  C   UNL     1     -42.697  58.249 -55.682  1.00  0.00     0.205 C 
HETATM   12  C   UNL     1     -43.807  58.942 -56.558  1.00  0.00     0.008 C 
HETATM   13  C   UNL     1     -44.976  59.661 -55.877  1.00  0.00     0.020 C 
HETATM   14  C   UNL     1     -43.217  59.808 -57.675  1.00  0.00     0.020 C 
HETATM   15  C   UNL     1     -44.255  57.535 -57.025  1.00  0.00     0.137 C 
HETATM   16  C   UNL     1     -43.404  56.882 -55.923  1.00  0.00     0.049 C 
HETATM   17  O   UNL     1     -43.794  57.032 -58.292  1.00  0.00    -0.385 OA
HETATM   18  C   UNL     1     -42.598  55.835 -56.706  1.00  0.00     0.035 C 
HETATM   19  C   UNL     1     -43.285  55.716 -58.064  1.00  0.00     0.168 C 
ENDBRANCH   8  11
ENDBRANCH   7   8
ENDBRANCH   1   7
BRANCH   2  20
HETATM   20  C   UNL     1     -42.084  54.761 -51.737  1.00  0.00    -0.002 A 
HETATM   21  C   UNL     1     -42.107  53.945 -52.876  1.00  0.00     0.053 A 
HETATM   22  C   UNL     1     -41.160  52.932 -53.028  1.00  0.00     0.103 A 
HETATM   23  C   UNL     1     -40.195  52.715 -52.044  1.00  0.00     0.102 A 
HETATM   24  O   UNL     1     -41.246  52.183 -54.176  1.00  0.00    -0.346 OA
HETATM   25  O   UNL     1     -39.253  51.723 -52.119  1.00  0.00    -0.346 OA
HETATM   26  C   UNL     1     -40.147  53.541 -50.924  1.00  0.00     0.040 A 
HETATM   27  C   UNL     1     -39.557  50.772 -53.147  1.00  0.00     0.202 C 
HETATM   28  C   UNL     1     -40.023  51.471 -54.415  1.00  0.00     0.202 C 
HETATM   29  C   UNL     1     -41.087  54.563 -50.771  1.00  0.00     0.017 A 
ENDBRANCH   2  20
TORSDOF 4
ENDMDL
MODEL 7
REMARK VINA RESULT:      -7.2     16.716     18.847
REMARK  4 active torsions:
REMARK  status: ('A' for Active; 'I' for Inactive)
REMARK    1  A    between atoms: C_9  and  N_10 
REMARK    2  A    between atoms: N_10  and  C_12 
REMARK    3  A    between atoms: C_12  and  C_13 
REMARK    4  A    between atoms: C_14  and  C_15 
ROOT
HETATM    1  C   UNL     1     -32.591  37.964 -55.128  1.00  0.00     0.016 A 
HETATM    2  C   UNL     1     -32.746  38.555 -56.429  1.00  0.00     0.096 A 
HETATM    3  N   UNL     1     -31.792  38.134 -57.265  1.00  0.00    -0.174 NA
HETATM    4  N   UNL     1     -30.989  37.371 -56.524  1.00  0.00    -0.288 N 
HETATM    5  H   UNL     1     -30.166  36.968 -56.966  1.00  0.00     0.188 HD
HETATM    6  C   UNL     1     -31.422  37.232 -55.235  1.00  0.00     0.120 A 
ENDROOT
BRANCH   1   7
HETATM    7  C   UNL     1     -33.520  38.167 -53.983  1.00  0.00     0.277 C 
BRANCH   7   8
HETATM    8  N   UNL     1     -33.285  39.283 -52.982  1.00  0.00    -0.065 N 
HETATM    9  H   UNL     1     -33.214  38.817 -52.069  1.00  0.00     0.280 HD
HETATM   10  C   UNL     1     -31.996  40.015 -53.214  1.00  0.00     0.270 C 
BRANCH   8  11
HETATM   11  C   UNL     1     -34.423  40.259 -52.973  1.00  0.00     0.205 C 
HETATM   12  C   UNL     1     -34.868  40.778 -51.555  1.00  0.00     0.008 C 
HETATM   13  C   UNL     1     -34.449  40.011 -50.296  1.00  0.00     0.020 C 
HETATM   14  C   UNL     1     -34.628  42.280 -51.377  1.00  0.00     0.020 C 
HETATM   15  C   UNL     1     -36.328  40.417 -51.929  1.00  0.00     0.137 C 
HETATM   16  C   UNL     1     -35.833  39.619 -53.147  1.00  0.00     0.049 C 
HETATM   17  O   UNL     1     -37.209  41.449 -52.408  1.00  0.00    -0.385 OA
HETATM   18  C   UNL     1     -36.694  40.188 -54.285  1.00  0.00     0.035 C 
HETATM   19  C   UNL     1     -37.821  40.960 -53.604  1.00  0.00     0.168 C 
ENDBRANCH   8  11
ENDBRANCH   7   8
ENDBRANCH   1   7
BRANCH   2  20
HETATM   20  C   UNL     1     -33.778  39.482 -56.889  1.00  0.00    -0.002 A 
HETATM   21  C   UNL     1     -34.848  39.027 -57.671  1.00  0.00     0.053 A 
HETATM   22  C   UNL     1     -35.823  39.924 -58.109  1.00  0.00     0.103 A 
HETATM   23  C   UNL     1     -35.734  41.278 -57.785  1.00  0.00     0.102 A 
HETATM   24  O   UNL     1     -36.843  39.396 -58.863  1.00  0.00    -0.346 OA
HETATM   25  O   UNL     1     -36.643  42.213 -58.202  1.00  0.00    -0.346 OA
HETATM   26  C   UNL     1     -34.690  41.732 -56.983  1.00  0.00     0.040 A 
HETATM   27  C   UNL     1     -37.499  41.706 -59.232  1.00  0.00     0.202 C 
HETATM   28  C   UNL     1     -37.962  40.293 -58.909  1.00  0.00     0.202 C 
HETATM   29  C   UNL     1     -33.716  40.838 -56.533  1.00  0.00     0.017 A 
ENDBRANCH   2  20
TORSDOF 4
ENDMDL
MODEL 8
REMARK VINA RESULT:      -7.2      1.882      3.058
REMARK  4 active torsions:
REMARK  status: ('A' for Active; 'I' for Inactive)
REMARK    1  A    between atoms: C_9  and  N_10 
REMARK    2  A    between atoms: N_10  and  C_12 
REMARK    3  A    between atoms: C_12  and  C_13 
REMARK    4  A    between atoms: C_14  and  C_15 
ROOT
HETATM    1  C   UNL     1     -44.051  57.941 -53.068  1.00  0.00     0.016 A 
HETATM    2  C   UNL     1     -44.245  58.758 -54.235  1.00  0.00     0.096 A 
HETATM    3  N   UNL     1     -45.069  59.778 -53.976  1.00  0.00    -0.174 NA
HETATM    4  N   UNL     1     -45.474  59.590 -52.720  1.00  0.00    -0.288 N 
HETATM    5  H   UNL     1     -46.144  60.248 -52.328  1.00  0.00     0.188 HD
HETATM    6  C   UNL     1     -44.894  58.504 -52.127  1.00  0.00     0.120 A 
ENDROOT
BRANCH   1   7
HETATM    7  C   UNL     1     -43.142  56.764 -52.993  1.00  0.00     0.277 C 
BRANCH   7   8
HETATM    8  N   UNL     1     -41.751  56.819 -53.594  1.00  0.00    -0.065 N 
HETATM    9  H   UNL     1     -41.896  56.967 -54.599  1.00  0.00     0.280 HD
HETATM   10  C   UNL     1     -40.938  57.971 -53.082  1.00  0.00     0.270 C 
BRANCH   8  11
HETATM   11  C   UNL     1     -41.005  55.538 -53.366  1.00  0.00     0.205 C 
HETATM   12  C   UNL     1     -41.278  54.392 -54.411  1.00  0.00     0.008 C 
HETATM   13  C   UNL     1     -42.516  54.458 -55.310  1.00  0.00     0.020 C 
HETATM   14  C   UNL     1     -40.034  54.038 -55.231  1.00  0.00     0.020 C 
HETATM   15  C   UNL     1     -41.541  53.432 -53.224  1.00  0.00     0.137 C 
HETATM   16  C   UNL     1     -41.603  54.624 -52.255  1.00  0.00     0.049 C 
HETATM   17  O   UNL     1     -40.488  52.557 -52.778  1.00  0.00    -0.385 OA
HETATM   18  C   UNL     1     -40.634  54.196 -51.142  1.00  0.00     0.035 C 
HETATM   19  C   UNL     1     -40.390  52.704 -51.359  1.00  0.00     0.168 C 
ENDBRANCH   8  11
ENDBRANCH   7   8
ENDBRANCH   1   7
BRANCH   2  20
HETATM   20  C   UNL     1     -43.655  58.600 -55.563  1.00  0.00    -0.002 A 
HETATM   21  C   UNL     1     -44.126  57.614 -56.440  1.00  0.00     0.053 A 
HETATM   22  C   UNL     1     -43.550  57.469 -57.702  1.00  0.00     0.103 A 
HETATM   23  C   UNL     1     -42.494  58.292 -58.095  1.00  0.00     0.102 A 
HETATM   24  O   UNL     1     -44.075  56.485 -58.503  1.00  0.00    -0.346 OA
HETATM   25  O   UNL     1     -41.869  58.187 -59.308  1.00  0.00    -0.346 OA
HETATM   26  C   UNL     1     -42.041  59.294 -57.241  1.00  0.00     0.040 A 
HETATM   27  C   UNL     1     -42.212  56.971 -59.984  1.00  0.00     0.202 C 
HETATM   28  C   UNL     1     -43.702  56.688 -59.874  1.00  0.00     0.202 C 
HETATM   29  C   UNL     1     -42.620  59.451 -55.979  1.00  0.00     0.017 A 
ENDBRANCH   2  20
TORSDOF 4
ENDMDL
MODEL 9
REMARK VINA RESULT:      -7.1      2.790      7.503
REMARK  4 active torsions:
REMARK  status: ('A' for Active; 'I' for Inactive)
REMARK    1  A    between atoms: C_9  and  N_10 
REMARK    2  A    between atoms: N_10  and  C_12 
REMARK    3  A    between atoms: C_12  and  C_13 
REMARK    4  A    between atoms: C_14  and  C_15 
ROOT
HETATM    1  C   UNL     1     -42.541  57.024 -52.598  1.00  0.00     0.016 A 
HETATM    2  C   UNL     1     -42.494  55.862 -51.751  1.00  0.00     0.096 A 
HETATM    3  N   UNL     1     -43.388  55.953 -50.762  1.00  0.00    -0.174 NA
HETATM    4  N   UNL     1     -43.936  57.161 -50.895  1.00  0.00    -0.288 N 
HETATM    5  H   UNL     1     -44.632  57.450 -50.211  1.00  0.00     0.188 HD
HETATM    6  C   UNL     1     -43.467  57.845 -51.980  1.00  0.00     0.120 A 
ENDROOT
BRANCH   1   7
HETATM    7  C   UNL     1     -41.725  57.215 -53.828  1.00  0.00     0.277 C 
BRANCH   7   8
HETATM    8  N   UNL     1     -42.372  57.191 -55.200  1.00  0.00    -0.065 N 
HETATM    9  H   UNL     1     -41.603  57.023 -55.859  1.00  0.00     0.280 HD
HETATM   10  C   UNL     1     -43.356  56.070 -55.363  1.00  0.00     0.270 C 
BRANCH   8  11
HETATM   11  C   UNL     1     -43.041  58.496 -55.513  1.00  0.00     0.205 C 
HETATM   12  C   UNL     1     -43.034  58.923 -57.028  1.00  0.00     0.008 C 
HETATM   13  C   UNL     1     -42.052  58.262 -58.002  1.00  0.00     0.020 C 
HETATM   14  C   UNL     1     -44.441  58.972 -57.631  1.00  0.00     0.020 C 
HETATM   15  C   UNL     1     -42.490  60.306 -56.591  1.00  0.00     0.137 C 
HETATM   16  C   UNL     1     -42.191  59.760 -55.185  1.00  0.00     0.049 C 
HETATM   17  O   UNL     1     -43.403  61.409 -56.449  1.00  0.00    -0.385 OA
HETATM   18  C   UNL     1     -42.859  60.803 -54.278  1.00  0.00     0.035 C 
HETATM   19  C   UNL     1     -43.151  62.004 -55.174  1.00  0.00     0.168 C 
ENDBRANCH   8  11
ENDBRANCH   7   8
ENDBRANCH   1   7
BRANCH   2  20
HETATM   20  C   UNL     1     -41.643  54.681 -51.876  1.00  0.00    -0.002 A 
HETATM   21  C   UNL     1     -41.746  53.843 -52.995  1.00  0.00     0.053 A 
HETATM   22  C   UNL     1     -40.932  52.715 -53.099  1.00  0.00     0.103 A 
HETATM   23  C   UNL     1     -40.024  52.404 -52.087  1.00  0.00     0.102 A 
HETATM   24  O   UNL     1     -41.088  51.953 -54.231  1.00  0.00    -0.346 OA
HETATM   25  O   UNL     1     -39.214  51.300 -52.115  1.00  0.00    -0.346 OA
HETATM   26  C   UNL     1     -39.895  53.247 -50.987  1.00  0.00     0.040 A 
HETATM   27  C   UNL     1     -39.615  50.367 -53.127  1.00  0.00     0.202 C 
HETATM   28  C   UNL     1     -39.961  51.085 -54.422  1.00  0.00     0.202 C 
HETATM   29  C   UNL     1     -40.700  54.384 -50.881  1.00  0.00     0.017 A 
ENDBRANCH   2  20
TORSDOF 4
ENDMDL
MODEL 10
REMARK VINA RESULT:      -7.1      1.918      6.919
REMARK  4 active torsions:
REMARK  status: ('A' for Active; 'I' for Inactive)
REMARK    1  A    between atoms: C_9  and  N_10 
REMARK    2  A    between atoms: N_10  and  C_12 
REMARK    3  A    between atoms: C_12  and  C_13 
REMARK    4  A    between atoms: C_14  and  C_15 
ROOT
HETATM    1  C   UNL     1     -43.804  57.855 -54.357  1.00  0.00     0.016 A 
HETATM    2  C   UNL     1     -43.487  56.848 -53.381  1.00  0.00     0.096 A 
HETATM    3  N   UNL     1     -43.916  57.204 -52.167  1.00  0.00    -0.174 NA
HETATM    4  N   UNL     1     -44.413  58.432 -52.317  1.00  0.00    -0.288 N 
HETATM    5  H   UNL     1     -44.771  58.909 -51.493  1.00  0.00     0.188 HD
HETATM    6  C   UNL     1     -44.373  58.871 -53.611  1.00  0.00     0.120 A 
ENDROOT
BRANCH   1   7
HETATM    7  C   UNL     1     -43.526  57.746 -55.816  1.00  0.00     0.277 C 
BRANCH   7   8
HETATM    8  N   UNL     1     -44.616  57.328 -56.784  1.00  0.00    -0.065 N 
HETATM    9  H   UNL     1     -44.789  56.335 -56.585  1.00  0.00     0.280 HD
HETATM   10  C   UNL     1     -45.907  58.061 -56.565  1.00  0.00     0.270 C 
BRANCH   8  11
HETATM   11  C   UNL     1     -44.179  57.497 -58.208  1.00  0.00     0.205 C 
HETATM   12  C   UNL     1     -43.904  56.166 -59.003  1.00  0.00     0.008 C 
HETATM   13  C   UNL     1     -43.694  54.853 -58.242  1.00  0.00     0.020 C 
HETATM   14  C   UNL     1     -44.881  55.964 -60.166  1.00  0.00     0.020 C 
HETATM   15  C   UNL     1     -42.535  56.752 -59.428  1.00  0.00     0.137 C 
HETATM   16  C   UNL     1     -42.678  57.877 -58.389  1.00  0.00     0.049 C 
HETATM   17  O   UNL     1     -42.403  57.366 -60.723  1.00  0.00    -0.385 OA
HETATM   18  C   UNL     1     -42.398  59.135 -59.223  1.00  0.00     0.035 C 
HETATM   19  C   UNL     1     -41.778  58.636 -60.526  1.00  0.00     0.168 C 
ENDBRANCH   8  11
ENDBRANCH   7   8
ENDBRANCH   1   7
BRANCH   2  20
HETATM   20  C   UNL     1     -42.812  55.568 -53.583  1.00  0.00    -0.002 A 
HETATM   21  C   UNL     1     -41.790  55.156 -52.718  1.00  0.00     0.053 A 
HETATM   22  C   UNL     1     -41.149  53.934 -52.925  1.00  0.00     0.103 A 
HETATM   23  C   UNL     1     -41.508  53.123 -54.002  1.00  0.00     0.102 A 
HETATM   24  O   UNL     1     -40.165  53.601 -52.027  1.00  0.00    -0.346 OA
HETATM   25  O   UNL     1     -40.904  51.925 -54.276  1.00  0.00    -0.346 OA
HETATM   26  C   UNL     1     -42.543  53.511 -54.849  1.00  0.00     0.040 A 
HETATM   27  C   UNL     1     -39.691  51.755 -53.533  1.00  0.00     0.202 C 
HETATM   28  C   UNL     1     -39.870  52.198 -52.089  1.00  0.00     0.202 C 
HETATM   29  C   UNL     1     -43.196  54.728 -54.640  1.00  0.00     0.017 A 
ENDBRANCH   2  20
TORSDOF 4
ENDMDL
