MODEL 1
REMARK VINA RESULT:      -7.5      0.000      0.000
REMARK  5 active torsions:
REMARK  status: ('A' for Active; 'I' for Inactive)
REMARK    1  A    between atoms: C_3  and  C_4 
REMARK       I    between atoms: C_4  and  N_5 
REMARK    2  A    between atoms: C_7  and  N_8 
REMARK    3  A    between atoms: N_8  and  C_9 
REMARK    4  A    between atoms: C_9  and  C_10 
REMARK    5  A    between atoms: C_10  and  C_11 
ROOT
HETATM    1  C   UNL     1     -44.343  56.694 -50.992  1.00  0.00     0.049 C 
HETATM    2  C   UNL     1     -43.080  57.009 -51.748  1.00  0.00    -0.041 A 
HETATM    3  C   UNL     1     -42.746  56.359 -52.948  1.00  0.00     0.081 A 
HETATM    4  C   UNL     1     -41.535  56.639 -53.618  1.00  0.00     0.117 A 
HETATM    5  N   UNL     1     -40.701  57.518 -53.032  1.00  0.00    -0.346 N 
HETATM    6  H   UNL     1     -39.802  57.676 -53.473  1.00  0.00     0.167 HD
HETATM    7  C   UNL     1     -40.966  58.169 -51.885  1.00  0.00     0.007 A 
HETATM    8  C   UNL     1     -39.945  59.116 -51.340  1.00  0.00     0.068 C 
HETATM    9  C   UNL     1     -42.168  57.925 -51.222  1.00  0.00     0.032 A 
ENDROOT
BRANCH   4  10
HETATM   10  N   UNL     1     -41.135  55.965 -54.766  1.00  0.00    -0.375 N 
HETATM   11  H   UNL     1     -41.108  56.574 -55.591  1.00  0.00     0.161 HD
BRANCH  10  12
HETATM   12  C   UNL     1     -40.092  54.945 -54.764  1.00  0.00     0.126 C 
BRANCH  12  13
HETATM   13  C   UNL     1     -40.678  53.556 -55.045  1.00  0.00     0.058 C 
BRANCH  13  14
HETATM   14  C   UNL     1     -40.319  52.598 -53.935  1.00  0.00    -0.057 A 
HETATM   15  C   UNL     1     -40.198  53.063 -52.616  1.00  0.00     0.010 A 
HETATM   16  C   UNL     1     -39.815  52.191 -51.594  1.00  0.00     0.043 A 
HETATM   17  C   UNL     1     -39.550  50.860 -51.891  1.00  0.00     0.116 A 
HETATM   18  F   UNL     1     -39.171  50.029 -50.913  1.00  0.00    -0.206 F 
HETATM   19  C   UNL     1     -39.669  50.381 -53.190  1.00  0.00     0.043 A 
HETATM   20  C   UNL     1     -40.054  51.248 -54.214  1.00  0.00     0.010 A 
ENDBRANCH  13  14
ENDBRANCH  12  13
ENDBRANCH  10  12
ENDBRANCH   4  10
BRANCH   3  21
HETATM   21  C   UNL     1     -43.630  55.313 -53.482  1.00  0.00     0.253 C 
HETATM   22  N   UNL     1     -44.626  55.729 -54.320  1.00  0.00    -0.366 N 
HETATM   23  H   UNL     1     -44.969  56.681 -54.330  1.00  0.00     0.159 HD
HETATM   24  H   UNL     1     -45.307  55.014 -54.567  1.00  0.00     0.159 HD
HETATM   25  O   UNL     1     -43.468  54.145 -53.170  1.00  0.00    -0.268 OA
ENDBRANCH   3  21
TORSDOF 5
ENDMDL
MODEL 2
REMARK VINA RESULT:      -7.3      2.130      2.745
REMARK  5 active torsions:
REMARK  status: ('A' for Active; 'I' for Inactive)
REMARK    1  A    between atoms: C_3  and  C_4 
REMARK       I    between atoms: C_4  and  N_5 
REMARK    2  A    between atoms: C_7  and  N_8 
REMARK    3  A    between atoms: N_8  and  C_9 
REMARK    4  A    between atoms: C_9  and  C_10 
REMARK    5  A    between atoms: C_10  and  C_11 
ROOT
HETATM    1  C   UNL     1     -43.910  60.224 -52.042  1.00  0.00     0.049 C 
HETATM    2  C   UNL     1     -42.793  59.313 -51.612  1.00  0.00    -0.041 A 
HETATM    3  C   UNL     1     -42.984  57.934 -51.425  1.00  0.00     0.081 A 
HETATM    4  C   UNL     1     -41.931  57.105 -50.980  1.00  0.00     0.117 A 
HETATM    5  N   UNL     1     -40.757  57.703 -50.701  1.00  0.00    -0.346 N 
HETATM    6  H   UNL     1     -40.017  57.125 -50.319  1.00  0.00     0.167 HD
HETATM    7  C   UNL     1     -40.517  59.017 -50.859  1.00  0.00     0.007 A 
HETATM    8  C   UNL     1     -39.166  59.551 -50.503  1.00  0.00     0.068 C 
HETATM    9  C   UNL     1     -41.536  59.848 -51.322  1.00  0.00     0.032 A 
ENDROOT
BRANCH   4  10
HETATM   10  N   UNL     1     -42.099  55.751 -50.712  1.00  0.00    -0.375 N 
HETATM   11  H   UNL     1     -42.945  55.560 -50.166  1.00  0.00     0.161 HD
BRANCH  10  12
HETATM   12  C   UNL     1     -41.787  54.706 -51.681  1.00  0.00     0.126 C 
BRANCH  12  13
HETATM   13  C   UNL     1     -40.536  53.922 -51.265  1.00  0.00     0.058 C 
BRANCH  13  14
HETATM   14  C   UNL     1     -40.282  52.786 -52.225  1.00  0.00    -0.057 A 
HETATM   15  C   UNL     1     -40.708  52.883 -53.559  1.00  0.00     0.010 A 
HETATM   16  C   UNL     1     -40.522  51.814 -54.437  1.00  0.00     0.043 A 
HETATM   17  C   UNL     1     -39.914  50.650 -53.982  1.00  0.00     0.116 A 
HETATM   18  F   UNL     1     -39.748  49.621 -54.822  1.00  0.00    -0.206 F 
HETATM   19  C   UNL     1     -39.481  50.538 -52.667  1.00  0.00     0.043 A 
HETATM   20  C   UNL     1     -39.663  51.605 -51.786  1.00  0.00     0.010 A 
ENDBRANCH  13  14
ENDBRANCH  12  13
ENDBRANCH  10  12
ENDBRANCH   4  10
BRANCH   3  21
HETATM   21  C   UNL     1     -44.317  57.349 -51.620  1.00  0.00     0.253 C 
HETATM   22  N   UNL     1     -44.646  56.998 -52.898  1.00  0.00    -0.366 N 
HETATM   23  H   UNL     1     -44.187  57.395 -53.709  1.00  0.00     0.159 HD
HETATM   24  H   UNL     1     -45.617  56.725 -53.034  1.00  0.00     0.159 HD
HETATM   25  O   UNL     1     -45.075  57.204 -50.675  1.00  0.00    -0.268 OA
ENDBRANCH   3  21
TORSDOF 5
ENDMDL
MODEL 3
REMARK VINA RESULT:      -7.3      2.167      2.884
REMARK  5 active torsions:
REMARK  status: ('A' for Active; 'I' for Inactive)
REMARK    1  A    between atoms: C_3  and  C_4 
REMARK       I    between atoms: C_4  and  N_5 
REMARK    2  A    between atoms: C_7  and  N_8 
REMARK    3  A    between atoms: N_8  and  C_9 
REMARK    4  A    between atoms: C_9  and  C_10 
REMARK    5  A    between atoms: C_10  and  C_11 
ROOT
HETATM    1  C   UNL     1     -44.109  57.229 -52.850  1.00  0.00     0.049 C 
HETATM    2  C   UNL     1     -42.885  57.165 -51.977  1.00  0.00    -0.041 A 
HETATM    3  C   UNL     1     -42.511  55.991 -51.302  1.00  0.00     0.081 A 
HETATM    4  C   UNL     1     -41.383  55.966 -50.452  1.00  0.00     0.117 A 
HETATM    5  N   UNL     1     -40.716  57.123 -50.286  1.00  0.00    -0.346 N 
HETATM    6  H   UNL     1     -39.945  57.129 -49.628  1.00  0.00     0.167 HD
HETATM    7  C   UNL     1     -41.030  58.277 -50.903  1.00  0.00     0.007 A 
HETATM    8  C   UNL     1     -40.206  59.493 -50.621  1.00  0.00     0.068 C 
HETATM    9  C   UNL     1     -42.124  58.315 -51.766  1.00  0.00     0.032 A 
ENDROOT
BRANCH   4  10
HETATM   10  N   UNL     1     -41.023  54.846 -49.710  1.00  0.00    -0.375 N 
HETATM   11  H   UNL     1     -41.835  54.340 -49.342  1.00  0.00     0.161 HD
BRANCH  10  12
HETATM   12  C   UNL     1     -39.914  53.972 -50.081  1.00  0.00     0.126 C 
BRANCH  12  13
HETATM   13  C   UNL     1     -40.283  52.497 -49.880  1.00  0.00     0.058 C 
BRANCH  13  14
HETATM   14  C   UNL     1     -40.072  51.723 -51.158  1.00  0.00    -0.057 A 
HETATM   15  C   UNL     1     -39.811  50.345 -51.111  1.00  0.00     0.010 A 
HETATM   16  C   UNL     1     -39.564  49.634 -52.287  1.00  0.00     0.043 A 
HETATM   17  C   UNL     1     -39.573  50.300 -53.506  1.00  0.00     0.116 A 
HETATM   18  F   UNL     1     -39.323  49.620 -54.632  1.00  0.00    -0.206 F 
HETATM   19  C   UNL     1     -39.835  51.663 -53.573  1.00  0.00     0.043 A 
HETATM   20  C   UNL     1     -40.085  52.377 -52.400  1.00  0.00     0.010 A 
ENDBRANCH  13  14
ENDBRANCH  12  13
ENDBRANCH  10  12
ENDBRANCH   4  10
BRANCH   3  21
HETATM   21  C   UNL     1     -43.344  54.786 -51.415  1.00  0.00     0.253 C 
HETATM   22  N   UNL     1     -44.394  54.690 -50.547  1.00  0.00    -0.366 N 
HETATM   23  H   UNL     1     -44.432  55.203 -49.675  1.00  0.00     0.159 HD
HETATM   24  H   UNL     1     -44.873  53.792 -50.548  1.00  0.00     0.159 HD
HETATM   25  O   UNL     1     -43.085  53.929 -52.243  1.00  0.00    -0.268 OA
ENDBRANCH   3  21
TORSDOF 5
ENDMDL
MODEL 4
REMARK VINA RESULT:      -7.2      3.577      6.473
REMARK  5 active torsions:
REMARK  status: ('A' for Active; 'I' for Inactive)
REMARK    1  A    between atoms: C_3  and  C_4 
REMARK       I    between atoms: C_4  and  N_5 
REMARK    2  A    between atoms: C_7  and  N_8 
REMARK    3  A    between atoms: N_8  and  C_9 
REMARK    4  A    between atoms: C_9  and  C_10 
REMARK    5  A    between atoms: C_10  and  C_11 
ROOT
HETATM    1  C   UNL     1     -39.721  49.828 -53.891  1.00  0.00     0.049 C 
HETATM    2  C   UNL     1     -39.877  51.209 -53.315  1.00  0.00    -0.041 A 
HETATM    3  C   UNL     1     -39.859  51.448 -51.931  1.00  0.00     0.081 A 
HETATM    4  C   UNL     1     -40.050  52.747 -51.411  1.00  0.00     0.117 A 
HETATM    5  N   UNL     1     -40.297  53.730 -52.297  1.00  0.00    -0.346 N 
HETATM    6  H   UNL     1     -40.500  54.652 -51.929  1.00  0.00     0.167 HD
HETATM    7  C   UNL     1     -40.329  53.561 -53.631  1.00  0.00     0.007 A 
HETATM    8  C   UNL     1     -40.621  54.741 -54.502  1.00  0.00     0.068 C 
HETATM    9  C   UNL     1     -40.116  52.290 -54.165  1.00  0.00     0.032 A 
ENDROOT
BRANCH   4  10
HETATM   10  N   UNL     1     -40.112  53.012 -50.048  1.00  0.00    -0.375 N 
HETATM   11  H   UNL     1     -39.761  52.234 -49.480  1.00  0.00     0.161 HD
BRANCH  10  12
HETATM   12  C   UNL     1     -39.819  54.324 -49.481  1.00  0.00     0.126 C 
BRANCH  12  13
HETATM   13  C   UNL     1     -41.097  55.007 -48.979  1.00  0.00     0.058 C 
BRANCH  13  14
HETATM   14  C   UNL     1     -41.699  55.862 -50.067  1.00  0.00    -0.057 A 
HETATM   15  C   UNL     1     -41.013  56.994 -50.534  1.00  0.00     0.010 A 
HETATM   16  C   UNL     1     -41.590  57.817 -51.503  1.00  0.00     0.043 A 
HETATM   17  C   UNL     1     -42.850  57.512 -52.000  1.00  0.00     0.116 A 
HETATM   18  F   UNL     1     -43.407  58.310 -52.919  1.00  0.00    -0.206 F 
HETATM   19  C   UNL     1     -43.543  56.394 -51.553  1.00  0.00     0.043 A 
HETATM   20  C   UNL     1     -42.969  55.566 -50.587  1.00  0.00     0.010 A 
ENDBRANCH  13  14
ENDBRANCH  12  13
ENDBRANCH  10  12
ENDBRANCH   4  10
BRANCH   3  21
HETATM   21  C   UNL     1     -39.714  50.322 -50.998  1.00  0.00     0.253 C 
HETATM   22  N   UNL     1     -38.623  49.519 -51.179  1.00  0.00    -0.366 N 
HETATM   23  H   UNL     1     -38.126  49.464 -52.059  1.00  0.00     0.159 HD
HETATM   24  H   UNL     1     -38.614  48.672 -50.616  1.00  0.00     0.159 HD
HETATM   25  O   UNL     1     -40.543  50.130 -50.124  1.00  0.00    -0.268 OA
ENDBRANCH   3  21
TORSDOF 5
ENDMDL
MODEL 5
REMARK VINA RESULT:      -7.1      2.054      2.568
REMARK  5 active torsions:
REMARK  status: ('A' for Active; 'I' for Inactive)
REMARK    1  A    between atoms: C_3  and  C_4 
REMARK       I    between atoms: C_4  and  N_5 
REMARK    2  A    between atoms: C_7  and  N_8 
REMARK    3  A    between atoms: N_8  and  C_9 
REMARK    4  A    between atoms: C_9  and  C_10 
REMARK    5  A    between atoms: C_10  and  C_11 
ROOT
HETATM    1  C   UNL     1     -41.001  58.889 -51.210  1.00  0.00     0.049 C 
HETATM    2  C   UNL     1     -41.276  57.410 -51.179  1.00  0.00    -0.041 A 
HETATM    3  C   UNL     1     -41.898  56.744 -52.248  1.00  0.00     0.081 A 
HETATM    4  C   UNL     1     -42.185  55.362 -52.180  1.00  0.00     0.117 A 
HETATM    5  N   UNL     1     -41.879  54.730 -51.032  1.00  0.00    -0.346 N 
HETATM    6  H   UNL     1     -42.141  53.754 -50.951  1.00  0.00     0.167 HD
HETATM    7  C   UNL     1     -41.285  55.315 -49.976  1.00  0.00     0.007 A 
HETATM    8  C   UNL     1     -41.007  54.494 -48.758  1.00  0.00     0.068 C 
HETATM    9  C   UNL     1     -40.970  56.672 -50.034  1.00  0.00     0.032 A 
ENDROOT
BRANCH   4  10
HETATM   10  N   UNL     1     -42.865  54.683 -53.185  1.00  0.00    -0.375 N 
HETATM   11  H   UNL     1     -43.713  55.174 -53.487  1.00  0.00     0.161 HD
BRANCH  10  12
HETATM   12  C   UNL     1     -42.185  53.981 -54.267  1.00  0.00     0.126 C 
BRANCH  12  13
HETATM   13  C   UNL     1     -40.680  53.866 -53.992  1.00  0.00     0.058 C 
BRANCH  13  14
HETATM   14  C   UNL     1     -40.329  52.464 -53.560  1.00  0.00    -0.057 A 
HETATM   15  C   UNL     1     -39.922  52.214 -52.240  1.00  0.00     0.010 A 
HETATM   16  C   UNL     1     -39.546  50.928 -51.850  1.00  0.00     0.043 A 
HETATM   17  C   UNL     1     -39.573  49.894 -52.777  1.00  0.00     0.116 A 
HETATM   18  F   UNL     1     -39.199  48.664 -52.405  1.00  0.00    -0.206 F 
HETATM   19  C   UNL     1     -39.977  50.121 -54.087  1.00  0.00     0.043 A 
HETATM   20  C   UNL     1     -40.356  51.405 -54.481  1.00  0.00     0.010 A 
ENDBRANCH  13  14
ENDBRANCH  12  13
ENDBRANCH  10  12
ENDBRANCH   4  10
BRANCH   3  21
HETATM   21  C   UNL     1     -42.329  57.503 -53.430  1.00  0.00     0.253 C 
HETATM   22  N   UNL     1     -43.526  58.155 -53.329  1.00  0.00    -0.366 N 
HETATM   23  H   UNL     1     -44.236  57.893 -52.657  1.00  0.00     0.159 HD
HETATM   24  H   UNL     1     -43.870  58.559 -54.198  1.00  0.00     0.159 HD
HETATM   25  O   UNL     1     -41.642  57.526 -54.437  1.00  0.00    -0.268 OA
ENDBRANCH   3  21
TORSDOF 5
ENDMDL
MODEL 6
REMARK VINA RESULT:      -7.1      1.783      2.586
REMARK  5 active torsions:
REMARK  status: ('A' for Active; 'I' for Inactive)
REMARK    1  A    between atoms: C_3  and  C_4 
REMARK       I    between atoms: C_4  and  N_5 
REMARK    2  A    between atoms: C_7  and  N_8 
REMARK    3  A    between atoms: N_8  and  C_9 
REMARK    4  A    between atoms: C_9  and  C_10 
REMARK    5  A    between atoms: C_10  and  C_11 
ROOT
HETATM    1  C   UNL     1     -42.594  58.770 -55.081  1.00  0.00     0.049 C 
HETATM    2  C   UNL     1     -42.543  58.286 -53.657  1.00  0.00    -0.041 A 
HETATM    3  C   UNL     1     -43.109  57.062 -53.264  1.00  0.00     0.081 A 
HETATM    4  C   UNL     1     -43.088  56.648 -51.914  1.00  0.00     0.117 A 
HETATM    5  N   UNL     1     -42.546  57.497 -51.022  1.00  0.00    -0.346 N 
HETATM    6  H   UNL     1     -42.585  57.237 -50.043  1.00  0.00     0.167 HD
HETATM    7  C   UNL     1     -41.992  58.681 -51.340  1.00  0.00     0.007 A 
HETATM    8  C   UNL     1     -41.430  59.532 -50.245  1.00  0.00     0.068 C 
HETATM    9  C   UNL     1     -41.979  59.096 -52.671  1.00  0.00     0.032 A 
ENDROOT
BRANCH   4  10
HETATM   10  N   UNL     1     -43.701  55.480 -51.474  1.00  0.00    -0.375 N 
HETATM   11  H   UNL     1     -44.694  55.438 -51.726  1.00  0.00     0.161 HD
BRANCH  10  12
HETATM   12  C   UNL     1     -43.041  54.180 -51.500  1.00  0.00     0.126 C 
BRANCH  12  13
HETATM   13  C   UNL     1     -41.515  54.335 -51.502  1.00  0.00     0.058 C 
BRANCH  13  14
HETATM   14  C   UNL     1     -40.870  53.196 -52.251  1.00  0.00    -0.057 A 
HETATM   15  C   UNL     1     -40.043  52.286 -51.574  1.00  0.00     0.010 A 
HETATM   16  C   UNL     1     -39.402  51.261 -52.272  1.00  0.00     0.043 A 
HETATM   17  C   UNL     1     -39.585  51.148 -53.645  1.00  0.00     0.116 A 
HETATM   18  F   UNL     1     -38.960  50.172 -54.315  1.00  0.00    -0.206 F 
HETATM   19  C   UNL     1     -40.403  52.036 -54.332  1.00  0.00     0.043 A 
HETATM   20  C   UNL     1     -41.048  53.061 -53.637  1.00  0.00     0.010 A 
ENDBRANCH  13  14
ENDBRANCH  12  13
ENDBRANCH  10  12
ENDBRANCH   4  10
BRANCH   3  21
HETATM   21  C   UNL     1     -43.804  56.227 -54.254  1.00  0.00     0.253 C 
HETATM   22  N   UNL     1     -45.115  56.528 -54.490  1.00  0.00    -0.366 N 
HETATM   23  H   UNL     1     -45.685  57.041 -53.829  1.00  0.00     0.159 HD
HETATM   24  H   UNL     1     -45.613  55.858 -55.072  1.00  0.00     0.159 HD
HETATM   25  O   UNL     1     -43.220  55.315 -54.815  1.00  0.00    -0.268 OA
ENDBRANCH   3  21
TORSDOF 5
ENDMDL
MODEL 7
REMARK VINA RESULT:      -7.1      3.137      4.146
REMARK  5 active torsions:
REMARK  status: ('A' for Active; 'I' for Inactive)
REMARK    1  A    between atoms: C_3  and  C_4 
REMARK       I    between atoms: C_4  and  N_5 
REMARK    2  A    between atoms: C_7  and  N_8 
REMARK    3  A    between atoms: N_8  and  C_9 
REMARK    4  A    between atoms: C_9  and  C_10 
REMARK    5  A    between atoms: C_10  and  C_11 
ROOT
HETATM    1  C   UNL     1     -45.770  58.674 -56.712  1.00  0.00     0.049 C 
HETATM    2  C   UNL     1     -44.505  57.950 -57.088  1.00  0.00    -0.041 A 
HETATM    3  C   UNL     1     -43.740  57.244 -56.145  1.00  0.00     0.081 A 
HETATM    4  C   UNL     1     -42.534  56.608 -56.512  1.00  0.00     0.117 A 
HETATM    5  N   UNL     1     -42.131  56.751 -57.788  1.00  0.00    -0.346 N 
HETATM    6  H   UNL     1     -41.234  56.354 -58.043  1.00  0.00     0.167 HD
HETATM    7  C   UNL     1     -42.819  57.417 -58.733  1.00  0.00     0.007 A 
HETATM    8  C   UNL     1     -42.251  57.504 -60.114  1.00  0.00     0.068 C 
HETATM    9  C   UNL     1     -44.026  58.029 -58.396  1.00  0.00     0.032 A 
ENDROOT
BRANCH   4  10
HETATM   10  N   UNL     1     -41.712  55.963 -55.594  1.00  0.00    -0.375 N 
HETATM   11  H   UNL     1     -41.544  56.525 -54.754  1.00  0.00     0.161 HD
BRANCH  10  12
HETATM   12  C   UNL     1     -41.793  54.531 -55.328  1.00  0.00     0.126 C 
BRANCH  12  13
HETATM   13  C   UNL     1     -40.400  53.889 -55.328  1.00  0.00     0.058 C 
BRANCH  13  14
HETATM   14  C   UNL     1     -40.180  53.108 -54.056  1.00  0.00    -0.057 A 
HETATM   15  C   UNL     1     -39.759  51.770 -54.114  1.00  0.00     0.010 A 
HETATM   16  C   UNL     1     -39.605  51.028 -52.942  1.00  0.00     0.043 A 
HETATM   17  C   UNL     1     -39.874  51.620 -51.715  1.00  0.00     0.116 A 
HETATM   18  F   UNL     1     -39.738  50.903 -50.593  1.00  0.00    -0.206 F 
HETATM   19  C   UNL     1     -40.287  52.945 -51.636  1.00  0.00     0.043 A 
HETATM   20  C   UNL     1     -40.440  53.691 -52.805  1.00  0.00     0.010 A 
ENDBRANCH  13  14
ENDBRANCH  12  13
ENDBRANCH  10  12
ENDBRANCH   4  10
BRANCH   3  21
HETATM   21  C   UNL     1     -44.156  57.224 -54.736  1.00  0.00     0.253 C 
HETATM   22  N   UNL     1     -45.037  56.244 -54.376  1.00  0.00    -0.366 N 
HETATM   23  H   UNL     1     -45.631  55.770 -55.045  1.00  0.00     0.159 HD
HETATM   24  H   UNL     1     -45.416  56.330 -53.435  1.00  0.00     0.159 HD
HETATM   25  O   UNL     1     -43.730  58.056 -53.952  1.00  0.00    -0.268 OA
ENDBRANCH   3  21
TORSDOF 5
ENDMDL
MODEL 8
REMARK VINA RESULT:      -7.0      2.964      6.079
REMARK  5 active torsions:
REMARK  status: ('A' for Active; 'I' for Inactive)
REMARK    1  A    between atoms: C_3  and  C_4 
REMARK       I    between atoms: C_4  and  N_5 
REMARK    2  A    between atoms: C_7  and  N_8 
REMARK    3  A    between atoms: N_8  and  C_9 
REMARK    4  A    between atoms: C_9  and  C_10 
REMARK    5  A    between atoms: C_10  and  C_11 
ROOT
HETATM    1  C   UNL     1     -40.309  53.708 -55.093  1.00  0.00     0.049 C 
HETATM    2  C   UNL     1     -40.982  53.708 -53.747  1.00  0.00    -0.041 A 
HETATM    3  C   UNL     1     -42.206  54.361 -53.524  1.00  0.00     0.081 A 
HETATM    4  C   UNL     1     -42.799  54.384 -52.242  1.00  0.00     0.117 A 
HETATM    5  N   UNL     1     -42.116  53.796 -51.242  1.00  0.00    -0.346 N 
HETATM    6  H   UNL     1     -42.503  53.865 -50.308  1.00  0.00     0.167 HD
HETATM    7  C   UNL     1     -40.941  53.159 -51.395  1.00  0.00     0.007 A 
HETATM    8  C   UNL     1     -40.287  52.554 -50.194  1.00  0.00     0.068 C 
HETATM    9  C   UNL     1     -40.353  53.103 -52.658  1.00  0.00     0.032 A 
ENDROOT
BRANCH   4  10
HETATM   10  N   UNL     1     -43.970  55.081 -51.966  1.00  0.00    -0.375 N 
HETATM   11  H   UNL     1     -44.795  54.473 -51.950  1.00  0.00     0.161 HD
BRANCH  10  12
HETATM   12  C   UNL     1     -44.034  56.171 -50.998  1.00  0.00     0.126 C 
BRANCH  12  13
HETATM   13  C   UNL     1     -43.970  57.534 -51.698  1.00  0.00     0.058 C 
BRANCH  13  14
HETATM   14  C   UNL     1     -42.704  58.263 -51.317  1.00  0.00    -0.057 A 
HETATM   15  C   UNL     1     -41.481  57.576 -51.278  1.00  0.00     0.010 A 
HETATM   16  C   UNL     1     -40.316  58.233 -50.876  1.00  0.00     0.043 A 
HETATM   17  C   UNL     1     -40.375  59.571 -50.510  1.00  0.00     0.116 A 
HETATM   18  F   UNL     1     -39.261  60.196 -50.113  1.00  0.00    -0.206 F 
HETATM   19  C   UNL     1     -41.576  60.269 -50.547  1.00  0.00     0.043 A 
HETATM   20  C   UNL     1     -42.742  59.618 -50.950  1.00  0.00     0.010 A 
ENDBRANCH  13  14
ENDBRANCH  12  13
ENDBRANCH  10  12
ENDBRANCH   4  10
BRANCH   3  21
HETATM   21  C   UNL     1     -42.850  55.098 -54.620  1.00  0.00     0.253 C 
HETATM   22  N   UNL     1     -43.612  54.362 -55.482  1.00  0.00    -0.366 N 
HETATM   23  H   UNL     1     -43.498  53.362 -55.595  1.00  0.00     0.159 HD
HETATM   24  H   UNL     1     -43.934  54.863 -56.307  1.00  0.00     0.159 HD
HETATM   25  O   UNL     1     -42.688  56.301 -54.737  1.00  0.00    -0.268 OA
ENDBRANCH   3  21
TORSDOF 5
ENDMDL
MODEL 9
REMARK VINA RESULT:      -7.0      2.362      3.068
REMARK  5 active torsions:
REMARK  status: ('A' for Active; 'I' for Inactive)
REMARK    1  A    between atoms: C_3  and  C_4 
REMARK       I    between atoms: C_4  and  N_5 
REMARK    2  A    between atoms: C_7  and  N_8 
REMARK    3  A    between atoms: N_8  and  C_9 
REMARK    4  A    between atoms: C_9  and  C_10 
REMARK    5  A    between atoms: C_10  and  C_11 
ROOT
HETATM    1  C   UNL     1     -43.954  57.540 -56.068  1.00  0.00     0.049 C 
HETATM    2  C   UNL     1     -43.912  57.120 -54.623  1.00  0.00    -0.041 A 
HETATM    3  C   UNL     1     -43.346  55.901 -54.216  1.00  0.00     0.081 A 
HETATM    4  C   UNL     1     -43.356  55.509 -52.859  1.00  0.00     0.117 A 
HETATM    5  N   UNL     1     -43.972  56.330 -51.989  1.00  0.00    -0.346 N 
HETATM    6  H   UNL     1     -44.041  56.025 -51.025  1.00  0.00     0.167 HD
HETATM    7  C   UNL     1     -44.533  57.507 -52.321  1.00  0.00     0.007 A 
HETATM    8  C   UNL     1     -45.192  58.320 -51.253  1.00  0.00     0.068 C 
HETATM    9  C   UNL     1     -44.510  57.925 -53.652  1.00  0.00     0.032 A 
ENDROOT
BRANCH   4  10
HETATM   10  N   UNL     1     -42.873  54.279 -52.426  1.00  0.00    -0.375 N 
HETATM   11  H   UNL     1     -42.552  53.688 -53.200  1.00  0.00     0.161 HD
BRANCH  10  12
HETATM   12  C   UNL     1     -42.083  54.121 -51.210  1.00  0.00     0.126 C 
BRANCH  12  13
HETATM   13  C   UNL     1     -40.586  54.032 -51.531  1.00  0.00     0.058 C 
BRANCH  13  14
HETATM   14  C   UNL     1     -40.272  52.727 -52.220  1.00  0.00    -0.057 A 
HETATM   15  C   UNL     1     -39.845  51.619 -51.470  1.00  0.00     0.010 A 
HETATM   16  C   UNL     1     -39.503  50.426 -52.109  1.00  0.00     0.043 A 
HETATM   17  C   UNL     1     -39.584  50.341 -53.493  1.00  0.00     0.116 A 
HETATM   18  F   UNL     1     -39.243  49.200 -54.104  1.00  0.00    -0.206 F 
HETATM   19  C   UNL     1     -40.008  51.425 -54.251  1.00  0.00     0.043 A 
HETATM   20  C   UNL     1     -40.354  52.619 -53.618  1.00  0.00     0.010 A 
ENDBRANCH  13  14
ENDBRANCH  12  13
ENDBRANCH  10  12
ENDBRANCH   4  10
BRANCH   3  21
HETATM   21  C   UNL     1     -42.799  54.979 -55.220  1.00  0.00     0.253 C 
HETATM   22  N   UNL     1     -43.684  54.110 -55.793  1.00  0.00    -0.366 N 
HETATM   23  H   UNL     1     -44.562  53.859 -55.358  1.00  0.00     0.159 HD
HETATM   24  H   UNL     1     -43.263  53.392 -56.380  1.00  0.00     0.159 HD
HETATM   25  O   UNL     1     -41.612  55.002 -55.502  1.00  0.00    -0.268 OA
ENDBRANCH   3  21
TORSDOF 5
ENDMDL
MODEL 10
REMARK VINA RESULT:      -6.9      2.143      3.404
REMARK  5 active torsions:
REMARK  status: ('A' for Active; 'I' for Inactive)
REMARK    1  A    between atoms: C_3  and  C_4 
REMARK       I    between atoms: C_4  and  N_5 
REMARK    2  A    between atoms: C_7  and  N_8 
REMARK    3  A    between atoms: N_8  and  C_9 
REMARK    4  A    between atoms: C_9  and  C_10 
REMARK    5  A    between atoms: C_10  and  C_11 
ROOT
HETATM    1  C   UNL     1     -43.707  59.624 -53.271  1.00  0.00     0.049 C 
HETATM    2  C   UNL     1     -43.626  58.190 -53.720  1.00  0.00    -0.041 A 
HETATM    3  C   UNL     1     -43.746  57.118 -52.819  1.00  0.00     0.081 A 
HETATM    4  C   UNL     1     -43.624  55.780 -53.256  1.00  0.00     0.117 A 
HETATM    5  N   UNL     1     -43.343  55.585 -54.557  1.00  0.00    -0.346 N 
HETATM    6  H   UNL     1     -43.189  54.631 -54.866  1.00  0.00     0.167 HD
HETATM    7  C   UNL     1     -43.215  56.571 -55.464  1.00  0.00     0.007 A 
HETATM    8  C   UNL     1     -42.894  56.212 -56.880  1.00  0.00     0.068 C 
HETATM    9  C   UNL     1     -43.358  57.897 -55.058  1.00  0.00     0.032 A 
ENDROOT
BRANCH   4  10
HETATM   10  N   UNL     1     -43.663  54.697 -52.385  1.00  0.00    -0.375 N 
HETATM   11  H   UNL     1     -44.185  53.903 -52.769  1.00  0.00     0.161 HD
BRANCH  10  12
HETATM   12  C   UNL     1     -42.525  54.300 -51.563  1.00  0.00     0.126 C 
BRANCH  12  13
HETATM   13  C   UNL     1     -41.203  54.497 -52.316  1.00  0.00     0.058 C 
BRANCH  13  14
HETATM   14  C   UNL     1     -40.638  53.166 -52.747  1.00  0.00    -0.057 A 
HETATM   15  C   UNL     1     -40.856  52.698 -54.052  1.00  0.00     0.010 A 
HETATM   16  C   UNL     1     -40.380  51.444 -54.439  1.00  0.00     0.043 A 
HETATM   17  C   UNL     1     -39.691  50.659 -53.524  1.00  0.00     0.116 A 
HETATM   18  F   UNL     1     -39.246  49.452 -53.892  1.00  0.00    -0.206 F 
HETATM   19  C   UNL     1     -39.461  51.108 -52.229  1.00  0.00     0.043 A 
HETATM   20  C   UNL     1     -39.933  52.362 -51.838  1.00  0.00     0.010 A 
ENDBRANCH  13  14
ENDBRANCH  12  13
ENDBRANCH  10  12
ENDBRANCH   4  10
BRANCH   3  21
HETATM   21  C   UNL     1     -43.925  57.386 -51.386  1.00  0.00     0.253 C 
HETATM   22  N   UNL     1     -42.813  57.778 -50.697  1.00  0.00    -0.366 N 
HETATM   23  H   UNL     1     -41.873  57.588 -51.023  1.00  0.00     0.159 HD
HETATM   24  H   UNL     1     -42.926  57.825 -49.687  1.00  0.00     0.159 HD
HETATM   25  O   UNL     1     -45.018  57.248 -50.861  1.00  0.00    -0.268 OA
ENDBRANCH   3  21
TORSDOF 5
ENDMDL
