MODEL 1
REMARK VINA RESULT:      -8.7      0.000      0.000
REMARK  7 active torsions:
REMARK  status: ('A' for Active; 'I' for Inactive)
REMARK    1  A    between atoms: C_2  and  C_3 
REMARK    2  A    between atoms: C_6  and  C_7 
REMARK    3  A    between atoms: N_8  and  N_9 
REMARK    4  A    between atoms: C_20  and  C_21 
REMARK       I    between atoms: C_21  and  N_22 
REMARK    5  A    between atoms: N_22  and  C_23 
REMARK    6  A    between atoms: C_23  and  C_24 
REMARK    7  A    between atoms: C_30  and  N_31 
ROOT
HETATM    1  N   UNL     1     -44.253  57.386 -53.983  1.00  0.00    -0.202 N 
HETATM    2  C   UNL     1     -43.392  56.310 -54.099  1.00  0.00     0.183 A 
HETATM    3  C   UNL     1     -42.829  56.369 -55.369  1.00  0.00     0.124 A 
HETATM    4  N   UNL     1     -41.828  55.523 -55.721  1.00  0.00    -0.242 NA
HETATM    5  C   UNL     1     -41.471  54.635 -54.783  1.00  0.00     0.086 A 
HETATM    6  C   UNL     1     -42.092  54.572 -53.509  1.00  0.00     0.088 A 
HETATM    7  N   UNL     1     -43.061  55.421 -53.132  1.00  0.00    -0.225 NA
HETATM    8  C   UNL     1     -40.440  53.749 -55.071  1.00  0.00     0.034 A 
HETATM    9  C   UNL     1     -40.016  52.794 -54.146  1.00  0.00     0.002 A 
HETATM   10  C   UNL     1     -40.639  52.718 -52.909  1.00  0.00     0.002 A 
HETATM   11  C   UNL     1     -41.669  53.607 -52.603  1.00  0.00     0.034 A 
HETATM   12  C   UNL     1     -43.431  57.450 -56.074  1.00  0.00     0.104 C 
HETATM   13  C   UNL     1     -44.432  57.941 -55.246  1.00  0.00     0.123 C 
ENDROOT
BRANCH   1  14
HETATM   14  N   UNL     1     -44.769  57.981 -52.851  1.00  0.00    -0.176 NA
HETATM   15  C   UNL     1     -43.945  58.843 -52.342  1.00  0.00     0.150 C 
BRANCH  15  16
HETATM   16  C   UNL     1     -44.312  59.762 -51.253  1.00  0.00    -0.017 A 
HETATM   17  C   UNL     1     -43.534  60.865 -50.917  1.00  0.00     0.013 A 
HETATM   18  C   UNL     1     -43.867  61.629 -49.792  1.00  0.00     0.009 A 
HETATM   19  C   UNL     1     -44.968  61.297 -48.978  1.00  0.00    -0.051 A 
HETATM   20  C   UNL     1     -45.742  60.182 -49.355  1.00  0.00     0.009 A 
HETATM   21  C   UNL     1     -45.425  59.426 -50.483  1.00  0.00     0.013 A 
BRANCH  19  22
HETATM   22  C   UNL     1     -45.326  62.068 -47.695  1.00  0.00    -0.024 C 
HETATM   23  C   UNL     1     -44.666  63.460 -47.601  1.00  0.00     0.019 C 
HETATM   24  C   UNL     1     -44.862  61.250 -46.470  1.00  0.00     0.019 C 
HETATM   25  C   UNL     1     -46.854  62.280 -47.614  1.00  0.00     0.019 C 
ENDBRANCH  19  22
ENDBRANCH  15  16
ENDBRANCH   1  14
BRANCH  13  26
HETATM   26  N   UNL     1     -45.373  58.914 -55.446  1.00  0.00    -0.286 NA
HETATM   27  H   UNL     1     -45.163  59.812 -54.994  1.00  0.00     0.125 HD
HETATM   28  H   UNL     1     -46.348  58.663 -55.276  1.00  0.00     0.125 HD
ENDBRANCH  13  26
BRANCH  12  29
HETATM   29  C   UNL     1     -43.002  57.991 -57.358  1.00  0.00     0.257 C 
HETATM   30  N   UNL     1     -42.665  57.031 -58.293  1.00  0.00    -0.354 N 
HETATM   31  H   UNL     1     -42.845  56.072 -58.005  1.00  0.00     0.162 HD
HETATM   32  O   UNL     1     -43.034  59.187 -57.619  1.00  0.00    -0.267 OA
BRANCH  30  33
HETATM   33  C   UNL     1     -42.714  57.292 -59.720  1.00  0.00     0.155 C 
BRANCH  33  34
HETATM   34  C   UNL     1     -43.903  56.687 -60.471  1.00  0.00     0.139 C 
HETATM   35  O   UNL     1     -43.772  55.244 -60.457  1.00  0.00    -0.384 OA
HETATM   36  C   UNL     1     -45.024  54.674 -60.054  1.00  0.00     0.168 C 
HETATM   37  C   UNL     1     -46.060  55.757 -60.224  1.00  0.00     0.029 C 
HETATM   38  C   UNL     1     -45.269  56.990 -59.871  1.00  0.00     0.035 C 
ENDBRANCH  33  34
ENDBRANCH  30  33
ENDBRANCH  12  29
TORSDOF 7
ENDMDL
MODEL 2
REMARK VINA RESULT:      -8.5      3.094      5.748
REMARK  7 active torsions:
REMARK  status: ('A' for Active; 'I' for Inactive)
REMARK    1  A    between atoms: C_2  and  C_3 
REMARK    2  A    between atoms: C_6  and  C_7 
REMARK    3  A    between atoms: N_8  and  N_9 
REMARK    4  A    between atoms: C_20  and  C_21 
REMARK       I    between atoms: C_21  and  N_22 
REMARK    5  A    between atoms: N_22  and  C_23 
REMARK    6  A    between atoms: C_23  and  C_24 
REMARK    7  A    between atoms: C_30  and  N_31 
ROOT
HETATM    1  N   UNL     1     -41.854  58.256 -52.154  1.00  0.00    -0.202 N 
HETATM    2  C   UNL     1     -41.994  57.668 -53.397  1.00  0.00     0.183 A 
HETATM    3  C   UNL     1     -41.852  56.296 -53.221  1.00  0.00     0.124 A 
HETATM    4  N   UNL     1     -42.088  55.439 -54.246  1.00  0.00    -0.242 NA
HETATM    5  C   UNL     1     -42.420  56.015 -55.411  1.00  0.00     0.086 A 
HETATM    6  C   UNL     1     -42.516  57.421 -55.571  1.00  0.00     0.088 A 
HETATM    7  N   UNL     1     -42.319  58.282 -54.560  1.00  0.00    -0.225 NA
HETATM    8  C   UNL     1     -42.690  55.195 -56.499  1.00  0.00     0.034 A 
HETATM    9  C   UNL     1     -43.039  55.723 -57.744  1.00  0.00     0.002 A 
HETATM   10  C   UNL     1     -43.111  57.099 -57.906  1.00  0.00     0.002 A 
HETATM   11  C   UNL     1     -42.850  57.934 -56.819  1.00  0.00     0.034 A 
HETATM   12  C   UNL     1     -41.526  56.052 -51.856  1.00  0.00     0.104 C 
HETATM   13  C   UNL     1     -41.361  57.301 -51.270  1.00  0.00     0.123 C 
ENDROOT
BRANCH   1  14
HETATM   14  N   UNL     1     -42.250  59.505 -51.723  1.00  0.00    -0.176 NA
HETATM   15  C   UNL     1     -43.443  59.484 -51.215  1.00  0.00     0.150 C 
BRANCH  15  16
HETATM   16  C   UNL     1     -44.036  60.626 -50.504  1.00  0.00    -0.017 A 
HETATM   17  C   UNL     1     -43.355  61.826 -50.324  1.00  0.00     0.013 A 
HETATM   18  C   UNL     1     -43.921  62.831 -49.530  1.00  0.00     0.009 A 
HETATM   19  C   UNL     1     -45.166  62.650 -48.894  1.00  0.00    -0.051 A 
HETATM   20  C   UNL     1     -45.835  61.429 -49.110  1.00  0.00     0.009 A 
HETATM   21  C   UNL     1     -45.283  60.430 -49.910  1.00  0.00     0.013 A 
BRANCH  19  22
HETATM   22  C   UNL     1     -45.790  63.701 -47.959  1.00  0.00    -0.024 C 
HETATM   23  C   UNL     1     -46.722  64.699 -48.678  1.00  0.00     0.019 C 
HETATM   24  C   UNL     1     -44.661  64.518 -47.294  1.00  0.00     0.019 C 
HETATM   25  C   UNL     1     -46.626  63.004 -46.863  1.00  0.00     0.019 C 
ENDBRANCH  19  22
ENDBRANCH  15  16
ENDBRANCH   1  14
BRANCH  13  26
HETATM   26  N   UNL     1     -40.966  57.664 -50.011  1.00  0.00    -0.286 NA
HETATM   27  H   UNL     1     -40.178  58.321 -49.982  1.00  0.00     0.125 HD
HETATM   28  H   UNL     1     -40.813  56.913 -49.336  1.00  0.00     0.125 HD
ENDBRANCH  13  26
BRANCH  12  29
HETATM   29  C   UNL     1     -41.484  54.755 -51.194  1.00  0.00     0.257 C 
HETATM   30  N   UNL     1     -40.849  53.767 -51.924  1.00  0.00    -0.354 N 
HETATM   31  H   UNL     1     -40.410  54.087 -52.784  1.00  0.00     0.162 HD
HETATM   32  O   UNL     1     -41.885  54.578 -50.051  1.00  0.00    -0.267 OA
BRANCH  30  33
HETATM   33  C   UNL     1     -40.252  52.604 -51.293  1.00  0.00     0.155 C 
BRANCH  33  34
HETATM   34  C   UNL     1     -39.410  51.707 -52.205  1.00  0.00     0.139 C 
HETATM   35  O   UNL     1     -39.406  50.366 -51.657  1.00  0.00    -0.384 OA
HETATM   36  C   UNL     1     -39.710  49.441 -52.709  1.00  0.00     0.168 C 
HETATM   37  C   UNL     1     -39.490  50.181 -54.005  1.00  0.00     0.029 C 
HETATM   38  C   UNL     1     -39.919  51.576 -53.633  1.00  0.00     0.035 C 
ENDBRANCH  33  34
ENDBRANCH  30  33
ENDBRANCH  12  29
TORSDOF 7
ENDMDL
MODEL 3
REMARK VINA RESULT:      -8.3      3.812      8.559
REMARK  7 active torsions:
REMARK  status: ('A' for Active; 'I' for Inactive)
REMARK    1  A    between atoms: C_2  and  C_3 
REMARK    2  A    between atoms: C_6  and  C_7 
REMARK    3  A    between atoms: N_8  and  N_9 
REMARK    4  A    between atoms: C_20  and  C_21 
REMARK       I    between atoms: C_21  and  N_22 
REMARK    5  A    between atoms: N_22  and  C_23 
REMARK    6  A    between atoms: C_23  and  C_24 
REMARK    7  A    between atoms: C_30  and  N_31 
ROOT
HETATM    1  N   UNL     1     -43.003  58.224 -56.079  1.00  0.00    -0.202 N 
HETATM    2  C   UNL     1     -42.641  58.288 -54.746  1.00  0.00     0.183 A 
HETATM    3  C   UNL     1     -42.279  57.005 -54.355  1.00  0.00     0.124 A 
HETATM    4  N   UNL     1     -41.733  56.781 -53.133  1.00  0.00    -0.242 NA
HETATM    5  C   UNL     1     -41.615  57.864 -52.352  1.00  0.00     0.086 A 
HETATM    6  C   UNL     1     -42.031  59.156 -52.762  1.00  0.00     0.088 A 
HETATM    7  N   UNL     1     -42.543  59.401 -53.979  1.00  0.00    -0.225 NA
HETATM    8  C   UNL     1     -41.049  57.710 -51.092  1.00  0.00     0.034 A 
HETATM    9  C   UNL     1     -40.896  58.790 -50.222  1.00  0.00     0.002 A 
HETATM   10  C   UNL     1     -41.325  60.050 -50.615  1.00  0.00     0.002 A 
HETATM   11  C   UNL     1     -41.887  60.220 -51.881  1.00  0.00     0.034 A 
HETATM   12  C   UNL     1     -42.515  56.122 -55.448  1.00  0.00     0.104 C 
HETATM   13  C   UNL     1     -43.131  56.884 -56.433  1.00  0.00     0.123 C 
ENDROOT
BRANCH   1  14
HETATM   14  N   UNL     1     -43.093  59.232 -57.015  1.00  0.00    -0.176 NA
HETATM   15  C   UNL     1     -41.924  59.616 -57.423  1.00  0.00     0.150 C 
BRANCH  15  16
HETATM   16  C   UNL     1     -41.727  60.534 -58.556  1.00  0.00    -0.017 A 
HETATM   17  C   UNL     1     -42.127  60.214 -59.850  1.00  0.00     0.013 A 
HETATM   18  C   UNL     1     -41.799  61.073 -60.907  1.00  0.00     0.009 A 
HETATM   19  C   UNL     1     -41.059  62.252 -60.692  1.00  0.00    -0.051 A 
HETATM   20  C   UNL     1     -40.683  62.552 -59.368  1.00  0.00     0.009 A 
HETATM   21  C   UNL     1     -41.018  61.709 -58.309  1.00  0.00     0.013 A 
BRANCH  19  22
HETATM   22  C   UNL     1     -40.618  63.186 -61.833  1.00  0.00    -0.024 C 
HETATM   23  C   UNL     1     -41.094  64.644 -61.663  1.00  0.00     0.019 C 
HETATM   24  C   UNL     1     -41.199  62.662 -63.165  1.00  0.00     0.019 C 
HETATM   25  C   UNL     1     -39.078  63.216 -61.929  1.00  0.00     0.019 C 
ENDBRANCH  19  22
ENDBRANCH  15  16
ENDBRANCH   1  14
BRANCH  13  26
HETATM   26  N   UNL     1     -43.649  56.538 -57.652  1.00  0.00    -0.286 NA
HETATM   27  H   UNL     1     -44.653  56.325 -57.644  1.00  0.00     0.125 HD
HETATM   28  H   UNL     1     -43.149  55.826 -58.186  1.00  0.00     0.125 HD
ENDBRANCH  13  26
BRANCH  12  29
HETATM   29  C   UNL     1     -42.094  54.730 -55.544  1.00  0.00     0.257 C 
HETATM   30  N   UNL     1     -40.748  54.528 -55.305  1.00  0.00    -0.354 N 
HETATM   31  H   UNL     1     -40.238  55.356 -55.003  1.00  0.00     0.162 HD
HETATM   32  O   UNL     1     -42.880  53.808 -55.719  1.00  0.00    -0.267 OA
BRANCH  30  33
HETATM   33  C   UNL     1     -40.227  53.252 -54.850  1.00  0.00     0.155 C 
BRANCH  33  34
HETATM   34  C   UNL     1     -40.724  52.776 -53.482  1.00  0.00     0.139 C 
HETATM   35  O   UNL     1     -40.037  51.546 -53.144  1.00  0.00    -0.384 OA
HETATM   36  C   UNL     1     -39.538  51.654 -51.804  1.00  0.00     0.168 C 
HETATM   37  C   UNL     1     -40.283  52.798 -51.162  1.00  0.00     0.029 C 
HETATM   38  C   UNL     1     -40.463  53.735 -52.329  1.00  0.00     0.035 C 
ENDBRANCH  33  34
ENDBRANCH  30  33
ENDBRANCH  12  29
TORSDOF 7
ENDMDL
MODEL 4
REMARK VINA RESULT:      -8.3      1.580      2.610
REMARK  7 active torsions:
REMARK  status: ('A' for Active; 'I' for Inactive)
REMARK    1  A    between atoms: C_2  and  C_3 
REMARK    2  A    between atoms: C_6  and  C_7 
REMARK    3  A    between atoms: N_8  and  N_9 
REMARK    4  A    between atoms: C_20  and  C_21 
REMARK       I    between atoms: C_21  and  N_22 
REMARK    5  A    between atoms: N_22  and  C_23 
REMARK    6  A    between atoms: C_23  and  C_24 
REMARK    7  A    between atoms: C_30  and  N_31 
ROOT
HETATM    1  N   UNL     1     -44.024  56.349 -53.080  1.00  0.00    -0.202 N 
HETATM    2  C   UNL     1     -43.139  55.302 -52.901  1.00  0.00     0.183 A 
HETATM    3  C   UNL     1     -42.664  54.946 -54.158  1.00  0.00     0.124 A 
HETATM    4  N   UNL     1     -41.662  54.040 -54.288  1.00  0.00    -0.242 NA
HETATM    5  C   UNL     1     -41.216  53.510 -53.140  1.00  0.00     0.086 A 
HETATM    6  C   UNL     1     -41.749  53.863 -51.873  1.00  0.00     0.088 A 
HETATM    7  N   UNL     1     -42.717  54.781 -51.724  1.00  0.00    -0.225 NA
HETATM    8  C   UNL     1     -40.180  52.586 -53.198  1.00  0.00     0.034 A 
HETATM    9  C   UNL     1     -39.665  51.990 -52.045  1.00  0.00     0.002 A 
HETATM   10  C   UNL     1     -40.202  52.318 -50.809  1.00  0.00     0.002 A 
HETATM   11  C   UNL     1     -41.238  53.251 -50.735  1.00  0.00     0.034 A 
HETATM   12  C   UNL     1     -43.345  55.732 -55.132  1.00  0.00     0.104 C 
HETATM   13  C   UNL     1     -44.304  56.459 -54.438  1.00  0.00     0.123 C 
ENDROOT
BRANCH   1  14
HETATM   14  N   UNL     1     -44.482  57.278 -52.169  1.00  0.00    -0.176 NA
HETATM   15  C   UNL     1     -43.632  58.241 -51.994  1.00  0.00     0.150 C 
BRANCH  15  16
HETATM   16  C   UNL     1     -43.942  59.461 -51.232  1.00  0.00    -0.017 A 
HETATM   17  C   UNL     1     -42.959  60.369 -50.850  1.00  0.00     0.013 A 
HETATM   18  C   UNL     1     -43.297  61.444 -50.019  1.00  0.00     0.009 A 
HETATM   19  C   UNL     1     -44.613  61.622 -49.547  1.00  0.00    -0.051 A 
HETATM   20  C   UNL     1     -45.585  60.693 -49.965  1.00  0.00     0.009 A 
HETATM   21  C   UNL     1     -45.258  59.628 -50.804  1.00  0.00     0.013 A 
BRANCH  19  22
HETATM   22  C   UNL     1     -45.011  62.749 -48.578  1.00  0.00    -0.024 C 
HETATM   23  C   UNL     1     -45.007  62.324 -47.094  1.00  0.00     0.019 C 
HETATM   24  C   UNL     1     -46.440  63.226 -48.919  1.00  0.00     0.019 C 
HETATM   25  C   UNL     1     -44.033  63.936 -48.715  1.00  0.00     0.019 C 
ENDBRANCH  19  22
ENDBRANCH  15  16
ENDBRANCH   1  14
BRANCH  13  26
HETATM   26  N   UNL     1     -45.286  57.305 -54.875  1.00  0.00    -0.286 NA
HETATM   27  H   UNL     1     -45.409  57.328 -55.894  1.00  0.00     0.125 HD
HETATM   28  H   UNL     1     -45.279  58.258 -54.507  1.00  0.00     0.125 HD
ENDBRANCH  13  26
BRANCH  12  29
HETATM   29  C   UNL     1     -43.019  55.826 -56.549  1.00  0.00     0.257 C 
HETATM   30  N   UNL     1     -44.045  56.320 -57.333  1.00  0.00    -0.354 N 
HETATM   31  H   UNL     1     -44.861  56.642 -56.818  1.00  0.00     0.162 HD
HETATM   32  O   UNL     1     -41.904  55.587 -56.993  1.00  0.00    -0.267 OA
BRANCH  30  33
HETATM   33  C   UNL     1     -43.799  56.963 -58.611  1.00  0.00     0.155 C 
BRANCH  33  34
HETATM   34  C   UNL     1     -43.397  58.440 -58.550  1.00  0.00     0.139 C 
HETATM   35  O   UNL     1     -43.796  58.974 -57.263  1.00  0.00    -0.384 OA
HETATM   36  C   UNL     1     -42.688  59.687 -56.700  1.00  0.00     0.168 C 
HETATM   37  C   UNL     1     -41.728  59.950 -57.834  1.00  0.00     0.029 C 
HETATM   38  C   UNL     1     -41.905  58.710 -58.673  1.00  0.00     0.035 C 
ENDBRANCH  33  34
ENDBRANCH  30  33
ENDBRANCH  12  29
TORSDOF 7
ENDMDL
MODEL 5
REMARK VINA RESULT:      -8.2      4.653      7.099
REMARK  7 active torsions:
REMARK  status: ('A' for Active; 'I' for Inactive)
REMARK    1  A    between atoms: C_2  and  C_3 
REMARK    2  A    between atoms: C_6  and  C_7 
REMARK    3  A    between atoms: N_8  and  N_9 
REMARK    4  A    between atoms: C_20  and  C_21 
REMARK       I    between atoms: C_21  and  N_22 
REMARK    5  A    between atoms: N_22  and  C_23 
REMARK    6  A    between atoms: C_23  and  C_24 
REMARK    7  A    between atoms: C_30  and  N_31 
ROOT
HETATM    1  N   UNL     1     -43.303  55.694 -57.805  1.00  0.00    -0.202 N 
HETATM    2  C   UNL     1     -42.977  56.917 -58.361  1.00  0.00     0.183 A 
HETATM    3  C   UNL     1     -43.682  57.027 -59.554  1.00  0.00     0.124 A 
HETATM    4  N   UNL     1     -43.679  58.188 -60.256  1.00  0.00    -0.242 NA
HETATM    5  C   UNL     1     -42.932  59.171 -59.733  1.00  0.00     0.086 A 
HETATM    6  C   UNL     1     -42.190  59.017 -58.534  1.00  0.00     0.088 A 
HETATM    7  N   UNL     1     -42.207  57.886 -57.810  1.00  0.00    -0.225 NA
HETATM    8  C   UNL     1     -42.896  60.394 -60.392  1.00  0.00     0.034 A 
HETATM    9  C   UNL     1     -42.139  61.463 -59.910  1.00  0.00     0.002 A 
HETATM   10  C   UNL     1     -41.395  61.304 -58.749  1.00  0.00     0.002 A 
HETATM   11  C   UNL     1     -41.429  60.084 -58.073  1.00  0.00     0.034 A 
HETATM   12  C   UNL     1     -44.379  55.804 -59.775  1.00  0.00     0.104 C 
HETATM   13  C   UNL     1     -43.977  54.943 -58.762  1.00  0.00     0.123 C 
ENDROOT
BRANCH   1  14
HETATM   14  N   UNL     1     -43.173  55.258 -56.503  1.00  0.00    -0.176 NA
HETATM   15  C   UNL     1     -41.941  54.981 -56.208  1.00  0.00     0.150 C 
BRANCH  15  16
HETATM   16  C   UNL     1     -41.486  54.685 -54.841  1.00  0.00    -0.017 A 
HETATM   17  C   UNL     1     -40.827  53.504 -54.516  1.00  0.00     0.013 A 
HETATM   18  C   UNL     1     -40.532  53.223 -53.176  1.00  0.00     0.009 A 
HETATM   19  C   UNL     1     -40.901  54.106 -52.142  1.00  0.00    -0.051 A 
HETATM   20  C   UNL     1     -41.555  55.298 -52.508  1.00  0.00     0.009 A 
HETATM   21  C   UNL     1     -41.839  55.591 -53.841  1.00  0.00     0.013 A 
BRANCH  19  22
HETATM   22  C   UNL     1     -40.658  53.802 -50.653  1.00  0.00    -0.024 C 
HETATM   23  C   UNL     1     -39.406  54.494 -50.073  1.00  0.00     0.019 C 
HETATM   24  C   UNL     1     -40.471  52.280 -50.473  1.00  0.00     0.019 C 
HETATM   25  C   UNL     1     -41.868  54.267 -49.813  1.00  0.00     0.019 C 
ENDBRANCH  19  22
ENDBRANCH  15  16
ENDBRANCH   1  14
BRANCH  13  26
HETATM   26  N   UNL     1     -44.262  53.624 -58.531  1.00  0.00    -0.286 NA
HETATM   27  H   UNL     1     -44.828  53.175 -59.260  1.00  0.00     0.125 HD
HETATM   28  H   UNL     1     -44.630  53.381 -57.610  1.00  0.00     0.125 HD
ENDBRANCH  13  26
BRANCH  12  29
HETATM   29  C   UNL     1     -45.389  55.556 -60.795  1.00  0.00     0.257 C 
HETATM   30  N   UNL     1     -46.601  56.178 -60.556  1.00  0.00    -0.354 N 
HETATM   31  H   UNL     1     -46.609  56.802 -59.753  1.00  0.00     0.162 HD
HETATM   32  O   UNL     1     -45.157  54.935 -61.825  1.00  0.00    -0.267 OA
BRANCH  30  33
HETATM   33  C   UNL     1     -47.531  56.493 -61.624  1.00  0.00     0.155 C 
BRANCH  33  34
HETATM   34  C   UNL     1     -48.144  57.896 -61.585  1.00  0.00     0.139 C 
HETATM   35  O   UNL     1     -47.182  58.804 -60.994  1.00  0.00    -0.384 OA
HETATM   36  C   UNL     1     -47.077  59.965 -61.826  1.00  0.00     0.168 C 
HETATM   37  C   UNL     1     -48.293  59.961 -62.720  1.00  0.00     0.029 C 
HETATM   38  C   UNL     1     -48.500  58.485 -62.942  1.00  0.00     0.035 C 
ENDBRANCH  33  34
ENDBRANCH  30  33
ENDBRANCH  12  29
TORSDOF 7
ENDMDL
MODEL 6
REMARK VINA RESULT:      -8.2     17.835     20.920
REMARK  7 active torsions:
REMARK  status: ('A' for Active; 'I' for Inactive)
REMARK    1  A    between atoms: C_2  and  C_3 
REMARK    2  A    between atoms: C_6  and  C_7 
REMARK    3  A    between atoms: N_8  and  N_9 
REMARK    4  A    between atoms: C_20  and  C_21 
REMARK       I    between atoms: C_21  and  N_22 
REMARK    5  A    between atoms: N_22  and  C_23 
REMARK    6  A    between atoms: C_23  and  C_24 
REMARK    7  A    between atoms: C_30  and  N_31 
ROOT
HETATM    1  N   UNL     1     -34.636  39.942 -51.278  1.00  0.00    -0.202 N 
HETATM    2  C   UNL     1     -34.103  39.798 -52.546  1.00  0.00     0.183 A 
HETATM    3  C   UNL     1     -35.118  40.081 -53.452  1.00  0.00     0.124 A 
HETATM    4  N   UNL     1     -34.855  40.168 -54.781  1.00  0.00    -0.242 NA
HETATM    5  C   UNL     1     -33.583  39.926 -55.130  1.00  0.00     0.086 A 
HETATM    6  C   UNL     1     -32.577  39.599 -54.185  1.00  0.00     0.088 A 
HETATM    7  N   UNL     1     -32.812  39.542 -52.865  1.00  0.00    -0.225 NA
HETATM    8  C   UNL     1     -33.240  40.013 -56.474  1.00  0.00     0.034 A 
HETATM    9  C   UNL     1     -31.937  39.772 -56.913  1.00  0.00     0.002 A 
HETATM   10  C   UNL     1     -30.958  39.430 -55.991  1.00  0.00     0.002 A 
HETATM   11  C   UNL     1     -31.287  39.348 -54.638  1.00  0.00     0.034 A 
HETATM   12  C   UNL     1     -36.319  40.310 -52.721  1.00  0.00     0.104 C 
HETATM   13  C   UNL     1     -36.019  40.039 -51.392  1.00  0.00     0.123 C 
ENDROOT
BRANCH   1  14
HETATM   14  N   UNL     1     -33.995  40.126 -50.071  1.00  0.00    -0.176 NA
HETATM   15  C   UNL     1     -33.575  39.005 -49.572  1.00  0.00     0.150 C 
BRANCH  15  16
HETATM   16  C   UNL     1     -32.692  38.927 -48.398  1.00  0.00    -0.017 A 
HETATM   17  C   UNL     1     -32.946  38.070 -47.332  1.00  0.00     0.013 A 
HETATM   18  C   UNL     1     -32.141  38.131 -46.188  1.00  0.00     0.009 A 
HETATM   19  C   UNL     1     -31.081  39.053 -46.085  1.00  0.00    -0.051 A 
HETATM   20  C   UNL     1     -30.843  39.896 -47.188  1.00  0.00     0.009 A 
HETATM   21  C   UNL     1     -31.632  39.830 -48.336  1.00  0.00     0.013 A 
BRANCH  19  22
HETATM   22  C   UNL     1     -30.217  39.200 -44.820  1.00  0.00    -0.024 C 
HETATM   23  C   UNL     1     -30.855  38.586 -43.556  1.00  0.00     0.019 C 
HETATM   24  C   UNL     1     -29.986  40.701 -44.539  1.00  0.00     0.019 C 
HETATM   25  C   UNL     1     -28.853  38.507 -45.026  1.00  0.00     0.019 C 
ENDBRANCH  19  22
ENDBRANCH  15  16
ENDBRANCH   1  14
BRANCH  13  26
HETATM   26  N   UNL     1     -36.808  40.015 -50.275  1.00  0.00    -0.286 NA
HETATM   27  H   UNL     1     -37.195  40.926 -50.005  1.00  0.00     0.125 HD
HETATM   28  H   UNL     1     -36.436  39.540 -49.451  1.00  0.00     0.125 HD
ENDBRANCH  13  26
BRANCH  12  29
HETATM   29  C   UNL     1     -37.572  40.829 -53.255  1.00  0.00     0.257 C 
HETATM   30  N   UNL     1     -37.469  41.357 -54.529  1.00  0.00    -0.354 N 
HETATM   31  H   UNL     1     -36.561  41.235 -54.970  1.00  0.00     0.162 HD
HETATM   32  O   UNL     1     -38.641  40.716 -52.671  1.00  0.00    -0.267 OA
BRANCH  30  33
HETATM   33  C   UNL     1     -38.610  41.446 -55.422  1.00  0.00     0.155 C 
BRANCH  33  34
HETATM   34  C   UNL     1     -38.354  41.038 -56.876  1.00  0.00     0.139 C 
HETATM   35  O   UNL     1     -37.474  42.018 -57.481  1.00  0.00    -0.384 OA
HETATM   36  C   UNL     1     -36.414  41.327 -58.155  1.00  0.00     0.168 C 
HETATM   37  C   UNL     1     -36.873  39.899 -58.320  1.00  0.00     0.029 C 
HETATM   38  C   UNL     1     -37.672  39.690 -57.059  1.00  0.00     0.035 C 
ENDBRANCH  33  34
ENDBRANCH  30  33
ENDBRANCH  12  29
TORSDOF 7
ENDMDL
MODEL 7
REMARK VINA RESULT:      -8.0      3.693      8.938
REMARK  7 active torsions:
REMARK  status: ('A' for Active; 'I' for Inactive)
REMARK    1  A    between atoms: C_2  and  C_3 
REMARK    2  A    between atoms: C_6  and  C_7 
REMARK    3  A    between atoms: N_8  and  N_9 
REMARK    4  A    between atoms: C_20  and  C_21 
REMARK       I    between atoms: C_21  and  N_22 
REMARK    5  A    between atoms: N_22  and  C_23 
REMARK    6  A    between atoms: C_23  and  C_24 
REMARK    7  A    between atoms: C_30  and  N_31 
ROOT
HETATM    1  N   UNL     1     -43.378  57.837 -56.333  1.00  0.00    -0.202 N 
HETATM    2  C   UNL     1     -43.935  58.044 -55.085  1.00  0.00     0.183 A 
HETATM    3  C   UNL     1     -43.438  57.056 -54.243  1.00  0.00     0.124 A 
HETATM    4  N   UNL     1     -43.692  57.088 -52.911  1.00  0.00    -0.242 NA
HETATM    5  C   UNL     1     -44.469  58.101 -52.501  1.00  0.00     0.086 A 
HETATM    6  C   UNL     1     -44.996  59.073 -53.389  1.00  0.00     0.088 A 
HETATM    7  N   UNL     1     -44.728  59.074 -54.705  1.00  0.00    -0.225 NA
HETATM    8  C   UNL     1     -44.757  58.205 -51.145  1.00  0.00     0.034 A 
HETATM    9  C   UNL     1     -45.561  59.230 -50.644  1.00  0.00     0.002 A 
HETATM   10  C   UNL     1     -46.095  60.167 -51.517  1.00  0.00     0.002 A 
HETATM   11  C   UNL     1     -45.807  60.079 -52.880  1.00  0.00     0.034 A 
HETATM   12  C   UNL     1     -42.634  56.172 -55.019  1.00  0.00     0.104 C 
HETATM   13  C   UNL     1     -42.767  56.587 -56.339  1.00  0.00     0.123 C 
ENDROOT
BRANCH   1  14
HETATM   14  N   UNL     1     -43.254  58.707 -57.396  1.00  0.00    -0.176 NA
HETATM   15  C   UNL     1     -42.188  59.437 -57.299  1.00  0.00     0.150 C 
BRANCH  15  16
HETATM   16  C   UNL     1     -41.706  60.307 -58.384  1.00  0.00    -0.017 A 
HETATM   17  C   UNL     1     -40.981  61.469 -58.139  1.00  0.00     0.013 A 
HETATM   18  C   UNL     1     -40.660  62.321 -59.202  1.00  0.00     0.009 A 
HETATM   19  C   UNL     1     -41.066  62.035 -60.521  1.00  0.00    -0.051 A 
HETATM   20  C   UNL     1     -41.786  60.843 -60.735  1.00  0.00     0.009 A 
HETATM   21  C   UNL     1     -42.097  59.984 -59.682  1.00  0.00     0.013 A 
BRANCH  19  22
HETATM   22  C   UNL     1     -40.795  62.979 -61.706  1.00  0.00    -0.024 C 
HETATM   23  C   UNL     1     -39.298  63.120 -62.058  1.00  0.00     0.019 C 
HETATM   24  C   UNL     1     -41.325  64.387 -61.360  1.00  0.00     0.019 C 
HETATM   25  C   UNL     1     -41.514  62.462 -62.970  1.00  0.00     0.019 C 
ENDBRANCH  19  22
ENDBRANCH  15  16
ENDBRANCH   1  14
BRANCH  13  26
HETATM   26  N   UNL     1     -42.287  56.057 -57.505  1.00  0.00    -0.286 NA
HETATM   27  H   UNL     1     -42.129  55.043 -57.481  1.00  0.00     0.125 HD
HETATM   28  H   UNL     1     -41.484  56.521 -57.933  1.00  0.00     0.125 HD
ENDBRANCH  13  26
BRANCH  12  29
HETATM   29  C   UNL     1     -41.766  55.118 -54.509  1.00  0.00     0.257 C 
HETATM   30  N   UNL     1     -41.895  54.885 -53.153  1.00  0.00    -0.354 N 
HETATM   31  H   UNL     1     -42.640  55.408 -52.698  1.00  0.00     0.162 HD
HETATM   32  O   UNL     1     -41.058  54.430 -55.234  1.00  0.00    -0.267 OA
BRANCH  30  33
HETATM   33  C   UNL     1     -41.546  53.611 -52.551  1.00  0.00     0.155 C 
BRANCH  33  34
HETATM   34  C   UNL     1     -41.485  53.588 -51.021  1.00  0.00     0.139 C 
HETATM   35  O   UNL     1     -40.100  53.453 -50.617  1.00  0.00    -0.384 OA
HETATM   36  C   UNL     1     -39.818  54.435 -49.612  1.00  0.00     0.168 C 
HETATM   37  C   UNL     1     -41.153  54.908 -49.091  1.00  0.00     0.029 C 
HETATM   38  C   UNL     1     -42.003  54.844 -50.334  1.00  0.00     0.035 C 
ENDBRANCH  33  34
ENDBRANCH  30  33
ENDBRANCH  12  29
TORSDOF 7
ENDMDL
MODEL 8
REMARK VINA RESULT:      -8.0      2.728      5.522
REMARK  7 active torsions:
REMARK  status: ('A' for Active; 'I' for Inactive)
REMARK    1  A    between atoms: C_2  and  C_3 
REMARK    2  A    between atoms: C_6  and  C_7 
REMARK    3  A    between atoms: N_8  and  N_9 
REMARK    4  A    between atoms: C_20  and  C_21 
REMARK       I    between atoms: C_21  and  N_22 
REMARK    5  A    between atoms: N_22  and  C_23 
REMARK    6  A    between atoms: C_23  and  C_24 
REMARK    7  A    between atoms: C_30  and  N_31 
ROOT
HETATM    1  N   UNL     1     -42.022  58.953 -52.786  1.00  0.00    -0.202 N 
HETATM    2  C   UNL     1     -41.962  58.960 -54.168  1.00  0.00     0.183 A 
HETATM    3  C   UNL     1     -42.153  57.651 -54.595  1.00  0.00     0.124 A 
HETATM    4  N   UNL     1     -42.294  57.367 -55.914  1.00  0.00    -0.242 NA
HETATM    5  C   UNL     1     -42.198  58.419 -56.740  1.00  0.00     0.086 A 
HETATM    6  C   UNL     1     -41.962  59.739 -56.278  1.00  0.00     0.088 A 
HETATM    7  N   UNL     1     -41.853  60.043 -54.975  1.00  0.00    -0.225 NA
HETATM    8  C   UNL     1     -42.348  58.202 -58.104  1.00  0.00     0.034 A 
HETATM    9  C   UNL     1     -42.258  59.247 -59.025  1.00  0.00     0.002 A 
HETATM   10  C   UNL     1     -42.005  60.534 -58.575  1.00  0.00     0.002 A 
HETATM   11  C   UNL     1     -41.860  60.767 -57.207  1.00  0.00     0.034 A 
HETATM   12  C   UNL     1     -42.236  56.814 -53.445  1.00  0.00     0.104 C 
HETATM   13  C   UNL     1     -41.972  57.632 -52.353  1.00  0.00     0.123 C 
ENDROOT
BRANCH   1  14
HETATM   14  N   UNL     1     -42.250  59.993 -51.911  1.00  0.00    -0.176 NA
HETATM   15  C   UNL     1     -43.512  60.135 -51.649  1.00  0.00     0.150 C 
BRANCH  15  16
HETATM   16  C   UNL     1     -44.021  61.034 -50.602  1.00  0.00    -0.017 A 
HETATM   17  C   UNL     1     -43.395  62.235 -50.283  1.00  0.00     0.013 A 
HETATM   18  C   UNL     1     -43.853  62.986 -49.193  1.00  0.00     0.009 A 
HETATM   19  C   UNL     1     -44.930  62.545 -48.399  1.00  0.00    -0.051 A 
HETATM   20  C   UNL     1     -45.550  61.332 -48.759  1.00  0.00     0.009 A 
HETATM   21  C   UNL     1     -45.108  60.587 -49.851  1.00  0.00     0.013 A 
BRANCH  19  22
HETATM   22  C   UNL     1     -45.419  63.304 -47.152  1.00  0.00    -0.024 C 
HETATM   23  C   UNL     1     -45.194  62.540 -45.830  1.00  0.00     0.019 C 
HETATM   24  C   UNL     1     -46.936  63.565 -47.284  1.00  0.00     0.019 C 
HETATM   25  C   UNL     1     -44.681  64.655 -47.031  1.00  0.00     0.019 C 
ENDBRANCH  19  22
ENDBRANCH  15  16
ENDBRANCH   1  14
BRANCH  13  26
HETATM   26  N   UNL     1     -41.840  57.345 -51.021  1.00  0.00    -0.286 NA
HETATM   27  H   UNL     1     -41.395  58.086 -50.467  1.00  0.00     0.125 HD
HETATM   28  H   UNL     1     -41.435  56.441 -50.776  1.00  0.00     0.125 HD
ENDBRANCH  13  26
BRANCH  12  29
HETATM   29  C   UNL     1     -42.628  55.411 -53.422  1.00  0.00     0.257 C 
HETATM   30  N   UNL     1     -42.137  54.669 -54.481  1.00  0.00    -0.354 N 
HETATM   31  H   UNL     1     -41.491  55.167 -55.089  1.00  0.00     0.162 HD
HETATM   32  O   UNL     1     -43.251  54.909 -52.496  1.00  0.00    -0.267 OA
BRANCH  30  33
HETATM   33  C   UNL     1     -41.961  53.230 -54.400  1.00  0.00     0.155 C 
BRANCH  33  34
HETATM   34  C   UNL     1     -40.536  52.746 -54.116  1.00  0.00     0.139 C 
HETATM   35  O   UNL     1     -40.226  53.014 -52.726  1.00  0.00    -0.384 OA
HETATM   36  C   UNL     1     -39.669  51.828 -52.144  1.00  0.00     0.168 C 
HETATM   37  C   UNL     1     -39.246  50.947 -53.294  1.00  0.00     0.029 C 
HETATM   38  C   UNL     1     -40.307  51.255 -54.318  1.00  0.00     0.035 C 
ENDBRANCH  33  34
ENDBRANCH  30  33
ENDBRANCH  12  29
TORSDOF 7
ENDMDL
MODEL 9
REMARK VINA RESULT:      -7.8      4.720      7.737
REMARK  7 active torsions:
REMARK  status: ('A' for Active; 'I' for Inactive)
REMARK    1  A    between atoms: C_2  and  C_3 
REMARK    2  A    between atoms: C_6  and  C_7 
REMARK    3  A    between atoms: N_8  and  N_9 
REMARK    4  A    between atoms: C_20  and  C_21 
REMARK       I    between atoms: C_21  and  N_22 
REMARK    5  A    between atoms: N_22  and  C_23 
REMARK    6  A    between atoms: C_23  and  C_24 
REMARK    7  A    between atoms: C_30  and  N_31 
ROOT
HETATM    1  N   UNL     1     -43.546  56.474 -59.155  1.00  0.00    -0.202 N 
HETATM    2  C   UNL     1     -43.440  57.748 -59.683  1.00  0.00     0.183 A 
HETATM    3  C   UNL     1     -44.644  58.033 -60.315  1.00  0.00     0.124 A 
HETATM    4  N   UNL     1     -44.893  59.275 -60.802  1.00  0.00    -0.242 NA
HETATM    5  C   UNL     1     -43.895  60.158 -60.657  1.00  0.00     0.086 A 
HETATM    6  C   UNL     1     -42.660  59.826 -60.044  1.00  0.00     0.088 A 
HETATM    7  N   UNL     1     -42.408  58.613 -59.527  1.00  0.00    -0.225 NA
HETATM    8  C   UNL     1     -44.088  61.454 -61.120  1.00  0.00     0.034 A 
HETATM    9  C   UNL     1     -43.093  62.426 -61.007  1.00  0.00     0.002 A 
HETATM   10  C   UNL     1     -41.877  62.096 -60.427  1.00  0.00     0.002 A 
HETATM   11  C   UNL     1     -41.673  60.800 -59.951  1.00  0.00     0.034 A 
HETATM   12  C   UNL     1     -45.467  56.872 -60.252  1.00  0.00     0.104 C 
HETATM   13  C   UNL     1     -44.684  55.874 -59.685  1.00  0.00     0.123 C 
ENDROOT
BRANCH   1  14
HETATM   14  N   UNL     1     -42.806  55.870 -58.161  1.00  0.00    -0.176 NA
HETATM   15  C   UNL     1     -43.058  56.379 -56.995  1.00  0.00     0.150 C 
BRANCH  15  16
HETATM   16  C   UNL     1     -42.561  55.798 -55.738  1.00  0.00    -0.017 A 
HETATM   17  C   UNL     1     -42.736  54.456 -55.417  1.00  0.00     0.013 A 
HETATM   18  C   UNL     1     -42.354  53.991 -54.153  1.00  0.00     0.009 A 
HETATM   19  C   UNL     1     -41.805  54.858 -53.187  1.00  0.00    -0.051 A 
HETATM   20  C   UNL     1     -41.629  56.207 -53.550  1.00  0.00     0.009 A 
HETATM   21  C   UNL     1     -41.994  56.674 -54.812  1.00  0.00     0.013 A 
BRANCH  19  22
HETATM   22  C   UNL     1     -41.437  54.402 -51.764  1.00  0.00    -0.024 C 
HETATM   23  C   UNL     1     -40.874  55.532 -50.875  1.00  0.00     0.019 C 
HETATM   24  C   UNL     1     -40.359  53.300 -51.851  1.00  0.00     0.019 C 
HETATM   25  C   UNL     1     -42.684  53.837 -51.049  1.00  0.00     0.019 C 
ENDBRANCH  19  22
ENDBRANCH  15  16
ENDBRANCH   1  14
BRANCH  13  26
HETATM   26  N   UNL     1     -44.933  54.547 -59.463  1.00  0.00    -0.286 NA
HETATM   27  H   UNL     1     -45.908  54.264 -59.614  1.00  0.00     0.125 HD
HETATM   28  H   UNL     1     -44.589  54.148 -58.588  1.00  0.00     0.125 HD
ENDBRANCH  13  26
BRANCH  12  29
HETATM   29  C   UNL     1     -46.877  56.790 -60.612  1.00  0.00     0.257 C 
HETATM   30  N   UNL     1     -47.255  57.655 -61.621  1.00  0.00    -0.354 N 
HETATM   31  H   UNL     1     -46.491  58.172 -62.049  1.00  0.00     0.162 HD
HETATM   32  O   UNL     1     -47.638  55.958 -60.135  1.00  0.00    -0.267 OA
BRANCH  30  33
HETATM   33  C   UNL     1     -48.410  57.402 -62.463  1.00  0.00     0.155 C 
BRANCH  33  34
HETATM   34  C   UNL     1     -49.295  58.615 -62.767  1.00  0.00     0.139 C 
HETATM   35  O   UNL     1     -50.653  58.155 -62.974  1.00  0.00    -0.384 OA
HETATM   36  C   UNL     1     -51.536  58.970 -62.193  1.00  0.00     0.168 C 
HETATM   37  C   UNL     1     -50.759  60.210 -61.824  1.00  0.00     0.029 C 
HETATM   38  C   UNL     1     -49.367  59.657 -61.660  1.00  0.00     0.035 C 
ENDBRANCH  33  34
ENDBRANCH  30  33
ENDBRANCH  12  29
TORSDOF 7
ENDMDL
MODEL 10
REMARK VINA RESULT:      -7.8      3.447      8.872
REMARK  7 active torsions:
REMARK  status: ('A' for Active; 'I' for Inactive)
REMARK    1  A    between atoms: C_2  and  C_3 
REMARK    2  A    between atoms: C_6  and  C_7 
REMARK    3  A    between atoms: N_8  and  N_9 
REMARK    4  A    between atoms: C_20  and  C_21 
REMARK       I    between atoms: C_21  and  N_22 
REMARK    5  A    between atoms: N_22  and  C_23 
REMARK    6  A    between atoms: C_23  and  C_24 
REMARK    7  A    between atoms: C_30  and  N_31 
ROOT
HETATM    1  N   UNL     1     -41.875  59.003 -53.913  1.00  0.00    -0.202 N 
HETATM    2  C   UNL     1     -41.666  57.653 -53.697  1.00  0.00     0.183 A 
HETATM    3  C   UNL     1     -42.489  57.272 -52.645  1.00  0.00     0.124 A 
HETATM    4  N   UNL     1     -42.612  55.966 -52.300  1.00  0.00    -0.242 NA
HETATM    5  C   UNL     1     -41.866  55.112 -53.014  1.00  0.00     0.086 A 
HETATM    6  C   UNL     1     -41.002  55.534 -54.057  1.00  0.00     0.088 A 
HETATM    7  N   UNL     1     -40.893  56.818 -54.433  1.00  0.00    -0.225 NA
HETATM    8  C   UNL     1     -41.955  53.755 -52.725  1.00  0.00     0.034 A 
HETATM    9  C   UNL     1     -41.206  52.807 -53.424  1.00  0.00     0.002 A 
HETATM   10  C   UNL     1     -40.345  53.223 -54.428  1.00  0.00     0.002 A 
HETATM   11  C   UNL     1     -40.252  54.581 -54.736  1.00  0.00     0.034 A 
HETATM   12  C   UNL     1     -43.145  58.435 -52.147  1.00  0.00     0.104 C 
HETATM   13  C   UNL     1     -42.603  59.510 -52.841  1.00  0.00     0.123 C 
ENDROOT
BRANCH   1  14
HETATM   14  N   UNL     1     -41.596  59.768 -55.025  1.00  0.00    -0.176 NA
HETATM   15  C   UNL     1     -42.123  59.269 -56.099  1.00  0.00     0.150 C 
BRANCH  15  16
HETATM   16  C   UNL     1     -42.151  59.978 -57.388  1.00  0.00    -0.017 A 
HETATM   17  C   UNL     1     -42.229  59.307 -58.605  1.00  0.00     0.013 A 
HETATM   18  C   UNL     1     -42.124  60.028 -59.800  1.00  0.00     0.009 A 
HETATM   19  C   UNL     1     -41.926  61.423 -59.801  1.00  0.00    -0.051 A 
HETATM   20  C   UNL     1     -41.866  62.072 -58.552  1.00  0.00     0.009 A 
HETATM   21  C   UNL     1     -41.984  61.362 -57.358  1.00  0.00     0.013 A 
BRANCH  19  22
HETATM   22  C   UNL     1     -41.737  62.243 -61.090  1.00  0.00    -0.024 C 
HETATM   23  C   UNL     1     -42.610  63.514 -61.153  1.00  0.00     0.019 C 
HETATM   24  C   UNL     1     -42.108  61.365 -62.305  1.00  0.00     0.019 C 
HETATM   25  C   UNL     1     -40.265  62.693 -61.220  1.00  0.00     0.019 C 
ENDBRANCH  19  22
ENDBRANCH  15  16
ENDBRANCH   1  14
BRANCH  13  26
HETATM   26  N   UNL     1     -42.800  60.858 -52.716  1.00  0.00    -0.286 NA
HETATM   27  H   UNL     1     -42.255  61.302 -51.968  1.00  0.00     0.125 HD
HETATM   28  H   UNL     1     -43.766  61.187 -52.681  1.00  0.00     0.125 HD
ENDBRANCH  13  26
BRANCH  12  29
HETATM   29  C   UNL     1     -44.238  58.468 -51.184  1.00  0.00     0.257 C 
HETATM   30  N   UNL     1     -44.279  59.614 -50.413  1.00  0.00    -0.354 N 
HETATM   31  H   UNL     1     -43.604  60.329 -50.674  1.00  0.00     0.162 HD
HETATM   32  O   UNL     1     -45.104  57.604 -51.131  1.00  0.00    -0.267 OA
BRANCH  30  33
HETATM   33  C   UNL     1     -45.504  60.085 -49.793  1.00  0.00     0.155 C 
BRANCH  33  34
HETATM   34  C   UNL     1     -45.384  61.364 -48.959  1.00  0.00     0.139 C 
HETATM   35  O   UNL     1     -46.709  61.919 -48.773  1.00  0.00    -0.384 OA
HETATM   36  C   UNL     1     -46.885  62.229 -47.384  1.00  0.00     0.168 C 
HETATM   37  C   UNL     1     -45.504  62.252 -46.774  1.00  0.00     0.029 C 
HETATM   38  C   UNL     1     -44.807  61.174 -47.564  1.00  0.00     0.035 C 
ENDBRANCH  33  34
ENDBRANCH  30  33
ENDBRANCH  12  29
TORSDOF 7
ENDMDL
