MODEL 1
REMARK VINA RESULT:      -8.4      0.000      0.000
REMARK  8 active torsions:
REMARK  status: ('A' for Active; 'I' for Inactive)
REMARK    1  A    between atoms: C_4  and  N_5 
REMARK       I    between atoms: N_5  and  C_6 
REMARK    2  A    between atoms: C_6  and  C_7 
REMARK    3  A    between atoms: C_10  and  N_11 
REMARK       I    between atoms: N_11  and  C_12 
REMARK       I    between atoms: C_12  and  N_21 
REMARK    4  A    between atoms: N_21  and  CA_22 
REMARK    5  A    between atoms: CA_22  and  C_23 
REMARK    6  A    between atoms: CA_22  and  CB_25 
REMARK    7  A    between atoms: C_23  and  O_24 
REMARK    8  A    between atoms: CB_25  and  CG_26 
ROOT
HETATM    1  N   UNK A   0     -45.516  58.132 -55.395  1.00  0.00    -0.309 N 
HETATM    2  C   UNK A   0     -45.350  59.143 -56.315  1.00  0.00     0.321 C 
HETATM    3  O   UNK A   0     -44.326  59.775 -56.537  1.00  0.00    -0.247 OA
HETATM    4  H   UNK A   0     -46.472  57.953 -55.128  1.00  0.00     0.170 HD
ATOM      5  N   TRP A   1     -46.530  59.357 -56.996  1.00  0.00    -0.336 N 
ATOM      6  H   TRP A   1     -47.097  58.525 -57.111  1.00  0.00     0.164 HD
ENDROOT
BRANCH   1   7
HETATM    7  C   UNK A   0     -44.527  57.290 -54.862  1.00  0.00     0.036 A 
HETATM    8  C   UNK A   0     -43.706  56.479 -55.645  1.00  0.00     0.030 A 
HETATM    9  C   UNK A   0     -42.897  55.499 -55.054  1.00  0.00     0.019 A 
HETATM   10  C   UNK A   0     -42.879  55.339 -53.663  1.00  0.00     0.032 A 
HETATM   11  C   UNK A   0     -43.643  56.212 -52.877  1.00  0.00     0.019 A 
HETATM   12  C   UNK A   0     -44.461  57.178 -53.471  1.00  0.00     0.030 A 
BRANCH  10  13
HETATM   13  C   UNK A   0     -42.192  54.198 -52.971  1.00  0.00     0.256 C 
HETATM   14  N   UNK A   0     -41.094  53.653 -53.614  1.00  0.00    -0.323 N 
HETATM   15  H   UNK A   0     -40.664  54.189 -54.352  1.00  0.00     0.169 HD
HETATM   16  O   UNK A   0     -42.652  53.810 -51.902  1.00  0.00    -0.267 OA
BRANCH  14  17
HETATM   17  C   UNK A   0     -40.500  52.398 -53.355  1.00  0.00     0.035 A 
HETATM   18  C   UNK A   0     -39.898  52.057 -52.142  1.00  0.00     0.029 A 
HETATM   19  C   UNK A   0     -39.389  50.771 -51.937  1.00  0.00     0.002 A 
HETATM   20  C   UNK A   0     -39.479  49.814 -52.942  1.00  0.00     0.000 A 
HETATM   21  C   UNK A   0     -40.074  50.142 -54.158  1.00  0.00     0.002 A 
HETATM   22  C   UNK A   0     -40.583  51.428 -54.362  1.00  0.00     0.029 A 
ENDBRANCH  14  17
ENDBRANCH  10  13
ENDBRANCH   1   7
BRANCH   5  23
ATOM     23  CA  TRP A   1     -46.587  60.223 -58.172  1.00  0.00     0.114 C 
BRANCH  23  24
ATOM     24  C   TRP A   1     -47.664  61.305 -57.958  1.00  0.00     0.189 C 
BRANCH  24  25
ATOM     25  O   TRP A   1     -48.192  61.270 -56.632  1.00  0.00    -0.399 OA
ATOM     26  H   TRP A   1     -47.580  60.732 -56.100  1.00  0.00     0.209 HD
ENDBRANCH  24  25
ENDBRANCH  23  24
BRANCH  23  27
ATOM     27  CB  TRP A   1     -46.751  59.458 -59.510  1.00  0.00     0.068 C 
BRANCH  27  28
ATOM     28  CG  TRP A   1     -46.232  58.047 -59.558  1.00  0.00    -0.028 A 
ATOM     29  CD2 TRP A   1     -44.854  57.650 -59.639  1.00  0.00    -0.002 A 
ATOM     30  CE2 TRP A   1     -44.816  56.256 -59.668  1.00  0.00     0.042 A 
ATOM     31  CE3 TRP A   1     -43.630  58.350 -59.694  1.00  0.00     0.014 A 
ATOM     32  CZ2 TRP A   1     -43.621  55.529 -59.732  1.00  0.00     0.030 A 
ATOM     33  NE1 TRP A   1     -46.119  55.819 -59.628  1.00  0.00    -0.365 N 
ATOM     34  CH2 TRP A   1     -42.424  56.247 -59.778  1.00  0.00     0.002 A 
ATOM     35  CZ3 TRP A   1     -42.426  57.639 -59.765  1.00  0.00     0.001 A 
ATOM     36  HE1 TRP A   1     -46.396  54.848 -59.644  1.00  0.00     0.165 HD
ATOM     37  CD1 TRP A   1     -46.976  56.884 -59.583  1.00  0.00     0.096 A 
ENDBRANCH  27  28
ENDBRANCH  23  27
ENDBRANCH   5  23
TORSDOF 8
ENDMDL
MODEL 2
REMARK VINA RESULT:      -8.3      1.883      2.165
REMARK  8 active torsions:
REMARK  status: ('A' for Active; 'I' for Inactive)
REMARK    1  A    between atoms: C_4  and  N_5 
REMARK       I    between atoms: N_5  and  C_6 
REMARK    2  A    between atoms: C_6  and  C_7 
REMARK    3  A    between atoms: C_10  and  N_11 
REMARK       I    between atoms: N_11  and  C_12 
REMARK       I    between atoms: C_12  and  N_21 
REMARK    4  A    between atoms: N_21  and  CA_22 
REMARK    5  A    between atoms: CA_22  and  C_23 
REMARK    6  A    between atoms: CA_22  and  CB_25 
REMARK    7  A    between atoms: C_23  and  O_24 
REMARK    8  A    between atoms: CB_25  and  CG_26 
ROOT
HETATM    1  N   UNK A   0     -43.103  58.891 -56.195  1.00  0.00    -0.309 N 
HETATM    2  C   UNK A   0     -42.544  59.715 -57.145  1.00  0.00     0.321 C 
HETATM    3  O   UNK A   0     -41.358  59.810 -57.431  1.00  0.00    -0.247 OA
HETATM    4  H   UNK A   0     -44.020  59.167 -55.878  1.00  0.00     0.170 HD
ATOM      5  N   TRP A   1     -43.531  60.444 -57.774  1.00  0.00    -0.336 N 
ATOM      6  H   TRP A   1     -44.420  59.963 -57.843  1.00  0.00     0.164 HD
ENDROOT
BRANCH   1   7
HETATM    7  C   UNK A   0     -42.580  57.690 -55.690  1.00  0.00     0.036 A 
HETATM    8  C   UNK A   0     -42.826  56.443 -56.264  1.00  0.00     0.030 A 
HETATM    9  C   UNK A   0     -42.469  55.265 -55.595  1.00  0.00     0.019 A 
HETATM   10  C   UNK A   0     -41.831  55.322 -54.350  1.00  0.00     0.032 A 
HETATM   11  C   UNK A   0     -41.511  56.578 -53.817  1.00  0.00     0.019 A 
HETATM   12  C   UNK A   0     -41.884  57.752 -54.480  1.00  0.00     0.030 A 
BRANCH  10  13
HETATM   13  C   UNK A   0     -41.588  54.117 -53.489  1.00  0.00     0.256 C 
HETATM   14  N   UNK A   0     -40.376  53.470 -53.654  1.00  0.00    -0.323 N 
HETATM   15  H   UNK A   0     -39.638  53.964 -54.130  1.00  0.00     0.169 HD
HETATM   16  O   UNK A   0     -42.478  53.772 -52.716  1.00  0.00    -0.267 OA
BRANCH  14  17
HETATM   17  C   UNK A   0     -40.052  52.162 -53.231  1.00  0.00     0.035 A 
HETATM   18  C   UNK A   0     -39.730  51.827 -51.914  1.00  0.00     0.029 A 
HETATM   19  C   UNK A   0     -39.485  50.498 -51.558  1.00  0.00     0.002 A 
HETATM   20  C   UNK A   0     -39.560  49.490 -52.515  1.00  0.00     0.000 A 
HETATM   21  C   UNK A   0     -39.876  49.812 -53.832  1.00  0.00     0.002 A 
HETATM   22  C   UNK A   0     -40.123  51.141 -54.188  1.00  0.00     0.029 A 
ENDBRANCH  14  17
ENDBRANCH  10  13
ENDBRANCH   1   7
BRANCH   5  23
ATOM     23  CA  TRP A   1     -43.249  61.241 -58.966  1.00  0.00     0.114 C 
BRANCH  23  24
ATOM     24  C   TRP A   1     -44.161  62.484 -58.978  1.00  0.00     0.189 C 
BRANCH  24  25
ATOM     25  O   TRP A   1     -45.344  62.279 -58.205  1.00  0.00    -0.399 OA
ATOM     26  H   TRP A   1     -45.441  63.057 -57.628  1.00  0.00     0.209 HD
ENDBRANCH  24  25
ENDBRANCH  23  24
BRANCH  23  27
ATOM     27  CB  TRP A   1     -43.304  60.436 -60.290  1.00  0.00     0.068 C 
BRANCH  27  28
ATOM     28  CG  TRP A   1     -44.280  59.294 -60.354  1.00  0.00    -0.028 A 
ATOM     29  CD2 TRP A   1     -43.976  57.902 -60.167  1.00  0.00    -0.002 A 
ATOM     30  CE2 TRP A   1     -45.163  57.186 -60.317  1.00  0.00     0.042 A 
ATOM     31  CE3 TRP A   1     -42.795  57.184 -59.885  1.00  0.00     0.014 A 
ATOM     32  CZ2 TRP A   1     -45.232  55.793 -60.183  1.00  0.00     0.030 A 
ATOM     33  NE1 TRP A   1     -46.149  58.098 -60.605  1.00  0.00    -0.365 N 
ATOM     34  CH2 TRP A   1     -44.049  55.107 -59.898  1.00  0.00     0.002 A 
ATOM     35  CZ3 TRP A   1     -42.844  55.790 -59.756  1.00  0.00     0.001 A 
ATOM     36  HE1 TRP A   1     -47.116  57.860 -60.771  1.00  0.00     0.165 HD
ATOM     37  CD1 TRP A   1     -45.627  59.362 -60.650  1.00  0.00     0.096 A 
ENDBRANCH  27  28
ENDBRANCH  23  27
ENDBRANCH   5  23
TORSDOF 8
ENDMDL
MODEL 3
REMARK VINA RESULT:      -8.3      5.377     10.025
REMARK  8 active torsions:
REMARK  status: ('A' for Active; 'I' for Inactive)
REMARK    1  A    between atoms: C_4  and  N_5 
REMARK       I    between atoms: N_5  and  C_6 
REMARK    2  A    between atoms: C_6  and  C_7 
REMARK    3  A    between atoms: C_10  and  N_11 
REMARK       I    between atoms: N_11  and  C_12 
REMARK       I    between atoms: C_12  and  N_21 
REMARK    4  A    between atoms: N_21  and  CA_22 
REMARK    5  A    between atoms: CA_22  and  C_23 
REMARK    6  A    between atoms: CA_22  and  CB_25 
REMARK    7  A    between atoms: C_23  and  O_24 
REMARK    8  A    between atoms: CB_25  and  CG_26 
ROOT
HETATM    1  N   UNK A   0     -43.895  57.043 -52.086  1.00  0.00    -0.309 N 
HETATM    2  C   UNK A   0     -43.424  56.733 -53.342  1.00  0.00     0.321 C 
HETATM    3  O   UNK A   0     -43.427  57.457 -54.329  1.00  0.00    -0.247 OA
HETATM    4  H   UNK A   0     -44.103  56.248 -51.502  1.00  0.00     0.170 HD
ATOM      5  N   TRP A   1     -42.911  55.454 -53.348  1.00  0.00    -0.336 N 
ATOM      6  H   TRP A   1     -42.505  55.166 -52.465  1.00  0.00     0.164 HD
ENDROOT
BRANCH   1   7
HETATM    7  C   UNK A   0     -44.039  58.319 -51.517  1.00  0.00     0.036 A 
HETATM    8  C   UNK A   0     -42.976  59.203 -51.338  1.00  0.00     0.030 A 
HETATM    9  C   UNK A   0     -43.133  60.362 -50.566  1.00  0.00     0.019 A 
HETATM   10  C   UNK A   0     -44.371  60.665 -49.986  1.00  0.00     0.032 A 
HETATM   11  C   UNK A   0     -45.457  59.816 -50.239  1.00  0.00     0.019 A 
HETATM   12  C   UNK A   0     -45.292  58.651 -50.996  1.00  0.00     0.030 A 
BRANCH  10  13
HETATM   13  C   UNK A   0     -44.572  61.777 -48.998  1.00  0.00     0.256 C 
HETATM   14  N   UNK A   0     -45.146  61.435 -47.786  1.00  0.00    -0.323 N 
HETATM   15  H   UNK A   0     -45.161  60.459 -47.529  1.00  0.00     0.169 HD
HETATM   16  O   UNK A   0     -44.237  62.911 -49.329  1.00  0.00    -0.267 OA
BRANCH  14  17
HETATM   17  C   UNK A   0     -45.737  62.314 -46.852  1.00  0.00     0.035 A 
HETATM   18  C   UNK A   0     -45.101  62.756 -45.689  1.00  0.00     0.029 A 
HETATM   19  C   UNK A   0     -45.725  63.680 -44.845  1.00  0.00     0.002 A 
HETATM   20  C   UNK A   0     -46.989  64.171 -45.156  1.00  0.00     0.000 A 
HETATM   21  C   UNK A   0     -47.634  63.736 -46.311  1.00  0.00     0.002 A 
HETATM   22  C   UNK A   0     -47.010  62.813 -47.155  1.00  0.00     0.029 A 
ENDBRANCH  14  17
ENDBRANCH  10  13
ENDBRANCH   1   7
BRANCH   5  23
ATOM     23  CA  TRP A   1     -42.154  54.940 -54.489  1.00  0.00     0.114 C 
BRANCH  23  24
ATOM     24  C   TRP A   1     -42.887  53.721 -55.082  1.00  0.00     0.189 C 
BRANCH  24  25
ATOM     25  O   TRP A   1     -43.713  54.086 -56.188  1.00  0.00    -0.399 OA
ATOM     26  H   TRP A   1     -43.672  55.056 -56.259  1.00  0.00     0.209 HD
ENDBRANCH  24  25
ENDBRANCH  23  24
BRANCH  23  27
ATOM     27  CB  TRP A   1     -40.661  54.660 -54.179  1.00  0.00     0.068 C 
BRANCH  27  28
ATOM     28  CG  TRP A   1     -40.365  53.689 -53.070  1.00  0.00    -0.028 A 
ATOM     29  CD2 TRP A   1     -40.132  52.279 -53.212  1.00  0.00    -0.002 A 
ATOM     30  CE2 TRP A   1     -39.904  51.756 -51.940  1.00  0.00     0.042 A 
ATOM     31  CE3 TRP A   1     -40.097  51.394 -54.311  1.00  0.00     0.014 A 
ATOM     32  CZ2 TRP A   1     -39.627  50.402 -51.712  1.00  0.00     0.030 A 
ATOM     33  NE1 TRP A   1     -40.013  52.800 -51.052  1.00  0.00    -0.365 N 
ATOM     34  CH2 TRP A   1     -39.592  49.550 -52.819  1.00  0.00     0.002 A 
ATOM     35  CZ3 TRP A   1     -39.829  50.036 -54.101  1.00  0.00     0.001 A 
ATOM     36  HE1 TRP A   1     -39.903  52.713 -50.052  1.00  0.00     0.165 HD
ATOM     37  CD1 TRP A   1     -40.310  53.959 -51.716  1.00  0.00     0.096 A 
ENDBRANCH  27  28
ENDBRANCH  23  27
ENDBRANCH   5  23
TORSDOF 8
ENDMDL
MODEL 4
REMARK VINA RESULT:      -8.2      2.085      2.755
REMARK  8 active torsions:
REMARK  status: ('A' for Active; 'I' for Inactive)
REMARK    1  A    between atoms: C_4  and  N_5 
REMARK       I    between atoms: N_5  and  C_6 
REMARK    2  A    between atoms: C_6  and  C_7 
REMARK    3  A    between atoms: C_10  and  N_11 
REMARK       I    between atoms: N_11  and  C_12 
REMARK       I    between atoms: C_12  and  N_21 
REMARK    4  A    between atoms: N_21  and  CA_22 
REMARK    5  A    between atoms: CA_22  and  C_23 
REMARK    6  A    between atoms: CA_22  and  CB_25 
REMARK    7  A    between atoms: C_23  and  O_24 
REMARK    8  A    between atoms: CB_25  and  CG_26 
ROOT
HETATM    1  N   UNK A   0     -43.881  59.017 -56.112  1.00  0.00    -0.309 N 
HETATM    2  C   UNK A   0     -42.940  59.595 -56.934  1.00  0.00     0.321 C 
HETATM    3  O   UNK A   0     -41.724  59.523 -56.825  1.00  0.00    -0.247 OA
HETATM    4  H   UNK A   0     -44.799  59.432 -56.159  1.00  0.00     0.170 HD
ATOM      5  N   TRP A   1     -43.565  60.284 -57.952  1.00  0.00    -0.336 N 
ATOM      6  H   TRP A   1     -44.451  59.884 -58.238  1.00  0.00     0.164 HD
ENDROOT
BRANCH   1   7
HETATM    7  C   UNK A   0     -43.724  57.887 -55.294  1.00  0.00     0.036 A 
HETATM    8  C   UNK A   0     -43.617  57.953 -53.905  1.00  0.00     0.030 A 
HETATM    9  C   UNK A   0     -43.237  56.827 -53.163  1.00  0.00     0.019 A 
HETATM   10  C   UNK A   0     -42.987  55.606 -53.804  1.00  0.00     0.032 A 
HETATM   11  C   UNK A   0     -43.177  55.525 -55.190  1.00  0.00     0.019 A 
HETATM   12  C   UNK A   0     -43.540  56.656 -55.929  1.00  0.00     0.030 A 
BRANCH  10  13
HETATM   13  C   UNK A   0     -42.398  54.414 -53.109  1.00  0.00     0.256 C 
HETATM   14  N   UNK A   0     -41.157  53.988 -53.551  1.00  0.00    -0.323 N 
HETATM   15  H   UNK A   0     -40.612  54.625 -54.112  1.00  0.00     0.169 HD
HETATM   16  O   UNK A   0     -43.054  53.882 -52.218  1.00  0.00    -0.267 OA
BRANCH  14  17
HETATM   17  C   UNK A   0     -40.559  52.732 -53.310  1.00  0.00     0.035 A 
HETATM   18  C   UNK A   0     -39.975  52.369 -52.095  1.00  0.00     0.029 A 
HETATM   19  C   UNK A   0     -39.461  51.082 -51.909  1.00  0.00     0.002 A 
HETATM   20  C   UNK A   0     -39.527  50.146 -52.937  1.00  0.00     0.000 A 
HETATM   21  C   UNK A   0     -40.104  50.498 -54.155  1.00  0.00     0.002 A 
HETATM   22  C   UNK A   0     -40.618  51.784 -54.340  1.00  0.00     0.029 A 
ENDBRANCH  14  17
ENDBRANCH  10  13
ENDBRANCH   1   7
BRANCH   5  23
ATOM     23  CA  TRP A   1     -42.814  60.816 -59.087  1.00  0.00     0.114 C 
BRANCH  23  24
ATOM     24  C   TRP A   1     -43.215  62.286 -59.321  1.00  0.00     0.189 C 
BRANCH  24  25
ATOM     25  O   TRP A   1     -42.345  63.188 -58.635  1.00  0.00    -0.399 OA
ATOM     26  H   TRP A   1     -41.826  62.653 -58.009  1.00  0.00     0.209 HD
ENDBRANCH  24  25
ENDBRANCH  23  24
BRANCH  23  27
ATOM     27  CB  TRP A   1     -42.911  59.949 -60.368  1.00  0.00     0.068 C 
BRANCH  27  28
ATOM     28  CG  TRP A   1     -42.765  58.462 -60.199  1.00  0.00    -0.028 A 
ATOM     29  CD2 TRP A   1     -43.833  57.502 -60.155  1.00  0.00    -0.002 A 
ATOM     30  CE2 TRP A   1     -43.262  56.242 -59.979  1.00  0.00     0.042 A 
ATOM     31  CE3 TRP A   1     -45.238  57.589 -60.245  1.00  0.00     0.014 A 
ATOM     32  CZ2 TRP A   1     -44.020  55.067 -59.906  1.00  0.00     0.030 A 
ATOM     33  NE1 TRP A   1     -41.902  56.425 -59.898  1.00  0.00    -0.365 N 
ATOM     34  CH2 TRP A   1     -45.409  55.182 -60.006  1.00  0.00     0.002 A 
ATOM     35  CZ3 TRP A   1     -46.013  56.426 -60.167  1.00  0.00     0.001 A 
ATOM     36  HE1 TRP A   1     -41.233  55.682 -59.763  1.00  0.00     0.165 HD
ATOM     37  CD1 TRP A   1     -41.595  57.754 -60.007  1.00  0.00     0.096 A 
ENDBRANCH  27  28
ENDBRANCH  23  27
ENDBRANCH   5  23
TORSDOF 8
ENDMDL
MODEL 5
REMARK VINA RESULT:      -8.1      3.829      9.754
REMARK  8 active torsions:
REMARK  status: ('A' for Active; 'I' for Inactive)
REMARK    1  A    between atoms: C_4  and  N_5 
REMARK       I    between atoms: N_5  and  C_6 
REMARK    2  A    between atoms: C_6  and  C_7 
REMARK    3  A    between atoms: C_10  and  N_11 
REMARK       I    between atoms: N_11  and  C_12 
REMARK       I    between atoms: C_12  and  N_21 
REMARK    4  A    between atoms: N_21  and  CA_22 
REMARK    5  A    between atoms: CA_22  and  C_23 
REMARK    6  A    between atoms: CA_22  and  CB_25 
REMARK    7  A    between atoms: C_23  and  O_24 
REMARK    8  A    between atoms: CB_25  and  CG_26 
ROOT
HETATM    1  N   UNK A   0     -41.481  57.951 -51.647  1.00  0.00    -0.309 N 
HETATM    2  C   UNK A   0     -41.879  56.721 -51.175  1.00  0.00     0.321 C 
HETATM    3  O   UNK A   0     -42.920  56.134 -51.437  1.00  0.00    -0.247 OA
HETATM    4  H   UNK A   0     -40.772  58.410 -51.095  1.00  0.00     0.170 HD
ATOM      5  N   TRP A   1     -40.910  56.201 -50.344  1.00  0.00    -0.336 N 
ATOM      6  H   TRP A   1     -39.965  56.475 -50.588  1.00  0.00     0.164 HD
ENDROOT
BRANCH   1   7
HETATM    7  C   UNK A   0     -41.889  58.586 -52.832  1.00  0.00     0.036 A 
HETATM    8  C   UNK A   0     -41.876  57.964 -54.079  1.00  0.00     0.030 A 
HETATM    9  C   UNK A   0     -42.076  58.707 -55.251  1.00  0.00     0.019 A 
HETATM   10  C   UNK A   0     -42.323  60.084 -55.183  1.00  0.00     0.032 A 
HETATM   11  C   UNK A   0     -42.418  60.687 -53.922  1.00  0.00     0.019 A 
HETATM   12  C   UNK A   0     -42.201  59.946 -52.756  1.00  0.00     0.030 A 
BRANCH  10  13
HETATM   13  C   UNK A   0     -42.359  60.977 -56.388  1.00  0.00     0.256 C 
HETATM   14  N   UNK A   0     -41.750  60.498 -57.535  1.00  0.00    -0.323 N 
HETATM   15  H   UNK A   0     -41.550  59.511 -57.587  1.00  0.00     0.169 HD
HETATM   16  O   UNK A   0     -42.902  62.073 -56.278  1.00  0.00    -0.267 OA
BRANCH  14  17
HETATM   17  C   UNK A   0     -41.357  61.253 -58.662  1.00  0.00     0.035 A 
HETATM   18  C   UNK A   0     -40.356  62.227 -58.635  1.00  0.00     0.029 A 
HETATM   19  C   UNK A   0     -39.975  62.887 -59.807  1.00  0.00     0.002 A 
HETATM   20  C   UNK A   0     -40.590  62.579 -61.017  1.00  0.00     0.000 A 
HETATM   21  C   UNK A   0     -41.592  61.612 -61.056  1.00  0.00     0.002 A 
HETATM   22  C   UNK A   0     -41.972  60.951 -59.884  1.00  0.00     0.029 A 
ENDBRANCH  14  17
ENDBRANCH  10  13
ENDBRANCH   1   7
BRANCH   5  23
ATOM     23  CA  TRP A   1     -40.971  54.819 -49.871  1.00  0.00     0.114 C 
BRANCH  23  24
ATOM     24  C   TRP A   1     -40.998  54.808 -48.329  1.00  0.00     0.189 C 
BRANCH  24  25
ATOM     25  O   TRP A   1     -40.895  53.482 -47.809  1.00  0.00    -0.399 OA
ATOM     26  H   TRP A   1     -41.546  53.413 -47.088  1.00  0.00     0.209 HD
ENDBRANCH  24  25
ENDBRANCH  23  24
BRANCH  23  27
ATOM     27  CB  TRP A   1     -39.874  53.900 -50.466  1.00  0.00     0.068 C 
BRANCH  27  28
ATOM     28  CG  TRP A   1     -40.110  53.362 -51.850  1.00  0.00    -0.028 A 
ATOM     29  CD2 TRP A   1     -39.939  52.001 -52.275  1.00  0.00    -0.002 A 
ATOM     30  CE2 TRP A   1     -40.258  51.938 -53.632  1.00  0.00     0.042 A 
ATOM     31  CE3 TRP A   1     -39.536  50.813 -51.630  1.00  0.00     0.014 A 
ATOM     32  CZ2 TRP A   1     -40.211  50.747 -54.369  1.00  0.00     0.030 A 
ATOM     33  NE1 TRP A   1     -40.591  53.211 -54.025  1.00  0.00    -0.365 N 
ATOM     34  CH2 TRP A   1     -39.816  49.584 -53.702  1.00  0.00     0.002 A 
ATOM     35  CZ3 TRP A   1     -39.477  49.615 -52.353  1.00  0.00     0.001 A 
ATOM     36  HE1 TRP A   1     -40.860  53.466 -54.964  1.00  0.00     0.165 HD
ATOM     37  CD1 TRP A   1     -40.486  54.077 -52.971  1.00  0.00     0.096 A 
ENDBRANCH  27  28
ENDBRANCH  23  27
ENDBRANCH   5  23
TORSDOF 8
ENDMDL
MODEL 6
REMARK VINA RESULT:      -7.7      2.663      9.467
REMARK  8 active torsions:
REMARK  status: ('A' for Active; 'I' for Inactive)
REMARK    1  A    between atoms: C_4  and  N_5 
REMARK       I    between atoms: N_5  and  C_6 
REMARK    2  A    between atoms: C_6  and  C_7 
REMARK    3  A    between atoms: C_10  and  N_11 
REMARK       I    between atoms: N_11  and  C_12 
REMARK       I    between atoms: C_12  and  N_21 
REMARK    4  A    between atoms: N_21  and  CA_22 
REMARK    5  A    between atoms: CA_22  and  C_23 
REMARK    6  A    between atoms: CA_22  and  CB_25 
REMARK    7  A    between atoms: C_23  and  O_24 
REMARK    8  A    between atoms: CB_25  and  CG_26 
ROOT
HETATM    1  N   UNK A   0     -43.207  54.974 -54.199  1.00  0.00    -0.309 N 
HETATM    2  C   UNK A   0     -42.242  55.046 -53.220  1.00  0.00     0.321 C 
HETATM    3  O   UNK A   0     -41.153  55.599 -53.299  1.00  0.00    -0.247 OA
HETATM    4  H   UNK A   0     -43.879  54.231 -54.080  1.00  0.00     0.170 HD
ATOM      5  N   TRP A   1     -42.679  54.402 -52.082  1.00  0.00    -0.336 N 
ATOM      6  H   TRP A   1     -43.682  54.442 -51.943  1.00  0.00     0.164 HD
ENDROOT
BRANCH   1   7
HETATM    7  C   UNK A   0     -43.398  55.852 -55.278  1.00  0.00     0.036 A 
HETATM    8  C   UNK A   0     -42.892  55.619 -56.556  1.00  0.00     0.030 A 
HETATM    9  C   UNK A   0     -42.918  56.628 -57.530  1.00  0.00     0.019 A 
HETATM   10  C   UNK A   0     -43.480  57.878 -57.242  1.00  0.00     0.032 A 
HETATM   11  C   UNK A   0     -44.062  58.077 -55.982  1.00  0.00     0.019 A 
HETATM   12  C   UNK A   0     -44.019  57.074 -55.007  1.00  0.00     0.030 A 
BRANCH  10  13
HETATM   13  C   UNK A   0     -43.378  59.061 -58.158  1.00  0.00     0.256 C 
HETATM   14  N   UNK A   0     -42.262  59.120 -58.975  1.00  0.00    -0.323 N 
HETATM   15  H   UNK A   0     -41.726  58.275 -59.104  1.00  0.00     0.169 HD
HETATM   16  O   UNK A   0     -44.268  59.905 -58.112  1.00  0.00    -0.267 OA
BRANCH  14  17
HETATM   17  C   UNK A   0     -41.770  60.255 -59.655  1.00  0.00     0.035 A 
HETATM   18  C   UNK A   0     -41.893  60.451 -61.032  1.00  0.00     0.029 A 
HETATM   19  C   UNK A   0     -41.440  61.633 -61.626  1.00  0.00     0.002 A 
HETATM   20  C   UNK A   0     -40.861  62.631 -60.848  1.00  0.00     0.000 A 
HETATM   21  C   UNK A   0     -40.730  62.446 -59.474  1.00  0.00     0.002 A 
HETATM   22  C   UNK A   0     -41.184  61.264 -58.880  1.00  0.00     0.029 A 
ENDBRANCH  14  17
ENDBRANCH  10  13
ENDBRANCH   1   7
BRANCH   5  23
ATOM     23  CA  TRP A   1     -41.949  54.503 -50.820  1.00  0.00     0.114 C 
BRANCH  23  24
ATOM     24  C   TRP A   1     -42.105  55.928 -50.252  1.00  0.00     0.189 C 
BRANCH  24  25
ATOM     25  O   TRP A   1     -43.395  56.472 -50.536  1.00  0.00    -0.399 OA
ATOM     26  H   TRP A   1     -44.037  55.753 -50.404  1.00  0.00     0.209 HD
ENDBRANCH  24  25
ENDBRANCH  23  24
BRANCH  23  27
ATOM     27  CB  TRP A   1     -40.472  54.044 -50.908  1.00  0.00     0.068 C 
BRANCH  27  28
ATOM     28  CG  TRP A   1     -40.223  52.567 -51.042  1.00  0.00    -0.028 A 
ATOM     29  CD2 TRP A   1     -40.022  51.845 -52.268  1.00  0.00    -0.002 A 
ATOM     30  CE2 TRP A   1     -39.834  50.502 -51.943  1.00  0.00     0.042 A 
ATOM     31  CE3 TRP A   1     -39.986  52.212 -53.630  1.00  0.00     0.014 A 
ATOM     32  CZ2 TRP A   1     -39.595  49.513 -52.906  1.00  0.00     0.030 A 
ATOM     33  NE1 TRP A   1     -39.936  50.402 -50.576  1.00  0.00    -0.365 N 
ATOM     34  CH2 TRP A   1     -39.558  49.905 -54.246  1.00  0.00     0.002 A 
ATOM     35  CZ3 TRP A   1     -39.756  51.235 -54.607  1.00  0.00     0.001 A 
ATOM     36  HE1 TRP A   1     -39.849  49.540 -50.059  1.00  0.00     0.165 HD
ATOM     37  CD1 TRP A   1     -40.190  51.630 -50.028  1.00  0.00     0.096 A 
ENDBRANCH  27  28
ENDBRANCH  23  27
ENDBRANCH   5  23
TORSDOF 8
ENDMDL
MODEL 7
REMARK VINA RESULT:      -7.7      5.729      8.519
REMARK  8 active torsions:
REMARK  status: ('A' for Active; 'I' for Inactive)
REMARK    1  A    between atoms: C_4  and  N_5 
REMARK       I    between atoms: N_5  and  C_6 
REMARK    2  A    between atoms: C_6  and  C_7 
REMARK    3  A    between atoms: C_10  and  N_11 
REMARK       I    between atoms: N_11  and  C_12 
REMARK       I    between atoms: C_12  and  N_21 
REMARK    4  A    between atoms: N_21  and  CA_22 
REMARK    5  A    between atoms: CA_22  and  C_23 
REMARK    6  A    between atoms: CA_22  and  CB_25 
REMARK    7  A    between atoms: C_23  and  O_24 
REMARK    8  A    between atoms: CB_25  and  CG_26 
ROOT
HETATM    1  N   UNK A   0     -45.250  59.835 -52.868  1.00  0.00    -0.309 N 
HETATM    2  C   UNK A   0     -46.009  60.279 -51.809  1.00  0.00     0.321 C 
HETATM    3  O   UNK A   0     -46.532  59.595 -50.940  1.00  0.00    -0.247 OA
HETATM    4  H   UNK A   0     -45.174  60.482 -53.638  1.00  0.00     0.170 HD
ATOM      5  N   TRP A   1     -46.099  61.655 -51.841  1.00  0.00    -0.336 N 
ATOM      6  H   TRP A   1     -45.285  62.114 -52.233  1.00  0.00     0.164 HD
ENDROOT
BRANCH   1   7
HETATM    7  C   UNK A   0     -44.521  58.638 -52.956  1.00  0.00     0.036 A 
HETATM    8  C   UNK A   0     -44.748  57.671 -53.935  1.00  0.00     0.030 A 
HETATM    9  C   UNK A   0     -44.153  56.405 -53.841  1.00  0.00     0.019 A 
HETATM   10  C   UNK A   0     -43.296  56.102 -52.776  1.00  0.00     0.032 A 
HETATM   11  C   UNK A   0     -43.007  57.105 -51.841  1.00  0.00     0.019 A 
HETATM   12  C   UNK A   0     -43.616  58.362 -51.928  1.00  0.00     0.030 A 
BRANCH  10  13
HETATM   13  C   UNK A   0     -42.773  54.722 -52.502  1.00  0.00     0.256 C 
HETATM   14  N   UNK A   0     -41.471  54.463 -52.892  1.00  0.00    -0.323 N 
HETATM   15  H   UNK A   0     -40.872  55.250 -53.092  1.00  0.00     0.169 HD
HETATM   16  O   UNK A   0     -43.531  53.912 -51.976  1.00  0.00    -0.267 OA
BRANCH  14  17
HETATM   17  C   UNK A   0     -40.875  53.193 -53.057  1.00  0.00     0.035 A 
HETATM   18  C   UNK A   0     -40.963  52.439 -54.229  1.00  0.00     0.029 A 
HETATM   19  C   UNK A   0     -40.289  51.219 -54.342  1.00  0.00     0.002 A 
HETATM   20  C   UNK A   0     -39.521  50.742 -53.284  1.00  0.00     0.000 A 
HETATM   21  C   UNK A   0     -39.428  51.484 -52.109  1.00  0.00     0.002 A 
HETATM   22  C   UNK A   0     -40.100  52.704 -51.997  1.00  0.00     0.029 A 
ENDBRANCH  14  17
ENDBRANCH  10  13
ENDBRANCH   1   7
BRANCH   5  23
ATOM     23  CA  TRP A   1     -46.665  62.408 -50.724  1.00  0.00     0.114 C 
BRANCH  23  24
ATOM     24  C   TRP A   1     -47.673  63.442 -51.263  1.00  0.00     0.189 C 
BRANCH  24  25
ATOM     25  O   TRP A   1     -48.671  63.763 -50.293  1.00  0.00    -0.399 OA
ATOM     26  H   TRP A   1     -49.256  62.988 -50.226  1.00  0.00     0.209 HD
ENDBRANCH  24  25
ENDBRANCH  23  24
BRANCH  23  27
ATOM     27  CB  TRP A   1     -45.602  63.031 -49.781  1.00  0.00     0.068 C 
BRANCH  27  28
ATOM     28  CG  TRP A   1     -45.366  62.339 -48.468  1.00  0.00    -0.028 A 
ATOM     29  CD2 TRP A   1     -45.215  62.972 -47.187  1.00  0.00    -0.002 A 
ATOM     30  CE2 TRP A   1     -45.006  61.969 -46.241  1.00  0.00     0.042 A 
ATOM     31  CE3 TRP A   1     -45.232  64.312 -46.745  1.00  0.00     0.014 A 
ATOM     32  CZ2 TRP A   1     -44.832  62.236 -44.876  1.00  0.00     0.030 A 
ATOM     33  NE1 TRP A   1     -45.009  60.773 -46.917  1.00  0.00    -0.365 N 
ATOM     34  CH2 TRP A   1     -44.862  63.571 -44.465  1.00  0.00     0.002 A 
ATOM     35  CZ3 TRP A   1     -45.053  64.597 -45.386  1.00  0.00     0.001 A 
ATOM     36  HE1 TRP A   1     -44.873  59.872 -46.482  1.00  0.00     0.165 HD
ATOM     37  CD1 TRP A   1     -45.203  60.984 -48.254  1.00  0.00     0.096 A 
ENDBRANCH  27  28
ENDBRANCH  23  27
ENDBRANCH   5  23
TORSDOF 8
ENDMDL
MODEL 8
REMARK VINA RESULT:      -7.7      2.146      2.707
REMARK  8 active torsions:
REMARK  status: ('A' for Active; 'I' for Inactive)
REMARK    1  A    between atoms: C_4  and  N_5 
REMARK       I    between atoms: N_5  and  C_6 
REMARK    2  A    between atoms: C_6  and  C_7 
REMARK    3  A    between atoms: C_10  and  N_11 
REMARK       I    between atoms: N_11  and  C_12 
REMARK       I    between atoms: C_12  and  N_21 
REMARK    4  A    between atoms: N_21  and  CA_22 
REMARK    5  A    between atoms: CA_22  and  C_23 
REMARK    6  A    between atoms: CA_22  and  CB_25 
REMARK    7  A    between atoms: C_23  and  O_24 
REMARK    8  A    between atoms: CB_25  and  CG_26 
ROOT
HETATM    1  N   UNK A   0     -43.694  59.076 -56.220  1.00  0.00    -0.309 N 
HETATM    2  C   UNK A   0     -43.126  59.963 -57.107  1.00  0.00     0.321 C 
HETATM    3  O   UNK A   0     -41.932  60.145 -57.303  1.00  0.00    -0.247 OA
HETATM    4  H   UNK A   0     -44.647  59.282 -55.965  1.00  0.00     0.170 HD
ATOM      5  N   TRP A   1     -44.113  60.642 -57.789  1.00  0.00    -0.336 N 
ATOM      6  H   TRP A   1     -44.960  60.105 -57.934  1.00  0.00     0.164 HD
ENDROOT
BRANCH   1   7
HETATM    7  C   UNK A   0     -43.126  57.899 -55.707  1.00  0.00     0.036 A 
HETATM    8  C   UNK A   0     -42.401  57.853 -54.516  1.00  0.00     0.030 A 
HETATM    9  C   UNK A   0     -41.671  56.708 -54.169  1.00  0.00     0.019 A 
HETATM   10  C   UNK A   0     -41.682  55.580 -54.999  1.00  0.00     0.032 A 
HETATM   11  C   UNK A   0     -42.480  55.603 -56.151  1.00  0.00     0.019 A 
HETATM   12  C   UNK A   0     -43.194  56.754 -56.503  1.00  0.00     0.030 A 
BRANCH  10  13
HETATM   13  C   UNK A   0     -40.785  54.395 -54.796  1.00  0.00     0.256 C 
HETATM   14  N   UNK A   0     -41.339  53.298 -54.158  1.00  0.00    -0.323 N 
HETATM   15  H   UNK A   0     -42.345  53.245 -54.098  1.00  0.00     0.169 HD
HETATM   16  O   UNK A   0     -39.623  54.477 -55.184  1.00  0.00    -0.267 OA
BRANCH  14  17
HETATM   17  C   UNK A   0     -40.641  52.227 -53.559  1.00  0.00     0.035 A 
HETATM   18  C   UNK A   0     -40.168  52.245 -52.245  1.00  0.00     0.029 A 
HETATM   19  C   UNK A   0     -39.543  51.119 -51.699  1.00  0.00     0.002 A 
HETATM   20  C   UNK A   0     -39.387  49.965 -52.461  1.00  0.00     0.000 A 
HETATM   21  C   UNK A   0     -39.852  49.936 -53.774  1.00  0.00     0.002 A 
HETATM   22  C   UNK A   0     -40.477  51.061 -54.319  1.00  0.00     0.029 A 
ENDBRANCH  14  17
ENDBRANCH  10  13
ENDBRANCH   1   7
BRANCH   5  23
ATOM     23  CA  TRP A   1     -43.802  61.490 -58.938  1.00  0.00     0.114 C 
BRANCH  23  24
ATOM     24  C   TRP A   1     -44.680  62.756 -58.892  1.00  0.00     0.189 C 
BRANCH  24  25
ATOM     25  O   TRP A   1     -45.557  62.833 -60.017  1.00  0.00    -0.399 OA
ATOM     26  H   TRP A   1     -46.039  63.675 -59.939  1.00  0.00     0.209 HD
ENDBRANCH  24  25
ENDBRANCH  23  24
BRANCH  23  27
ATOM     27  CB  TRP A   1     -43.869  60.754 -60.301  1.00  0.00     0.068 C 
BRANCH  27  28
ATOM     28  CG  TRP A   1     -43.343  59.346 -60.343  1.00  0.00    -0.028 A 
ATOM     29  CD2 TRP A   1     -44.104  58.146 -60.129  1.00  0.00    -0.002 A 
ATOM     30  CE2 TRP A   1     -43.232  57.064 -60.251  1.00  0.00     0.042 A 
ATOM     31  CE3 TRP A   1     -45.459  57.879 -59.840  1.00  0.00     0.014 A 
ATOM     32  CZ2 TRP A   1     -43.648  55.734 -60.114  1.00  0.00     0.030 A 
ATOM     33  NE1 TRP A   1     -41.985  57.581 -60.507  1.00  0.00    -0.365 N 
ATOM     34  CH2 TRP A   1     -44.996  55.498 -59.835  1.00  0.00     0.002 A 
ATOM     35  CZ3 TRP A   1     -45.891  56.555 -59.693  1.00  0.00     0.001 A 
ATOM     36  HE1 TRP A   1     -41.152  57.026 -60.636  1.00  0.00     0.165 HD
ATOM     37  CD1 TRP A   1     -42.036  58.948 -60.544  1.00  0.00     0.096 A 
ENDBRANCH  27  28
ENDBRANCH  23  27
ENDBRANCH   5  23
TORSDOF 8
ENDMDL
MODEL 9
REMARK VINA RESULT:      -7.5      2.348      9.494
REMARK  8 active torsions:
REMARK  status: ('A' for Active; 'I' for Inactive)
REMARK    1  A    between atoms: C_4  and  N_5 
REMARK       I    between atoms: N_5  and  C_6 
REMARK    2  A    between atoms: C_6  and  C_7 
REMARK    3  A    between atoms: C_10  and  N_11 
REMARK       I    between atoms: N_11  and  C_12 
REMARK       I    between atoms: C_12  and  N_21 
REMARK    4  A    between atoms: N_21  and  CA_22 
REMARK    5  A    between atoms: CA_22  and  C_23 
REMARK    6  A    between atoms: CA_22  and  CB_25 
REMARK    7  A    between atoms: C_23  and  O_24 
REMARK    8  A    between atoms: CB_25  and  CG_26 
ROOT
HETATM    1  N   UNK A   0     -42.434  57.731 -54.214  1.00  0.00    -0.309 N 
HETATM    2  C   UNK A   0     -42.782  56.641 -53.449  1.00  0.00     0.321 C 
HETATM    3  O   UNK A   0     -43.732  55.890 -53.627  1.00  0.00    -0.247 OA
HETATM    4  H   UNK A   0     -41.837  58.401 -53.753  1.00  0.00     0.170 HD
ATOM      5  N   TRP A   1     -41.879  56.482 -52.419  1.00  0.00    -0.336 N 
ATOM      6  H   TRP A   1     -40.939  56.784 -52.643  1.00  0.00     0.164 HD
ENDROOT
BRANCH   1   7
HETATM    7  C   UNK A   0     -42.749  57.966 -55.562  1.00  0.00     0.036 A 
HETATM    8  C   UNK A   0     -42.999  59.235 -56.082  1.00  0.00     0.030 A 
HETATM    9  C   UNK A   0     -43.526  59.388 -57.371  1.00  0.00     0.019 A 
HETATM   10  C   UNK A   0     -43.782  58.267 -58.171  1.00  0.00     0.032 A 
HETATM   11  C   UNK A   0     -43.450  56.999 -57.674  1.00  0.00     0.019 A 
HETATM   12  C   UNK A   0     -42.940  56.849 -56.380  1.00  0.00     0.030 A 
BRANCH  10  13
HETATM   13  C   UNK A   0     -44.516  58.333 -59.478  1.00  0.00     0.256 C 
HETATM   14  N   UNK A   0     -45.898  58.343 -59.414  1.00  0.00    -0.323 N 
HETATM   15  H   UNK A   0     -46.329  58.561 -58.528  1.00  0.00     0.169 HD
HETATM   16  O   UNK A   0     -43.853  58.353 -60.511  1.00  0.00    -0.267 OA
BRANCH  14  17
HETATM   17  C   UNK A   0     -46.795  58.064 -60.469  1.00  0.00     0.035 A 
HETATM   18  C   UNK A   0     -47.183  56.774 -60.839  1.00  0.00     0.029 A 
HETATM   19  C   UNK A   0     -48.128  56.579 -61.851  1.00  0.00     0.002 A 
HETATM   20  C   UNK A   0     -48.694  57.671 -62.501  1.00  0.00     0.000 A 
HETATM   21  C   UNK A   0     -48.313  58.962 -62.143  1.00  0.00     0.002 A 
HETATM   22  C   UNK A   0     -47.369  59.157 -61.130  1.00  0.00     0.029 A 
ENDBRANCH  14  17
ENDBRANCH  10  13
ENDBRANCH   1   7
BRANCH   5  23
ATOM     23  CA  TRP A   1     -41.882  55.286 -51.579  1.00  0.00     0.114 C 
BRANCH  23  24
ATOM     24  C   TRP A   1     -42.335  55.662 -50.155  1.00  0.00     0.189 C 
BRANCH  24  25
ATOM     25  O   TRP A   1     -41.532  56.707 -49.603  1.00  0.00    -0.399 OA
ATOM     26  H   TRP A   1     -41.115  57.165 -50.354  1.00  0.00     0.209 HD
ENDBRANCH  24  25
ENDBRANCH  23  24
BRANCH  23  27
ATOM     27  CB  TRP A   1     -40.548  54.496 -51.604  1.00  0.00     0.068 C 
BRANCH  27  28
ATOM     28  CG  TRP A   1     -40.407  53.427 -52.651  1.00  0.00    -0.028 A 
ATOM     29  CD2 TRP A   1     -40.071  52.049 -52.421  1.00  0.00    -0.002 A 
ATOM     30  CE2 TRP A   1     -40.038  51.408 -53.659  1.00  0.00     0.042 A 
ATOM     31  CE3 TRP A   1     -39.788  51.285 -51.269  1.00  0.00     0.014 A 
ATOM     32  CZ2 TRP A   1     -39.754  50.044 -53.802  1.00  0.00     0.030 A 
ATOM     33  NE1 TRP A   1     -40.321  52.359 -54.610  1.00  0.00    -0.365 N 
ATOM     34  CH2 TRP A   1     -39.485  49.310 -52.644  1.00  0.00     0.002 A 
ATOM     35  CZ3 TRP A   1     -39.495  49.922 -51.393  1.00  0.00     0.001 A 
ATOM     36  HE1 TRP A   1     -40.359  52.180 -55.603  1.00  0.00     0.165 HD
ATOM     37  CD1 TRP A   1     -40.523  53.576 -54.019  1.00  0.00     0.096 A 
ENDBRANCH  27  28
ENDBRANCH  23  27
ENDBRANCH   5  23
TORSDOF 8
ENDMDL
MODEL 10
REMARK VINA RESULT:      -7.5      3.389      9.887
REMARK  8 active torsions:
REMARK  status: ('A' for Active; 'I' for Inactive)
REMARK    1  A    between atoms: C_4  and  N_5 
REMARK       I    between atoms: N_5  and  C_6 
REMARK    2  A    between atoms: C_6  and  C_7 
REMARK    3  A    between atoms: C_10  and  N_11 
REMARK       I    between atoms: N_11  and  C_12 
REMARK       I    between atoms: C_12  and  N_21 
REMARK    4  A    between atoms: N_21  and  CA_22 
REMARK    5  A    between atoms: CA_22  and  C_23 
REMARK    6  A    between atoms: CA_22  and  CB_25 
REMARK    7  A    between atoms: C_23  and  O_24 
REMARK    8  A    between atoms: CB_25  and  CG_26 
ROOT
HETATM    1  N   UNK A   0     -43.405  55.736 -56.563  1.00  0.00    -0.309 N 
HETATM    2  C   UNK A   0     -42.586  55.509 -55.481  1.00  0.00     0.321 C 
HETATM    3  O   UNK A   0     -41.394  55.771 -55.392  1.00  0.00    -0.247 OA
HETATM    4  H   UNK A   0     -44.248  55.183 -56.582  1.00  0.00     0.170 HD
ATOM      5  N   TRP A   1     -43.310  54.937 -54.456  1.00  0.00    -0.336 N 
ATOM      6  H   TRP A   1     -44.281  55.223 -54.426  1.00  0.00     0.164 HD
ENDROOT
BRANCH   1   7
HETATM    7  C   UNK A   0     -43.235  56.690 -57.579  1.00  0.00     0.036 A 
HETATM    8  C   UNK A   0     -42.906  56.362 -58.894  1.00  0.00     0.030 A 
HETATM    9  C   UNK A   0     -42.529  57.357 -59.806  1.00  0.00     0.019 A 
HETATM   10  C   UNK A   0     -42.506  58.702 -59.419  1.00  0.00     0.032 A 
HETATM   11  C   UNK A   0     -42.919  59.034 -58.121  1.00  0.00     0.019 A 
HETATM   12  C   UNK A   0     -43.278  58.037 -57.208  1.00  0.00     0.030 A 
BRANCH  10  13
HETATM   13  C   UNK A   0     -41.938  59.799 -60.271  1.00  0.00     0.256 C 
HETATM   14  N   UNK A   0     -41.752  61.027 -59.661  1.00  0.00    -0.323 N 
HETATM   15  H   UNK A   0     -41.756  61.059 -58.652  1.00  0.00     0.169 HD
HETATM   16  O   UNK A   0     -41.696  59.548 -61.448  1.00  0.00    -0.267 OA
BRANCH  14  17
HETATM   17  C   UNK A   0     -41.562  62.270 -60.303  1.00  0.00     0.035 A 
HETATM   18  C   UNK A   0     -42.596  63.167 -60.582  1.00  0.00     0.029 A 
HETATM   19  C   UNK A   0     -42.323  64.410 -61.160  1.00  0.00     0.002 A 
HETATM   20  C   UNK A   0     -41.013  64.768 -61.465  1.00  0.00     0.000 A 
HETATM   21  C   UNK A   0     -39.974  63.881 -61.195  1.00  0.00     0.002 A 
HETATM   22  C   UNK A   0     -40.248  62.639 -60.615  1.00  0.00     0.029 A 
ENDBRANCH  14  17
ENDBRANCH  10  13
ENDBRANCH   1   7
BRANCH   5  23
ATOM     23  CA  TRP A   1     -42.745  54.783 -53.116  1.00  0.00     0.114 C 
BRANCH  23  24
ATOM     24  C   TRP A   1     -43.203  55.958 -52.230  1.00  0.00     0.189 C 
BRANCH  24  25
ATOM     25  O   TRP A   1     -44.439  56.512 -52.683  1.00  0.00    -0.399 OA
ATOM     26  H   TRP A   1     -45.084  55.783 -52.697  1.00  0.00     0.209 HD
ENDBRANCH  24  25
ENDBRANCH  23  24
BRANCH  23  27
ATOM     27  CB  TRP A   1     -41.209  54.573 -53.101  1.00  0.00     0.068 C 
BRANCH  27  28
ATOM     28  CG  TRP A   1     -40.688  53.401 -52.316  1.00  0.00    -0.028 A 
ATOM     29  CD2 TRP A   1     -40.318  52.118 -52.846  1.00  0.00    -0.002 A 
ATOM     30  CE2 TRP A   1     -39.896  51.325 -51.780  1.00  0.00     0.042 A 
ATOM     31  CE3 TRP A   1     -40.306  51.556 -54.140  1.00  0.00     0.014 A 
ATOM     32  CZ2 TRP A   1     -39.448  50.008 -51.942  1.00  0.00     0.030 A 
ATOM     33  NE1 TRP A   1     -40.022  52.084 -50.641  1.00  0.00    -0.365 N 
ATOM     34  CH2 TRP A   1     -39.439  49.479 -53.235  1.00  0.00     0.002 A 
ATOM     35  CZ3 TRP A   1     -39.868  50.238 -54.321  1.00  0.00     0.001 A 
ATOM     36  HE1 TRP A   1     -39.794  51.761 -49.712  1.00  0.00     0.165 HD
ATOM     37  CD1 TRP A   1     -40.516  53.322 -50.948  1.00  0.00     0.096 A 
ENDBRANCH  27  28
ENDBRANCH  23  27
ENDBRANCH   5  23
TORSDOF 8
ENDMDL
