MODEL 1
REMARK VINA RESULT:      -8.1      0.000      0.000
REMARK  9 active torsions:
REMARK  status: ('A' for Active; 'I' for Inactive)
REMARK    1  A    between atoms: C_2  and  C_3 
REMARK    2  A    between atoms: C_3  and  N_4 
REMARK    3  A    between atoms: N_4  and  C_7 
REMARK    4  A    between atoms: C_12  and  N_13 
REMARK       I    between atoms: N_13  and  C_14 
REMARK    5  A    between atoms: C_14  and  C_16 
REMARK    6  A    between atoms: C_20  and  C_22 
REMARK    7  A    between atoms: C_22  and  N_24 
REMARK       I    between atoms: N_24  and  C_25 
REMARK    8  A    between atoms: C_25  and  C_27 
REMARK    9  A    between atoms: C_30  and  O_31 
ROOT
HETATM    1  C   UNL     1     -40.689  53.500 -53.685  1.00  0.00     0.033 A 
HETATM    2  C   UNL     1     -40.028  52.265 -53.670  1.00  0.00     0.017 A 
HETATM    3  C   UNL     1     -39.678  51.665 -52.463  1.00  0.00     0.002 A 
HETATM    4  C   UNL     1     -39.996  52.287 -51.256  1.00  0.00     0.009 A 
HETATM    5  C   UNL     1     -40.688  53.508 -51.240  1.00  0.00    -0.035 A 
HETATM    6  C   UNL     1     -41.022  54.112 -52.469  1.00  0.00     0.026 A 
ENDROOT
BRANCH   1   7
HETATM    7  C   UNL     1     -41.039  54.087 -55.013  1.00  0.00     0.257 C 
HETATM    8  N   UNL     1     -42.246  54.752 -55.087  1.00  0.00    -0.301 N 
HETATM    9  H   UNL     1     -42.831  54.882 -54.275  1.00  0.00     0.171 HD
HETATM   10  O   UNL     1     -40.229  53.955 -55.925  1.00  0.00    -0.267 OA
BRANCH   8  11
HETATM   11  C   UNL     1     -42.666  55.328 -56.255  1.00  0.00     0.174 A 
HETATM   12  N   UNL     1     -43.175  54.759 -57.320  1.00  0.00    -0.228 NA
HETATM   13  C   UNL     1     -43.448  55.706 -58.267  1.00  0.00     0.050 A 
HETATM   14  C   UNL     1     -44.035  55.323 -59.578  1.00  0.00     0.062 C 
HETATM   15  C   UNL     1     -43.176  57.005 -57.896  1.00  0.00     0.013 A 
HETATM   16  C   UNL     1     -43.930  56.479 -60.586  1.00  0.00     0.039 C 
HETATM   17  C   UNL     1     -44.332  57.825 -59.942  1.00  0.00     0.191 C 
HETATM   18  C   UNL     1     -43.398  58.201 -58.755  1.00  0.00     0.081 C 
HETATM   19  S   UNL     1     -42.507  57.036 -56.327  1.00  0.00    -0.055 SA
BRANCH  17  20
HETATM   20  N   UNL     1     -44.278  58.928 -60.978  1.00  0.00    -0.071 N 
HETATM   21  H   UNL     1     -45.159  58.944 -61.513  1.00  0.00     0.277 HD
HETATM   22  H   UNL     1     -43.541  58.702 -61.662  1.00  0.00     0.277 HD
BRANCH  20  23
HETATM   23  C   UNL     1     -43.999  60.304 -60.446  1.00  0.00     0.232 C 
BRANCH  23  24
HETATM   24  C   UNL     1     -42.899  60.945 -61.281  1.00  0.00     0.023 C 
HETATM   25  C   UNL     1     -41.615  61.084 -60.478  1.00  0.00     0.007 C 
ENDBRANCH  23  24
ENDBRANCH  20  23
ENDBRANCH  17  20
ENDBRANCH   8  11
ENDBRANCH   1   7
BRANCH   5  26
HETATM   26  C   UNL     1     -41.041  54.219 -49.943  1.00  0.00     0.114 C 
HETATM   27  C   UNL     1     -39.930  54.162 -48.894  1.00  0.00     0.037 C 
BRANCH  26  28
HETATM   28  N   UNL     1     -41.403  55.596 -50.226  1.00  0.00    -0.349 N 
HETATM   29  C   UNL     1     -42.688  55.960 -50.564  1.00  0.00     0.252 C 
HETATM   30  O   UNL     1     -43.639  55.186 -50.585  1.00  0.00    -0.268 OA
HETATM   31  H   UNL     1     -40.660  56.281 -50.249  1.00  0.00     0.163 HD
BRANCH  29  32
HETATM   32  C   UNL     1     -42.890  57.397 -50.879  1.00  0.00     0.033 A 
HETATM   33  C   UNL     1     -41.780  58.247 -50.865  1.00  0.00     0.020 A 
HETATM   34  C   UNL     1     -41.925  59.606 -51.174  1.00  0.00     0.039 A 
HETATM   35  C   UNL     1     -43.183  60.130 -51.487  1.00  0.00     0.089 A 
HETATM   36  C   UNL     1     -44.295  59.269 -51.473  1.00  0.00     0.068 A 
HETATM   37 CL   UNL     1     -45.886  59.850 -51.829  1.00  0.00    -0.081 Cl
HETATM   38  C   UNL     1     -44.155  57.912 -51.170  1.00  0.00     0.043 A 
BRANCH  35  39
HETATM   39  O   UNL     1     -43.420  61.441 -51.802  1.00  0.00    -0.354 OA
HETATM   40  C   UNL     1     -43.093  61.880 -53.114  1.00  0.00     0.210 C 
ENDBRANCH  35  39
ENDBRANCH  29  32
ENDBRANCH  26  28
ENDBRANCH   5  26
TORSDOF 9
ENDMDL
MODEL 2
REMARK VINA RESULT:      -8.1      4.441      9.840
REMARK  9 active torsions:
REMARK  status: ('A' for Active; 'I' for Inactive)
REMARK    1  A    between atoms: C_2  and  C_3 
REMARK    2  A    between atoms: C_3  and  N_4 
REMARK    3  A    between atoms: N_4  and  C_7 
REMARK    4  A    between atoms: C_12  and  N_13 
REMARK       I    between atoms: N_13  and  C_14 
REMARK    5  A    between atoms: C_14  and  C_16 
REMARK    6  A    between atoms: C_20  and  C_22 
REMARK    7  A    between atoms: C_22  and  N_24 
REMARK       I    between atoms: N_24  and  C_25 
REMARK    8  A    between atoms: C_25  and  C_27 
REMARK    9  A    between atoms: C_30  and  O_31 
ROOT
HETATM    1  C   UNL     1     -42.533  59.453 -54.958  1.00  0.00     0.033 A 
HETATM    2  C   UNL     1     -42.067  60.299 -55.973  1.00  0.00     0.017 A 
HETATM    3  C   UNL     1     -41.896  59.820 -57.270  1.00  0.00     0.002 A 
HETATM    4  C   UNL     1     -42.200  58.492 -57.570  1.00  0.00     0.009 A 
HETATM    5  C   UNL     1     -42.701  57.631 -56.581  1.00  0.00    -0.035 A 
HETATM    6  C   UNL     1     -42.854  58.125 -55.270  1.00  0.00     0.026 A 
ENDROOT
BRANCH   1   7
HETATM    7  C   UNL     1     -42.698  60.030 -53.590  1.00  0.00     0.257 C 
HETATM    8  N   UNL     1     -43.991  60.313 -53.199  1.00  0.00    -0.301 N 
HETATM    9  H   UNL     1     -44.782  60.089 -53.783  1.00  0.00     0.171 HD
HETATM   10  O   UNL     1     -41.686  60.190 -52.916  1.00  0.00    -0.267 OA
BRANCH   8  11
HETATM   11  C   UNL     1     -44.256  60.845 -51.966  1.00  0.00     0.174 A 
HETATM   12  N   UNL     1     -44.127  62.082 -51.556  1.00  0.00    -0.228 NA
HETATM   13  C   UNL     1     -44.495  62.177 -50.243  1.00  0.00     0.050 A 
HETATM   14  C   UNL     1     -44.440  63.480 -49.530  1.00  0.00     0.062 C 
HETATM   15  C   UNL     1     -44.942  61.005 -49.671  1.00  0.00     0.013 A 
HETATM   16  C   UNL     1     -44.561  63.281 -48.010  1.00  0.00     0.039 C 
HETATM   17  C   UNL     1     -45.681  62.275 -47.663  1.00  0.00     0.191 C 
HETATM   18  C   UNL     1     -45.401  60.866 -48.262  1.00  0.00     0.081 C 
HETATM   19  S   UNL     1     -44.848  59.731 -50.802  1.00  0.00    -0.055 SA
BRANCH  17  20
HETATM   20  N   UNL     1     -45.815  62.152 -46.160  1.00  0.00    -0.071 N 
HETATM   21  H   UNL     1     -46.771  61.852 -45.920  1.00  0.00     0.277 HD
HETATM   22  H   UNL     1     -45.704  63.087 -45.742  1.00  0.00     0.277 HD
BRANCH  20  23
HETATM   23  C   UNL     1     -44.830  61.236 -45.493  1.00  0.00     0.232 C 
BRANCH  23  24
HETATM   24  C   UNL     1     -44.392  61.854 -44.172  1.00  0.00     0.023 C 
HETATM   25  C   UNL     1     -44.614  63.359 -44.174  1.00  0.00     0.007 C 
ENDBRANCH  23  24
ENDBRANCH  20  23
ENDBRANCH  17  20
ENDBRANCH   8  11
ENDBRANCH   1   7
BRANCH   5  26
HETATM   26  C   UNL     1     -43.033  56.176 -56.870  1.00  0.00     0.114 C 
HETATM   27  C   UNL     1     -42.879  55.796 -58.344  1.00  0.00     0.037 C 
BRANCH  26  28
HETATM   28  N   UNL     1     -42.215  55.314 -56.036  1.00  0.00    -0.349 N 
HETATM   29  C   UNL     1     -42.758  54.531 -55.041  1.00  0.00     0.252 C 
HETATM   30  O   UNL     1     -43.961  54.434 -54.821  1.00  0.00    -0.268 OA
HETATM   31  H   UNL     1     -41.213  55.366 -56.149  1.00  0.00     0.163 HD
BRANCH  29  32
HETATM   32  C   UNL     1     -41.789  53.747 -54.235  1.00  0.00     0.033 A 
HETATM   33  C   UNL     1     -41.373  54.262 -53.003  1.00  0.00     0.020 A 
HETATM   34  C   UNL     1     -40.473  53.546 -52.203  1.00  0.00     0.039 A 
HETATM   35  C   UNL     1     -39.970  52.314 -52.634  1.00  0.00     0.089 A 
HETATM   36  C   UNL     1     -40.377  51.819 -53.885  1.00  0.00     0.068 A 
HETATM   37 CL   UNL     1     -39.781  50.312 -54.493  1.00  0.00    -0.081 Cl
HETATM   38  C   UNL     1     -41.278  52.528 -54.685  1.00  0.00     0.043 A 
BRANCH  35  39
HETATM   39  O   UNL     1     -39.090  51.545 -51.921  1.00  0.00    -0.354 OA
HETATM   40  C   UNL     1     -39.623  50.582 -51.022  1.00  0.00     0.210 C 
ENDBRANCH  35  39
ENDBRANCH  29  32
ENDBRANCH  26  28
ENDBRANCH   5  26
TORSDOF 9
ENDMDL
MODEL 3
REMARK VINA RESULT:      -8.0      3.226      9.486
REMARK  9 active torsions:
REMARK  status: ('A' for Active; 'I' for Inactive)
REMARK    1  A    between atoms: C_2  and  C_3 
REMARK    2  A    between atoms: C_3  and  N_4 
REMARK    3  A    between atoms: N_4  and  C_7 
REMARK    4  A    between atoms: C_12  and  N_13 
REMARK       I    between atoms: N_13  and  C_14 
REMARK    5  A    between atoms: C_14  and  C_16 
REMARK    6  A    between atoms: C_20  and  C_22 
REMARK    7  A    between atoms: C_22  and  N_24 
REMARK       I    between atoms: N_24  and  C_25 
REMARK    8  A    between atoms: C_25  and  C_27 
REMARK    9  A    between atoms: C_30  and  O_31 
ROOT
HETATM    1  C   UNL     1     -45.381  59.542 -52.310  1.00  0.00     0.033 A 
HETATM    2  C   UNL     1     -46.248  60.197 -51.426  1.00  0.00     0.017 A 
HETATM    3  C   UNL     1     -46.931  61.343 -51.825  1.00  0.00     0.002 A 
HETATM    4  C   UNL     1     -46.765  61.840 -53.117  1.00  0.00     0.009 A 
HETATM    5  C   UNL     1     -45.930  61.185 -54.035  1.00  0.00    -0.035 A 
HETATM    6  C   UNL     1     -45.232  60.036 -53.613  1.00  0.00     0.026 A 
ENDROOT
BRANCH   1   7
HETATM    7  C   UNL     1     -44.681  58.316 -51.820  1.00  0.00     0.257 C 
HETATM    8  N   UNL     1     -43.426  58.081 -52.343  1.00  0.00    -0.301 N 
HETATM    9  H   UNL     1     -42.985  58.731 -52.977  1.00  0.00     0.171 HD
HETATM   10  O   UNL     1     -45.257  57.628 -50.985  1.00  0.00    -0.267 OA
BRANCH   8  11
HETATM   11  C   UNL     1     -42.696  56.987 -51.965  1.00  0.00     0.174 A 
HETATM   12  N   UNL     1     -42.009  56.791 -50.867  1.00  0.00    -0.228 NA
HETATM   13  C   UNL     1     -41.421  55.558 -50.900  1.00  0.00     0.050 A 
HETATM   14  C   UNL     1     -40.580  55.086 -49.768  1.00  0.00     0.062 C 
HETATM   15  C   UNL     1     -41.698  54.803 -52.020  1.00  0.00     0.013 A 
HETATM   16  C   UNL     1     -39.760  53.849 -50.172  1.00  0.00     0.039 C 
HETATM   17  C   UNL     1     -40.624  52.831 -50.948  1.00  0.00     0.191 C 
HETATM   18  C   UNL     1     -41.178  53.432 -52.273  1.00  0.00     0.081 C 
HETATM   19  S   UNL     1     -42.688  55.690 -53.090  1.00  0.00    -0.055 SA
BRANCH  17  20
HETATM   20  N   UNL     1     -39.803  51.601 -51.273  1.00  0.00    -0.071 N 
HETATM   21  H   UNL     1     -40.299  50.758 -50.950  1.00  0.00     0.277 HD
HETATM   22  H   UNL     1     -38.929  51.635 -50.727  1.00  0.00     0.277 HD
BRANCH  20  23
HETATM   23  C   UNL     1     -39.431  51.430 -52.718  1.00  0.00     0.232 C 
BRANCH  23  24
HETATM   24  C   UNL     1     -39.635  49.975 -53.114  1.00  0.00     0.023 C 
HETATM   25  C   UNL     1     -39.834  49.840 -54.616  1.00  0.00     0.007 C 
ENDBRANCH  23  24
ENDBRANCH  20  23
ENDBRANCH  17  20
ENDBRANCH   8  11
ENDBRANCH   1   7
BRANCH   5  26
HETATM   26  C   UNL     1     -45.718  61.706 -55.447  1.00  0.00     0.114 C 
HETATM   27  C   UNL     1     -44.657  62.803 -55.542  1.00  0.00     0.037 C 
BRANCH  26  28
HETATM   28  N   UNL     1     -45.384  60.601 -56.328  1.00  0.00    -0.349 N 
HETATM   29  C   UNL     1     -46.277  60.111 -57.257  1.00  0.00     0.252 C 
HETATM   30  O   UNL     1     -47.382  60.597 -57.472  1.00  0.00    -0.268 OA
HETATM   31  H   UNL     1     -44.497  60.139 -56.186  1.00  0.00     0.163 HD
BRANCH  29  32
HETATM   32  C   UNL     1     -45.811  58.942 -58.046  1.00  0.00     0.033 A 
HETATM   33  C   UNL     1     -46.767  58.069 -58.573  1.00  0.00     0.020 A 
HETATM   34  C   UNL     1     -46.372  56.964 -59.338  1.00  0.00     0.039 A 
HETATM   35  C   UNL     1     -45.016  56.715 -59.572  1.00  0.00     0.089 A 
HETATM   36  C   UNL     1     -44.063  57.586 -59.015  1.00  0.00     0.068 A 
HETATM   37 CL   UNL     1     -42.367  57.331 -59.244  1.00  0.00    -0.081 Cl
HETATM   38  C   UNL     1     -44.454  58.693 -58.255  1.00  0.00     0.043 A 
BRANCH  35  39
HETATM   39  O   UNL     1     -44.536  55.664 -60.306  1.00  0.00    -0.354 OA
HETATM   40  C   UNL     1     -45.016  54.362 -59.999  1.00  0.00     0.210 C 
ENDBRANCH  35  39
ENDBRANCH  29  32
ENDBRANCH  26  28
ENDBRANCH   5  26
TORSDOF 9
ENDMDL
MODEL 4
REMARK VINA RESULT:      -7.6      3.082      9.634
REMARK  9 active torsions:
REMARK  status: ('A' for Active; 'I' for Inactive)
REMARK    1  A    between atoms: C_2  and  C_3 
REMARK    2  A    between atoms: C_3  and  N_4 
REMARK    3  A    between atoms: N_4  and  C_7 
REMARK    4  A    between atoms: C_12  and  N_13 
REMARK       I    between atoms: N_13  and  C_14 
REMARK    5  A    between atoms: C_14  and  C_16 
REMARK    6  A    between atoms: C_20  and  C_22 
REMARK    7  A    between atoms: C_22  and  N_24 
REMARK       I    between atoms: N_24  and  C_25 
REMARK    8  A    between atoms: C_25  and  C_27 
REMARK    9  A    between atoms: C_30  and  O_31 
ROOT
HETATM    1  C   UNL     1     -42.684  60.739 -53.404  1.00  0.00     0.033 A 
HETATM    2  C   UNL     1     -43.221  61.621 -52.457  1.00  0.00     0.017 A 
HETATM    3  C   UNL     1     -43.913  62.760 -52.864  1.00  0.00     0.002 A 
HETATM    4  C   UNL     1     -44.086  63.024 -54.222  1.00  0.00     0.009 A 
HETATM    5  C   UNL     1     -43.588  62.141 -55.192  1.00  0.00    -0.035 A 
HETATM    6  C   UNL     1     -42.877  61.001 -54.767  1.00  0.00     0.026 A 
ENDROOT
BRANCH   1   7
HETATM    7  C   UNL     1     -41.956  59.535 -52.902  1.00  0.00     0.257 C 
HETATM    8  N   UNL     1     -42.729  58.424 -52.631  1.00  0.00    -0.301 N 
HETATM    9  H   UNL     1     -43.721  58.410 -52.817  1.00  0.00     0.171 HD
HETATM   10  O   UNL     1     -40.738  59.615 -52.786  1.00  0.00    -0.267 OA
BRANCH   8  11
HETATM   11  C   UNL     1     -42.166  57.267 -52.166  1.00  0.00     0.174 A 
HETATM   12  N   UNL     1     -41.681  57.004 -50.978  1.00  0.00    -0.228 NA
HETATM   13  C   UNL     1     -41.204  55.724 -50.943  1.00  0.00     0.050 A 
HETATM   14  C   UNL     1     -40.596  55.172 -49.704  1.00  0.00     0.062 C 
HETATM   15  C   UNL     1     -41.366  55.004 -52.107  1.00  0.00     0.013 A 
HETATM   16  C   UNL     1     -39.833  53.870 -49.998  1.00  0.00     0.039 C 
HETATM   17  C   UNL     1     -40.649  52.937 -50.921  1.00  0.00     0.191 C 
HETATM   18  C   UNL     1     -40.933  53.593 -52.303  1.00  0.00     0.081 C 
HETATM   19  S   UNL     1     -42.094  55.982 -53.301  1.00  0.00    -0.055 SA
BRANCH  17  20
HETATM   20  N   UNL     1     -39.897  51.641 -51.137  1.00  0.00    -0.071 N 
HETATM   21  H   UNL     1     -40.508  50.844 -50.909  1.00  0.00     0.277 HD
HETATM   22  H   UNL     1     -39.118  51.596 -50.464  1.00  0.00     0.277 HD
BRANCH  20  23
HETATM   23  C   UNL     1     -39.324  51.444 -52.511  1.00  0.00     0.232 C 
BRANCH  23  24
HETATM   24  C   UNL     1     -39.684  50.050 -53.004  1.00  0.00     0.023 C 
HETATM   25  C   UNL     1     -39.966  50.055 -54.499  1.00  0.00     0.007 C 
ENDBRANCH  23  24
ENDBRANCH  20  23
ENDBRANCH  17  20
ENDBRANCH   8  11
ENDBRANCH   1   7
BRANCH   5  26
HETATM   26  C   UNL     1     -43.750  62.403 -56.681  1.00  0.00     0.114 C 
HETATM   27  C   UNL     1     -42.679  63.331 -57.258  1.00  0.00     0.037 C 
BRANCH  26  28
HETATM   28  N   UNL     1     -43.768  61.141 -57.399  1.00  0.00    -0.349 N 
HETATM   29  C   UNL     1     -44.402  61.000 -58.614  1.00  0.00     0.252 C 
HETATM   30  O   UNL     1     -44.935  61.921 -59.223  1.00  0.00    -0.268 OA
HETATM   31  H   UNL     1     -43.367  60.335 -56.940  1.00  0.00     0.163 HD
BRANCH  29  32
HETATM   32  C   UNL     1     -44.382  59.635 -59.198  1.00  0.00     0.033 A 
HETATM   33  C   UNL     1     -43.151  59.082 -59.562  1.00  0.00     0.020 A 
HETATM   34  C   UNL     1     -43.086  57.790 -60.101  1.00  0.00     0.039 A 
HETATM   35  C   UNL     1     -44.254  57.044 -60.292  1.00  0.00     0.089 A 
HETATM   36  C   UNL     1     -45.488  57.622 -59.945  1.00  0.00     0.068 A 
HETATM   37 CL   UNL     1     -46.976  56.768 -60.172  1.00  0.00    -0.081 Cl
HETATM   38  C   UNL     1     -45.557  58.909 -59.403  1.00  0.00     0.043 A 
BRANCH  35  39
HETATM   39  O   UNL     1     -44.288  55.777 -60.809  1.00  0.00    -0.354 OA
HETATM   40  C   UNL     1     -44.264  54.686 -59.899  1.00  0.00     0.210 C 
ENDBRANCH  35  39
ENDBRANCH  29  32
ENDBRANCH  26  28
ENDBRANCH   5  26
TORSDOF 9
ENDMDL
MODEL 5
REMARK VINA RESULT:      -7.6      4.158      8.619
REMARK  9 active torsions:
REMARK  status: ('A' for Active; 'I' for Inactive)
REMARK    1  A    between atoms: C_2  and  C_3 
REMARK    2  A    between atoms: C_3  and  N_4 
REMARK    3  A    between atoms: N_4  and  C_7 
REMARK    4  A    between atoms: C_12  and  N_13 
REMARK       I    between atoms: N_13  and  C_14 
REMARK    5  A    between atoms: C_14  and  C_16 
REMARK    6  A    between atoms: C_20  and  C_22 
REMARK    7  A    between atoms: C_22  and  N_24 
REMARK       I    between atoms: N_24  and  C_25 
REMARK    8  A    between atoms: C_25  and  C_27 
REMARK    9  A    between atoms: C_30  and  O_31 
ROOT
HETATM    1  C   UNL     1     -42.581  60.718 -53.995  1.00  0.00     0.033 A 
HETATM    2  C   UNL     1     -42.783  60.927 -55.365  1.00  0.00     0.017 A 
HETATM    3  C   UNL     1     -43.439  62.070 -55.816  1.00  0.00     0.002 A 
HETATM    4  C   UNL     1     -43.890  63.023 -54.904  1.00  0.00     0.009 A 
HETATM    5  C   UNL     1     -43.671  62.856 -53.527  1.00  0.00    -0.035 A 
HETATM    6  C   UNL     1     -43.020  61.688 -53.083  1.00  0.00     0.026 A 
ENDROOT
BRANCH   1   7
HETATM    7  C   UNL     1     -41.868  59.473 -53.577  1.00  0.00     0.257 C 
HETATM    8  N   UNL     1     -42.665  58.404 -53.221  1.00  0.00    -0.301 N 
HETATM    9  H   UNL     1     -43.670  58.445 -53.294  1.00  0.00     0.171 HD
HETATM   10  O   UNL     1     -40.642  59.486 -53.598  1.00  0.00    -0.267 OA
BRANCH   8  11
HETATM   11  C   UNL     1     -42.117  57.216 -52.821  1.00  0.00     0.174 A 
HETATM   12  N   UNL     1     -41.765  56.831 -51.619  1.00  0.00    -0.228 NA
HETATM   13  C   UNL     1     -41.248  55.567 -51.669  1.00  0.00     0.050 A 
HETATM   14  C   UNL     1     -40.769  54.893 -50.433  1.00  0.00     0.062 C 
HETATM   15  C   UNL     1     -41.245  54.981 -52.916  1.00  0.00     0.013 A 
HETATM   16  C   UNL     1     -39.928  53.651 -50.776  1.00  0.00     0.039 C 
HETATM   17  C   UNL     1     -40.595  52.810 -51.886  1.00  0.00     0.191 C 
HETATM   18  C   UNL     1     -40.740  53.612 -53.213  1.00  0.00     0.081 C 
HETATM   19  S   UNL     1     -41.865  56.070 -54.074  1.00  0.00    -0.055 SA
BRANCH  17  20
HETATM   20  N   UNL     1     -39.775  51.566 -52.152  1.00  0.00    -0.071 N 
HETATM   21  H   UNL     1     -40.370  50.731 -52.055  1.00  0.00     0.277 HD
HETATM   22  H   UNL     1     -39.057  51.482 -51.418  1.00  0.00     0.277 HD
BRANCH  20  23
HETATM   23  C   UNL     1     -39.075  51.520 -53.480  1.00  0.00     0.232 C 
BRANCH  23  24
HETATM   24  C   UNL     1     -39.431  50.219 -54.185  1.00  0.00     0.023 C 
HETATM   25  C   UNL     1     -40.934  50.104 -54.392  1.00  0.00     0.007 C 
ENDBRANCH  23  24
ENDBRANCH  20  23
ENDBRANCH  17  20
ENDBRANCH   8  11
ENDBRANCH   1   7
BRANCH   5  26
HETATM   26  C   UNL     1     -44.158  63.870 -52.504  1.00  0.00     0.114 C 
HETATM   27  C   UNL     1     -45.273  64.778 -53.026  1.00  0.00     0.037 C 
BRANCH  26  28
HETATM   28  N   UNL     1     -44.588  63.180 -51.301  1.00  0.00    -0.349 N 
HETATM   29  C   UNL     1     -44.240  63.620 -50.043  1.00  0.00     0.252 C 
HETATM   30  O   UNL     1     -43.614  64.651 -49.823  1.00  0.00    -0.268 OA
HETATM   31  H   UNL     1     -45.087  62.308 -51.413  1.00  0.00     0.163 HD
BRANCH  29  32
HETATM   32  C   UNL     1     -44.707  62.777 -48.912  1.00  0.00     0.033 A 
HETATM   33  C   UNL     1     -45.105  61.463 -49.178  1.00  0.00     0.020 A 
HETATM   34  C   UNL     1     -45.535  60.629 -48.138  1.00  0.00     0.039 A 
HETATM   35  C   UNL     1     -45.584  61.106 -46.824  1.00  0.00     0.089 A 
HETATM   36  C   UNL     1     -45.205  62.437 -46.574  1.00  0.00     0.068 A 
HETATM   37 CL   UNL     1     -45.259  63.103 -44.977  1.00  0.00    -0.081 Cl
HETATM   38  C   UNL     1     -44.771  63.271 -47.608  1.00  0.00     0.043 A 
BRANCH  35  39
HETATM   39  O   UNL     1     -45.989  60.366 -45.746  1.00  0.00    -0.354 OA
HETATM   40  C   UNL     1     -46.683  59.151 -45.994  1.00  0.00     0.210 C 
ENDBRANCH  35  39
ENDBRANCH  29  32
ENDBRANCH  26  28
ENDBRANCH   5  26
TORSDOF 9
ENDMDL
MODEL 6
REMARK VINA RESULT:      -7.5      1.836      2.261
REMARK  9 active torsions:
REMARK  status: ('A' for Active; 'I' for Inactive)
REMARK    1  A    between atoms: C_2  and  C_3 
REMARK    2  A    between atoms: C_3  and  N_4 
REMARK    3  A    between atoms: N_4  and  C_7 
REMARK    4  A    between atoms: C_12  and  N_13 
REMARK       I    between atoms: N_13  and  C_14 
REMARK    5  A    between atoms: C_14  and  C_16 
REMARK    6  A    between atoms: C_20  and  C_22 
REMARK    7  A    between atoms: C_22  and  N_24 
REMARK       I    between atoms: N_24  and  C_25 
REMARK    8  A    between atoms: C_25  and  C_27 
REMARK    9  A    between atoms: C_30  and  O_31 
ROOT
HETATM    1  C   UNL     1     -41.694  53.755 -54.249  1.00  0.00     0.033 A 
HETATM    2  C   UNL     1     -40.989  52.578 -54.534  1.00  0.00     0.017 A 
HETATM    3  C   UNL     1     -40.175  51.990 -53.568  1.00  0.00     0.002 A 
HETATM    4  C   UNL     1     -40.066  52.565 -52.302  1.00  0.00     0.009 A 
HETATM    5  C   UNL     1     -40.788  53.725 -51.978  1.00  0.00    -0.035 A 
HETATM    6  C   UNL     1     -41.595  54.318 -52.970  1.00  0.00     0.026 A 
ENDROOT
BRANCH   1   7
HETATM    7  C   UNL     1     -42.550  54.332 -55.328  1.00  0.00     0.257 C 
HETATM    8  N   UNL     1     -42.268  55.631 -55.701  1.00  0.00    -0.301 N 
HETATM    9  H   UNL     1     -41.491  56.139 -55.307  1.00  0.00     0.171 HD
HETATM   10  O   UNL     1     -43.419  53.613 -55.810  1.00  0.00    -0.267 OA
BRANCH   8  11
HETATM   11  C   UNL     1     -42.991  56.259 -56.679  1.00  0.00     0.174 A 
HETATM   12  N   UNL     1     -42.971  56.065 -57.974  1.00  0.00    -0.228 NA
HETATM   13  C   UNL     1     -43.848  56.918 -58.585  1.00  0.00     0.050 A 
HETATM   14  C   UNL     1     -44.018  56.904 -60.062  1.00  0.00     0.062 C 
HETATM   15  C   UNL     1     -44.562  57.736 -57.736  1.00  0.00     0.013 A 
HETATM   16  C   UNL     1     -44.774  58.155 -60.540  1.00  0.00     0.039 C 
HETATM   17  C   UNL     1     -45.995  58.451 -59.640  1.00  0.00     0.191 C 
HETATM   18  C   UNL     1     -45.575  58.737 -58.169  1.00  0.00     0.081 C 
HETATM   19  S   UNL     1     -44.081  57.462 -56.122  1.00  0.00    -0.055 SA
BRANCH  17  20
HETATM   20  N   UNL     1     -46.751  59.648 -60.177  1.00  0.00    -0.071 N 
HETATM   21  H   UNL     1     -46.193  60.503 -60.036  1.00  0.00     0.277 HD
HETATM   22  H   UNL     1     -47.604  59.778 -59.613  1.00  0.00     0.277 HD
BRANCH  20  23
HETATM   23  C   UNL     1     -47.165  59.563 -61.617  1.00  0.00     0.232 C 
BRANCH  23  24
HETATM   24  C   UNL     1     -48.616  59.108 -61.690  1.00  0.00     0.023 C 
HETATM   25  C   UNL     1     -48.729  57.750 -62.367  1.00  0.00     0.007 C 
ENDBRANCH  23  24
ENDBRANCH  20  23
ENDBRANCH  17  20
ENDBRANCH   8  11
ENDBRANCH   1   7
BRANCH   5  26
HETATM   26  C   UNL     1     -40.685  54.383 -50.612  1.00  0.00     0.114 C 
HETATM   27  C   UNL     1     -39.334  54.167 -49.929  1.00  0.00     0.037 C 
BRANCH  26  28
HETATM   28  N   UNL     1     -40.972  55.802 -50.732  1.00  0.00    -0.349 N 
HETATM   29  C   UNL     1     -42.251  56.301 -50.621  1.00  0.00     0.252 C 
HETATM   30  O   UNL     1     -43.233  55.621 -50.345  1.00  0.00    -0.268 OA
HETATM   31  H   UNL     1     -40.209  56.414 -50.985  1.00  0.00     0.163 HD
BRANCH  29  32
HETATM   32  C   UNL     1     -42.392  57.765 -50.824  1.00  0.00     0.033 A 
HETATM   33  C   UNL     1     -41.345  58.600 -50.421  1.00  0.00     0.020 A 
HETATM   34  C   UNL     1     -41.431  59.985 -50.610  1.00  0.00     0.039 A 
HETATM   35  C   UNL     1     -42.570  60.550 -51.192  1.00  0.00     0.089 A 
HETATM   36  C   UNL     1     -43.626  59.703 -51.570  1.00  0.00     0.068 A 
HETATM   37 CL   UNL     1     -45.075  60.331 -52.278  1.00  0.00    -0.081 Cl
HETATM   38  C   UNL     1     -43.543  58.319 -51.387  1.00  0.00     0.043 A 
BRANCH  35  39
HETATM   39  O   UNL     1     -42.742  61.890 -51.417  1.00  0.00    -0.354 OA
HETATM   40  C   UNL     1     -43.134  62.705 -50.321  1.00  0.00     0.210 C 
ENDBRANCH  35  39
ENDBRANCH  29  32
ENDBRANCH  26  28
ENDBRANCH   5  26
TORSDOF 9
ENDMDL
MODEL 7
REMARK VINA RESULT:      -7.5      3.575      6.542
REMARK  9 active torsions:
REMARK  status: ('A' for Active; 'I' for Inactive)
REMARK    1  A    between atoms: C_2  and  C_3 
REMARK    2  A    between atoms: C_3  and  N_4 
REMARK    3  A    between atoms: N_4  and  C_7 
REMARK    4  A    between atoms: C_12  and  N_13 
REMARK       I    between atoms: N_13  and  C_14 
REMARK    5  A    between atoms: C_14  and  C_16 
REMARK    6  A    between atoms: C_20  and  C_22 
REMARK    7  A    between atoms: C_22  and  N_24 
REMARK       I    between atoms: N_24  and  C_25 
REMARK    8  A    between atoms: C_25  and  C_27 
REMARK    9  A    between atoms: C_30  and  O_31 
ROOT
HETATM    1  C   UNL     1     -42.535  58.877 -53.706  1.00  0.00     0.033 A 
HETATM    2  C   UNL     1     -41.365  59.581 -53.395  1.00  0.00     0.017 A 
HETATM    3  C   UNL     1     -40.615  59.244 -52.271  1.00  0.00     0.002 A 
HETATM    4  C   UNL     1     -41.020  58.191 -51.450  1.00  0.00     0.009 A 
HETATM    5  C   UNL     1     -42.170  57.447 -51.756  1.00  0.00    -0.035 A 
HETATM    6  C   UNL     1     -42.928  57.809 -52.888  1.00  0.00     0.026 A 
ENDROOT
BRANCH   1   7
HETATM    7  C   UNL     1     -43.292  59.287 -54.927  1.00  0.00     0.257 C 
HETATM    8  N   UNL     1     -44.121  58.332 -55.479  1.00  0.00    -0.301 N 
HETATM    9  H   UNL     1     -44.251  57.429 -55.049  1.00  0.00     0.171 HD
HETATM   10  O   UNL     1     -43.137  60.434 -55.333  1.00  0.00    -0.267 OA
BRANCH   8  11
HETATM   11  C   UNL     1     -44.860  58.599 -56.600  1.00  0.00     0.174 A 
HETATM   12  N   UNL     1     -45.871  59.419 -56.746  1.00  0.00    -0.228 NA
HETATM   13  C   UNL     1     -46.324  59.373 -58.035  1.00  0.00     0.050 A 
HETATM   14  C   UNL     1     -47.473  60.212 -58.467  1.00  0.00     0.062 C 
HETATM   15  C   UNL     1     -45.623  58.536 -58.876  1.00  0.00     0.013 A 
HETATM   16  C   UNL     1     -48.013  59.744 -59.829  1.00  0.00     0.039 C 
HETATM   17  C   UNL     1     -46.865  59.463 -60.823  1.00  0.00     0.191 C 
HETATM   18  C   UNL     1     -45.926  58.329 -60.318  1.00  0.00     0.081 C 
HETATM   19  S   UNL     1     -44.385  57.743 -58.010  1.00  0.00    -0.055 SA
BRANCH  17  20
HETATM   20  N   UNL     1     -47.434  59.067 -62.168  1.00  0.00    -0.071 N 
HETATM   21  H   UNL     1     -47.209  58.081 -62.364  1.00  0.00     0.277 HD
HETATM   22  H   UNL     1     -46.956  59.612 -62.901  1.00  0.00     0.277 HD
BRANCH  20  23
HETATM   23  C   UNL     1     -48.911  59.278 -62.336  1.00  0.00     0.232 C 
BRANCH  23  24
HETATM   24  C   UNL     1     -49.583  57.930 -62.557  1.00  0.00     0.023 C 
HETATM   25  C   UNL     1     -48.551  56.820 -62.689  1.00  0.00     0.007 C 
ENDBRANCH  23  24
ENDBRANCH  20  23
ENDBRANCH  17  20
ENDBRANCH   8  11
ENDBRANCH   1   7
BRANCH   5  26
HETATM   26  C   UNL     1     -42.646  56.301 -50.878  1.00  0.00     0.114 C 
HETATM   27  C   UNL     1     -44.166  56.241 -50.724  1.00  0.00     0.037 C 
BRANCH  26  28
HETATM   28  N   UNL     1     -42.139  55.044 -51.401  1.00  0.00    -0.349 N 
HETATM   29  C   UNL     1     -40.964  54.486 -50.949  1.00  0.00     0.252 C 
HETATM   30  O   UNL     1     -40.290  54.947 -50.034  1.00  0.00    -0.268 OA
HETATM   31  H   UNL     1     -42.635  54.625 -52.175  1.00  0.00     0.163 HD
BRANCH  29  32
HETATM   32  C   UNL     1     -40.547  53.228 -51.619  1.00  0.00     0.033 A 
HETATM   33  C   UNL     1     -40.608  53.162 -53.014  1.00  0.00     0.020 A 
HETATM   34  C   UNL     1     -40.207  52.001 -53.687  1.00  0.00     0.039 A 
HETATM   35  C   UNL     1     -39.754  50.889 -52.970  1.00  0.00     0.089 A 
HETATM   36  C   UNL     1     -39.722  50.959 -51.566  1.00  0.00     0.068 A 
HETATM   37 CL   UNL     1     -39.193  49.616 -50.611  1.00  0.00    -0.081 Cl
HETATM   38  C   UNL     1     -40.116  52.118 -50.891  1.00  0.00     0.043 A 
BRANCH  35  39
HETATM   39  O   UNL     1     -39.342  49.714 -53.540  1.00  0.00    -0.354 OA
HETATM   40  C   UNL     1     -39.624  49.508 -54.918  1.00  0.00     0.210 C 
ENDBRANCH  35  39
ENDBRANCH  29  32
ENDBRANCH  26  28
ENDBRANCH   5  26
TORSDOF 9
ENDMDL
MODEL 8
REMARK VINA RESULT:      -7.0     17.243     19.881
REMARK  9 active torsions:
REMARK  status: ('A' for Active; 'I' for Inactive)
REMARK    1  A    between atoms: C_2  and  C_3 
REMARK    2  A    between atoms: C_3  and  N_4 
REMARK    3  A    between atoms: N_4  and  C_7 
REMARK    4  A    between atoms: C_12  and  N_13 
REMARK       I    between atoms: N_13  and  C_14 
REMARK    5  A    between atoms: C_14  and  C_16 
REMARK    6  A    between atoms: C_20  and  C_22 
REMARK    7  A    between atoms: C_22  and  N_24 
REMARK       I    between atoms: N_24  and  C_25 
REMARK    8  A    between atoms: C_25  and  C_27 
REMARK    9  A    between atoms: C_30  and  O_31 
ROOT
HETATM    1  C   UNL     1     -34.993  40.417 -52.761  1.00  0.00     0.033 A 
HETATM    2  C   UNL     1     -34.938  41.668 -52.134  1.00  0.00     0.017 A 
HETATM    3  C   UNL     1     -34.293  41.817 -50.909  1.00  0.00     0.002 A 
HETATM    4  C   UNL     1     -33.684  40.719 -50.302  1.00  0.00     0.009 A 
HETATM    5  C   UNL     1     -33.695  39.461 -50.923  1.00  0.00    -0.035 A 
HETATM    6  C   UNL     1     -34.365  39.321 -52.155  1.00  0.00     0.026 A 
ENDROOT
BRANCH   1   7
HETATM    7  C   UNL     1     -35.698  40.326 -54.075  1.00  0.00     0.257 C 
HETATM    8  N   UNL     1     -34.928  40.555 -55.197  1.00  0.00    -0.301 N 
HETATM    9  H   UNL     1     -33.935  40.719 -55.135  1.00  0.00     0.171 HD
HETATM   10  O   UNL     1     -36.890  40.038 -54.062  1.00  0.00    -0.267 OA
BRANCH   8  11
HETATM   11  C   UNL     1     -35.472  40.498 -56.452  1.00  0.00     0.174 A 
HETATM   12  N   UNL     1     -36.025  41.454 -57.156  1.00  0.00    -0.228 NA
HETATM   13  C   UNL     1     -36.448  40.960 -58.359  1.00  0.00     0.050 A 
HETATM   14  C   UNL     1     -37.115  41.843 -59.351  1.00  0.00     0.062 C 
HETATM   15  C   UNL     1     -36.176  39.626 -58.575  1.00  0.00     0.013 A 
HETATM   16  C   UNL     1     -37.800  41.015 -60.451  1.00  0.00     0.039 C 
HETATM   17  C   UNL     1     -36.883  39.875 -60.948  1.00  0.00     0.191 C 
HETATM   18  C   UNL     1     -36.533  38.874 -59.809  1.00  0.00     0.081 C 
HETATM   19  S   UNL     1     -35.410  38.957 -57.205  1.00  0.00    -0.055 SA
BRANCH  17  20
HETATM   20  N   UNL     1     -37.562  39.121 -62.072  1.00  0.00    -0.071 N 
HETATM   21  H   UNL     1     -36.908  39.011 -62.861  1.00  0.00     0.277 HD
HETATM   22  H   UNL     1     -38.337  39.697 -62.433  1.00  0.00     0.277 HD
BRANCH  20  23
HETATM   23  C   UNL     1     -38.124  37.777 -61.708  1.00  0.00     0.232 C 
BRANCH  23  24
HETATM   24  C   UNL     1     -39.643  37.838 -61.781  1.00  0.00     0.023 C 
HETATM   25  C   UNL     1     -40.251  38.009 -60.397  1.00  0.00     0.007 C 
ENDBRANCH  23  24
ENDBRANCH  20  23
ENDBRANCH  17  20
ENDBRANCH   8  11
ENDBRANCH   1   7
BRANCH   5  26
HETATM   26  C   UNL     1     -33.051  38.240 -50.285  1.00  0.00     0.114 C 
HETATM   27  C   UNL     1     -32.225  37.403 -51.264  1.00  0.00     0.037 C 
BRANCH  26  28
HETATM   28  N   UNL     1     -32.235  38.654 -49.158  1.00  0.00    -0.349 N 
HETATM   29  C   UNL     1     -32.526  38.273 -47.866  1.00  0.00     0.252 C 
HETATM   30  O   UNL     1     -33.436  37.508 -47.563  1.00  0.00    -0.268 OA
HETATM   31  H   UNL     1     -31.484  39.305 -49.336  1.00  0.00     0.163 HD
BRANCH  29  32
HETATM   32  C   UNL     1     -31.633  38.821 -46.814  1.00  0.00     0.033 A 
HETATM   33  C   UNL     1     -30.770  39.869 -47.149  1.00  0.00     0.020 A 
HETATM   34  C   UNL     1     -29.924  40.427 -46.183  1.00  0.00     0.039 A 
HETATM   35  C   UNL     1     -29.923  39.933 -44.874  1.00  0.00     0.089 A 
HETATM   36  C   UNL     1     -30.777  38.862 -44.556  1.00  0.00     0.068 A 
HETATM   37 CL   UNL     1     -30.817  38.185 -42.964  1.00  0.00    -0.081 Cl
HETATM   38  C   UNL     1     -31.627  38.306 -45.517  1.00  0.00     0.043 A 
BRANCH  35  39
HETATM   39  O   UNL     1     -29.134  40.415 -43.864  1.00  0.00    -0.354 OA
HETATM   40  C   UNL     1     -27.887  39.774 -43.630  1.00  0.00     0.210 C 
ENDBRANCH  35  39
ENDBRANCH  29  32
ENDBRANCH  26  28
ENDBRANCH   5  26
TORSDOF 9
ENDMDL
MODEL 9
REMARK VINA RESULT:      -7.0      5.340      9.801
REMARK  9 active torsions:
REMARK  status: ('A' for Active; 'I' for Inactive)
REMARK    1  A    between atoms: C_2  and  C_3 
REMARK    2  A    between atoms: C_3  and  N_4 
REMARK    3  A    between atoms: N_4  and  C_7 
REMARK    4  A    between atoms: C_12  and  N_13 
REMARK       I    between atoms: N_13  and  C_14 
REMARK    5  A    between atoms: C_14  and  C_16 
REMARK    6  A    between atoms: C_20  and  C_22 
REMARK    7  A    between atoms: C_22  and  N_24 
REMARK       I    between atoms: N_24  and  C_25 
REMARK    8  A    between atoms: C_25  and  C_27 
REMARK    9  A    between atoms: C_30  and  O_31 
ROOT
HETATM    1  C   UNL     1     -44.562  60.090 -51.440  1.00  0.00     0.033 A 
HETATM    2  C   UNL     1     -45.174  60.568 -50.275  1.00  0.00     0.017 A 
HETATM    3  C   UNL     1     -46.144  61.566 -50.344  1.00  0.00     0.002 A 
HETATM    4  C   UNL     1     -46.522  62.088 -51.581  1.00  0.00     0.009 A 
HETATM    5  C   UNL     1     -45.949  61.605 -52.767  1.00  0.00    -0.035 A 
HETATM    6  C   UNL     1     -44.958  60.606 -52.682  1.00  0.00     0.026 A 
ENDROOT
BRANCH   1   7
HETATM    7  C   UNL     1     -43.532  59.018 -51.297  1.00  0.00     0.257 C 
HETATM    8  N   UNL     1     -43.961  57.726 -51.525  1.00  0.00    -0.301 N 
HETATM    9  H   UNL     1     -44.903  57.525 -51.827  1.00  0.00     0.171 HD
HETATM   10  O   UNL     1     -42.390  59.361 -51.010  1.00  0.00    -0.267 OA
BRANCH   8  11
HETATM   11  C   UNL     1     -43.102  56.666 -51.420  1.00  0.00     0.174 A 
HETATM   12  N   UNL     1     -42.553  56.150 -50.348  1.00  0.00    -0.228 NA
HETATM   13  C   UNL     1     -41.747  55.103 -50.697  1.00  0.00     0.050 A 
HETATM   14  C   UNL     1     -41.001  54.340 -49.661  1.00  0.00     0.062 C 
HETATM   15  C   UNL     1     -41.718  54.804 -52.042  1.00  0.00     0.013 A 
HETATM   16  C   UNL     1     -39.917  53.458 -50.303  1.00  0.00     0.039 C 
HETATM   17  C   UNL     1     -40.458  52.717 -51.545  1.00  0.00     0.191 C 
HETATM   18  C   UNL     1     -40.922  53.706 -52.654  1.00  0.00     0.081 C 
HETATM   19  S   UNL     1     -42.695  55.906 -52.905  1.00  0.00    -0.055 SA
BRANCH  17  20
HETATM   20  N   UNL     1     -39.386  51.811 -52.112  1.00  0.00    -0.071 N 
HETATM   21  H   UNL     1     -39.492  50.862 -51.725  1.00  0.00     0.277 HD
HETATM   22  H   UNL     1     -38.467  52.143 -51.783  1.00  0.00     0.277 HD
BRANCH  20  23
HETATM   23  C   UNL     1     -39.330  51.728 -53.610  1.00  0.00     0.232 C 
BRANCH  23  24
HETATM   24  C   UNL     1     -39.356  50.265 -54.028  1.00  0.00     0.023 C 
HETATM   25  C   UNL     1     -40.757  49.838 -54.439  1.00  0.00     0.007 C 
ENDBRANCH  23  24
ENDBRANCH  20  23
ENDBRANCH  17  20
ENDBRANCH   8  11
ENDBRANCH   1   7
BRANCH   5  26
HETATM   26  C   UNL     1     -46.329  62.158 -54.131  1.00  0.00     0.114 C 
HETATM   27  C   UNL     1     -45.394  61.710 -55.255  1.00  0.00     0.037 C 
BRANCH  26  28
HETATM   28  N   UNL     1     -47.702  61.797 -54.438  1.00  0.00    -0.349 N 
HETATM   29  C   UNL     1     -48.689  62.745 -54.598  1.00  0.00     0.252 C 
HETATM   30  O   UNL     1     -48.492  63.955 -54.570  1.00  0.00    -0.268 OA
HETATM   31  H   UNL     1     -47.936  60.814 -54.451  1.00  0.00     0.163 HD
BRANCH  29  32
HETATM   32  C   UNL     1     -50.054  62.219 -54.853  1.00  0.00     0.033 A 
HETATM   33  C   UNL     1     -50.955  62.153 -53.786  1.00  0.00     0.020 A 
HETATM   34  C   UNL     1     -52.258  61.679 -53.986  1.00  0.00     0.039 A 
HETATM   35  C   UNL     1     -52.668  61.255 -55.254  1.00  0.00     0.089 A 
HETATM   36  C   UNL     1     -51.745  61.303 -56.314  1.00  0.00     0.068 A 
HETATM   37 CL   UNL     1     -52.174  60.775 -57.905  1.00  0.00    -0.081 Cl
HETATM   38  C   UNL     1     -50.445  61.779 -56.119  1.00  0.00     0.043 A 
BRANCH  35  39
HETATM   39  O   UNL     1     -53.919  60.780 -55.546  1.00  0.00    -0.354 OA
HETATM   40  C   UNL     1     -54.859  61.683 -56.110  1.00  0.00     0.210 C 
ENDBRANCH  35  39
ENDBRANCH  29  32
ENDBRANCH  26  28
ENDBRANCH   5  26
TORSDOF 9
ENDMDL
MODEL 10
REMARK VINA RESULT:      -7.0      2.107      3.003
REMARK  9 active torsions:
REMARK  status: ('A' for Active; 'I' for Inactive)
REMARK    1  A    between atoms: C_2  and  C_3 
REMARK    2  A    between atoms: C_3  and  N_4 
REMARK    3  A    between atoms: N_4  and  C_7 
REMARK    4  A    between atoms: C_12  and  N_13 
REMARK       I    between atoms: N_13  and  C_14 
REMARK    5  A    between atoms: C_14  and  C_16 
REMARK    6  A    between atoms: C_20  and  C_22 
REMARK    7  A    between atoms: C_22  and  N_24 
REMARK       I    between atoms: N_24  and  C_25 
REMARK    8  A    between atoms: C_25  and  C_27 
REMARK    9  A    between atoms: C_30  and  O_31 
ROOT
HETATM    1  C   UNL     1     -41.840  55.082 -54.953  1.00  0.00     0.033 A 
HETATM    2  C   UNL     1     -41.060  53.926 -55.089  1.00  0.00     0.017 A 
HETATM    3  C   UNL     1     -40.584  53.258 -53.963  1.00  0.00     0.002 A 
HETATM    4  C   UNL     1     -40.892  53.731 -52.688  1.00  0.00     0.009 A 
HETATM    5  C   UNL     1     -41.700  54.867 -52.521  1.00  0.00    -0.035 A 
HETATM    6  C   UNL     1     -42.161  55.542 -53.669  1.00  0.00     0.026 A 
ENDROOT
BRANCH   1   7
HETATM    7  C   UNL     1     -42.321  55.748 -56.200  1.00  0.00     0.257 C 
HETATM    8  N   UNL     1     -42.004  57.085 -56.338  1.00  0.00    -0.301 N 
HETATM    9  H   UNL     1     -41.432  57.567 -55.662  1.00  0.00     0.171 HD
HETATM   10  O   UNL     1     -42.939  55.064 -57.009  1.00  0.00    -0.267 OA
BRANCH   8  11
HETATM   11  C   UNL     1     -42.396  57.794 -57.441  1.00  0.00     0.174 A 
HETATM   12  N   UNL     1     -41.795  57.923 -58.597  1.00  0.00    -0.228 NA
HETATM   13  C   UNL     1     -42.530  58.733 -59.417  1.00  0.00     0.050 A 
HETATM   14  C   UNL     1     -42.066  59.043 -60.794  1.00  0.00     0.062 C 
HETATM   15  C   UNL     1     -43.716  59.188 -58.883  1.00  0.00     0.013 A 
HETATM   16  C   UNL     1     -42.855  60.223 -61.387  1.00  0.00     0.039 C 
HETATM   17  C   UNL     1     -44.368  60.081 -61.113  1.00  0.00     0.191 C 
HETATM   18  C   UNL     1     -44.683  60.074 -59.588  1.00  0.00     0.081 C 
HETATM   19  S   UNL     1     -43.891  58.624 -57.282  1.00  0.00    -0.055 SA
BRANCH  17  20
HETATM   20  N   UNL     1     -45.119  61.223 -61.764  1.00  0.00    -0.071 N 
HETATM   21  H   UNL     1     -44.955  61.211 -62.781  1.00  0.00     0.277 HD
HETATM   22  H   UNL     1     -44.720  62.112 -61.429  1.00  0.00     0.277 HD
BRANCH  20  23
HETATM   23  C   UNL     1     -46.598  61.260 -61.504  1.00  0.00     0.232 C 
BRANCH  23  24
HETATM   24  C   UNL     1     -47.263  60.117 -62.257  1.00  0.00     0.023 C 
HETATM   25  C   UNL     1     -48.042  59.219 -61.310  1.00  0.00     0.007 C 
ENDBRANCH  23  24
ENDBRANCH  20  23
ENDBRANCH  17  20
ENDBRANCH   8  11
ENDBRANCH   1   7
BRANCH   5  26
HETATM   26  C   UNL     1     -42.047  55.415 -51.147  1.00  0.00     0.114 C 
HETATM   27  C   UNL     1     -40.869  55.407 -50.170  1.00  0.00     0.037 C 
BRANCH  26  28
HETATM   28  N   UNL     1     -42.586  56.757 -51.280  1.00  0.00    -0.349 N 
HETATM   29  C   UNL     1     -43.910  57.040 -51.026  1.00  0.00     0.252 C 
HETATM   30  O   UNL     1     -44.721  56.222 -50.604  1.00  0.00    -0.268 OA
HETATM   31  H   UNL     1     -41.976  57.473 -51.648  1.00  0.00     0.163 HD
BRANCH  29  32
HETATM   32  C   UNL     1     -44.326  58.447 -51.261  1.00  0.00     0.033 A 
HETATM   33  C   UNL     1     -45.534  58.887 -50.711  1.00  0.00     0.020 A 
HETATM   34  C   UNL     1     -45.954  60.211 -50.893  1.00  0.00     0.039 A 
HETATM   35  C   UNL     1     -45.177  61.103 -51.639  1.00  0.00     0.089 A 
HETATM   36  C   UNL     1     -43.977  60.641 -52.208  1.00  0.00     0.068 A 
HETATM   37 CL   UNL     1     -42.973  61.681 -53.159  1.00  0.00    -0.081 Cl
HETATM   38  C   UNL     1     -43.551  59.322 -52.024  1.00  0.00     0.043 A 
BRANCH  35  39
HETATM   39  O   UNL     1     -45.506  62.412 -51.869  1.00  0.00    -0.354 OA
HETATM   40  C   UNL     1     -46.769  62.872 -51.408  1.00  0.00     0.210 C 
ENDBRANCH  35  39
ENDBRANCH  29  32
ENDBRANCH  26  28
ENDBRANCH   5  26
TORSDOF 9
ENDMDL
