MODEL 1
REMARK VINA RESULT:      -7.2      0.000      0.000
REMARK  6 active torsions:
REMARK  status: ('A' for Active; 'I' for Inactive)
REMARK    1  A    between atoms: C_2  and  C_3 
REMARK    2  A    between atoms: C_3  and  N_4 
REMARK    3  A    between atoms: C_3  and  C_17 
REMARK    4  A    between atoms: N_4  and  C_5 
REMARK    5  A    between atoms: C_5  and  C_6 
REMARK       I    between atoms: C_6  and  N_7 
REMARK    6  A    between atoms: N_7  and  C_8 
ROOT
HETATM    1  N   UNL     1     -40.430  54.014 -54.138  1.00  0.00     0.101 N 
HETATM    2  H   UNL     1     -39.718  53.654 -54.775  1.00  0.00     0.317 HD
ENDROOT
BRANCH   1   3
HETATM    3  C   UNL     1     -40.751  52.962 -53.150  1.00  0.00     0.256 C 
BRANCH   3   4
HETATM    4  C   UNL     1     -39.822  51.725 -53.253  1.00  0.00     0.036 C 
HETATM    5  C   UNL     1     -40.175  50.728 -54.354  1.00  0.00     0.007 C 
ENDBRANCH   3   4
BRANCH   3   6
HETATM    6  C   UNL     1     -40.779  53.508 -51.726  1.00  0.00     0.013 A 
HETATM    7  C   UNL     1     -42.010  53.906 -51.176  1.00  0.00     0.127 A 
HETATM    8  F   UNL     1     -43.126  53.815 -51.915  1.00  0.00    -0.205 F 
HETATM    9  C   UNL     1     -42.116  54.389 -49.877  1.00  0.00     0.085 A 
HETATM   10  C   UNL     1     -40.970  54.488 -49.106  1.00  0.00     0.119 A 
HETATM   11  F   UNL     1     -41.055  54.952 -47.852  1.00  0.00    -0.206 F 
HETATM   12  C   UNL     1     -39.731  54.110 -49.611  1.00  0.00     0.043 A 
HETATM   13  C   UNL     1     -39.634  53.619 -50.917  1.00  0.00     0.015 A 
ENDBRANCH   3   6
ENDBRANCH   1   3
BRANCH   1  14
HETATM   14  C   UNL     1     -41.614  54.386 -54.949  1.00  0.00     0.372 C 
BRANCH  14  15
HETATM   15  C   UNL     1     -42.202  55.721 -54.465  1.00  0.00     0.250 C 
HETATM   16  N   UNL     1     -41.223  56.614 -54.084  1.00  0.00    -0.322 N 
HETATM   17  H   UNL     1     -40.278  56.243 -54.116  1.00  0.00     0.169 HD
HETATM   18  O   UNL     1     -43.415  55.883 -54.410  1.00  0.00    -0.271 OA
BRANCH  16  19
HETATM   19  C   UNL     1     -41.380  57.924 -53.674  1.00  0.00     0.085 A 
HETATM   20  C   UNL     1     -41.736  59.133 -54.342  1.00  0.00     0.079 A 
HETATM   21  C   UNL     1     -42.051  59.391 -55.770  1.00  0.00     0.075 C 
HETATM   22  N   UNL     1     -41.739  60.176 -53.497  1.00  0.00    -0.177 NA
HETATM   23  N   UNL     1     -41.397  59.648 -52.319  1.00  0.00    -0.280 N 
HETATM   24  H   UNL     1     -41.340  60.269 -51.519  1.00  0.00     0.189 HD
HETATM   25  C   UNL     1     -41.158  58.304 -52.363  1.00  0.00     0.052 A 
HETATM   26  C   UNL     1     -40.757  57.546 -51.156  1.00  0.00     0.072 C 
ENDBRANCH  16  19
ENDBRANCH  14  15
ENDBRANCH   1  14
TORSDOF 6
ENDMDL
MODEL 2
REMARK VINA RESULT:      -7.1      2.708      4.382
REMARK  6 active torsions:
REMARK  status: ('A' for Active; 'I' for Inactive)
REMARK    1  A    between atoms: C_2  and  C_3 
REMARK    2  A    between atoms: C_3  and  N_4 
REMARK    3  A    between atoms: C_3  and  C_17 
REMARK    4  A    between atoms: N_4  and  C_5 
REMARK    5  A    between atoms: C_5  and  C_6 
REMARK       I    between atoms: C_6  and  N_7 
REMARK    6  A    between atoms: N_7  and  C_8 
ROOT
HETATM    1  N   UNL     1     -42.074  54.342 -50.478  1.00  0.00     0.101 N 
HETATM    2  H   UNL     1     -42.209  53.835 -49.602  1.00  0.00     0.317 HD
ENDROOT
BRANCH   1   3
HETATM    3  C   UNL     1     -40.634  54.323 -50.813  1.00  0.00     0.256 C 
BRANCH   3   4
HETATM    4  C   UNL     1     -39.717  54.291 -49.563  1.00  0.00     0.036 C 
HETATM    5  C   UNL     1     -40.397  53.877 -48.260  1.00  0.00     0.007 C 
ENDBRANCH   3   4
BRANCH   3   6
HETATM    6  C   UNL     1     -40.288  53.189 -51.774  1.00  0.00     0.013 A 
HETATM    7  C   UNL     1     -40.340  53.435 -53.157  1.00  0.00     0.127 A 
HETATM    8  F   UNL     1     -40.706  54.645 -53.603  1.00  0.00    -0.205 F 
HETATM    9  C   UNL     1     -40.014  52.458 -54.091  1.00  0.00     0.085 A 
HETATM   10  C   UNL     1     -39.635  51.204 -53.642  1.00  0.00     0.119 A 
HETATM   11  F   UNL     1     -39.318  50.251 -54.529  1.00  0.00    -0.206 F 
HETATM   12  C   UNL     1     -39.575  50.917 -52.283  1.00  0.00     0.043 A 
HETATM   13  C   UNL     1     -39.899  51.907 -51.349  1.00  0.00     0.015 A 
ENDBRANCH   3   6
ENDBRANCH   1   3
BRANCH   1  14
HETATM   14  C   UNL     1     -42.575  55.723 -50.281  1.00  0.00     0.372 C 
BRANCH  14  15
HETATM   15  C   UNL     1     -42.588  56.486 -51.614  1.00  0.00     0.250 C 
HETATM   16  N   UNL     1     -43.581  56.041 -52.461  1.00  0.00    -0.322 N 
HETATM   17  H   UNL     1     -44.106  55.243 -52.112  1.00  0.00     0.169 HD
HETATM   18  O   UNL     1     -41.753  57.352 -51.845  1.00  0.00    -0.271 OA
BRANCH  16  19
HETATM   19  C   UNL     1     -43.934  56.544 -53.698  1.00  0.00     0.085 A 
HETATM   20  C   UNL     1     -44.464  57.791 -54.143  1.00  0.00     0.079 A 
HETATM   21  C   UNL     1     -44.846  59.006 -53.381  1.00  0.00     0.075 C 
HETATM   22  N   UNL     1     -44.657  57.793 -55.472  1.00  0.00    -0.177 NA
HETATM   23  N   UNL     1     -44.259  56.581 -55.866  1.00  0.00    -0.280 N 
HETATM   24  H   UNL     1     -44.314  56.362 -56.855  1.00  0.00     0.189 HD
HETATM   25  C   UNL     1     -43.825  55.782 -54.848  1.00  0.00     0.052 A 
HETATM   26  C   UNL     1     -43.353  54.400 -55.090  1.00  0.00     0.072 C 
ENDBRANCH  16  19
ENDBRANCH  14  15
ENDBRANCH   1  14
TORSDOF 6
ENDMDL
MODEL 3
REMARK VINA RESULT:      -7.1      3.622      5.318
REMARK  6 active torsions:
REMARK  status: ('A' for Active; 'I' for Inactive)
REMARK    1  A    between atoms: C_2  and  C_3 
REMARK    2  A    between atoms: C_3  and  N_4 
REMARK    3  A    between atoms: C_3  and  C_17 
REMARK    4  A    between atoms: N_4  and  C_5 
REMARK    5  A    between atoms: C_5  and  C_6 
REMARK       I    between atoms: C_6  and  N_7 
REMARK    6  A    between atoms: N_7  and  C_8 
ROOT
HETATM    1  N   UNL     1     -41.129  54.696 -54.987  1.00  0.00     0.101 N 
HETATM    2  H   UNL     1     -40.490  54.117 -55.535  1.00  0.00     0.317 HD
ENDROOT
BRANCH   1   3
HETATM    3  C   UNL     1     -41.029  54.290 -53.568  1.00  0.00     0.256 C 
BRANCH   3   4
HETATM    4  C   UNL     1     -42.345  54.510 -52.777  1.00  0.00     0.036 C 
HETATM    5  C   UNL     1     -42.414  55.798 -51.962  1.00  0.00     0.007 C 
ENDBRANCH   3   4
BRANCH   3   6
HETATM    6  C   UNL     1     -40.535  52.854 -53.421  1.00  0.00     0.013 A 
HETATM    7  C   UNL     1     -39.976  52.453 -52.195  1.00  0.00     0.127 A 
HETATM    8  F   UNL     1     -39.871  53.338 -51.192  1.00  0.00    -0.205 F 
HETATM    9  C   UNL     1     -39.528  51.155 -51.979  1.00  0.00     0.085 A 
HETATM   10  C   UNL     1     -39.630  50.233 -53.007  1.00  0.00     0.119 A 
HETATM   11  F   UNL     1     -39.204  48.978 -52.815  1.00  0.00    -0.206 F 
HETATM   12  C   UNL     1     -40.173  50.589 -54.237  1.00  0.00     0.043 A 
HETATM   13  C   UNL     1     -40.627  51.895 -54.445  1.00  0.00     0.015 A 
ENDBRANCH   3   6
ENDBRANCH   1   3
BRANCH   1  14
HETATM   14  C   UNL     1     -42.495  54.491 -55.523  1.00  0.00     0.372 C 
BRANCH  14  15
HETATM   15  C   UNL     1     -42.918  55.685 -56.393  1.00  0.00     0.250 C 
HETATM   16  N   UNL     1     -42.752  55.433 -57.738  1.00  0.00    -0.322 N 
HETATM   17  H   UNL     1     -42.321  54.537 -57.950  1.00  0.00     0.169 HD
HETATM   18  O   UNL     1     -43.307  56.725 -55.877  1.00  0.00    -0.271 OA
BRANCH  16  19
HETATM   19  C   UNL     1     -43.099  56.242 -58.804  1.00  0.00     0.085 A 
HETATM   20  C   UNL     1     -42.740  57.564 -59.198  1.00  0.00     0.079 A 
HETATM   21  C   UNL     1     -41.847  58.558 -58.550  1.00  0.00     0.075 C 
HETATM   22  N   UNL     1     -43.367  57.924 -60.330  1.00  0.00    -0.177 NA
HETATM   23  N   UNL     1     -44.105  56.859 -60.651  1.00  0.00    -0.280 N 
HETATM   24  H   UNL     1     -44.670  56.910 -61.493  1.00  0.00     0.189 HD
HETATM   25  C   UNL     1     -43.996  55.823 -59.769  1.00  0.00     0.052 A 
HETATM   26  C   UNL     1     -44.748  54.560 -59.955  1.00  0.00     0.072 C 
ENDBRANCH  16  19
ENDBRANCH  14  15
ENDBRANCH   1  14
TORSDOF 6
ENDMDL
MODEL 4
REMARK VINA RESULT:      -7.0      1.504      2.018
REMARK  6 active torsions:
REMARK  status: ('A' for Active; 'I' for Inactive)
REMARK    1  A    between atoms: C_2  and  C_3 
REMARK    2  A    between atoms: C_3  and  N_4 
REMARK    3  A    between atoms: C_3  and  C_17 
REMARK    4  A    between atoms: N_4  and  C_5 
REMARK    5  A    between atoms: C_5  and  C_6 
REMARK       I    between atoms: C_6  and  N_7 
REMARK    6  A    between atoms: N_7  and  C_8 
ROOT
HETATM    1  N   UNL     1     -41.695  54.342 -54.296  1.00  0.00     0.101 N 
HETATM    2  H   UNL     1     -42.556  54.752 -53.932  1.00  0.00     0.317 HD
ENDROOT
BRANCH   1   3
HETATM    3  C   UNL     1     -41.328  53.189 -53.445  1.00  0.00     0.256 C 
BRANCH   3   4
HETATM    4  C   UNL     1     -40.071  52.433 -53.951  1.00  0.00     0.036 C 
HETATM    5  C   UNL     1     -40.280  50.957 -54.275  1.00  0.00     0.007 C 
ENDBRANCH   3   4
BRANCH   3   6
HETATM    6  C   UNL     1     -41.174  53.589 -51.981  1.00  0.00     0.013 A 
HETATM    7  C   UNL     1     -42.311  54.011 -51.271  1.00  0.00     0.127 A 
HETATM    8  F   UNL     1     -43.498  54.071 -51.893  1.00  0.00    -0.205 F 
HETATM    9  C   UNL     1     -42.252  54.366 -49.928  1.00  0.00     0.085 A 
HETATM   10  C   UNL     1     -41.032  54.309 -49.275  1.00  0.00     0.119 A 
HETATM   11  F   UNL     1     -40.957  54.648 -47.981  1.00  0.00    -0.206 F 
HETATM   12  C   UNL     1     -39.881  53.901 -49.941  1.00  0.00     0.043 A 
HETATM   13  C   UNL     1     -39.950  53.539 -51.291  1.00  0.00     0.015 A 
ENDBRANCH   3   6
ENDBRANCH   1   3
BRANCH   1  14
HETATM   14  C   UNL     1     -40.651  55.394 -54.276  1.00  0.00     0.372 C 
BRANCH  14  15
HETATM   15  C   UNL     1     -41.243  56.731 -53.804  1.00  0.00     0.250 C 
HETATM   16  N   UNL     1     -41.164  56.883 -52.436  1.00  0.00    -0.322 N 
HETATM   17  H   UNL     1     -40.793  56.075 -51.943  1.00  0.00     0.169 HD
HETATM   18  O   UNL     1     -41.750  57.506 -54.607  1.00  0.00    -0.271 OA
BRANCH  16  19
HETATM   19  C   UNL     1     -41.522  57.982 -51.680  1.00  0.00     0.085 A 
HETATM   20  C   UNL     1     -40.788  59.029 -51.048  1.00  0.00     0.079 A 
HETATM   21  C   UNL     1     -39.326  59.280 -50.981  1.00  0.00     0.075 C 
HETATM   22  N   UNL     1     -41.604  59.876 -50.401  1.00  0.00    -0.177 NA
HETATM   23  N   UNL     1     -42.827  59.385 -50.614  1.00  0.00    -0.280 N 
HETATM   24  H   UNL     1     -43.615  59.881 -50.211  1.00  0.00     0.189 HD
HETATM   25  C   UNL     1     -42.843  58.244 -51.364  1.00  0.00     0.052 A 
HETATM   26  C   UNL     1     -44.108  57.549 -51.697  1.00  0.00     0.072 C 
ENDBRANCH  16  19
ENDBRANCH  14  15
ENDBRANCH   1  14
TORSDOF 6
ENDMDL
MODEL 5
REMARK VINA RESULT:      -7.0      3.616      5.411
REMARK  6 active torsions:
REMARK  status: ('A' for Active; 'I' for Inactive)
REMARK    1  A    between atoms: C_2  and  C_3 
REMARK    2  A    between atoms: C_3  and  N_4 
REMARK    3  A    between atoms: C_3  and  C_17 
REMARK    4  A    between atoms: N_4  and  C_5 
REMARK    5  A    between atoms: C_5  and  C_6 
REMARK       I    between atoms: C_6  and  N_7 
REMARK    6  A    between atoms: N_7  and  C_8 
ROOT
HETATM    1  N   UNL     1     -42.281  54.890 -54.487  1.00  0.00     0.101 N 
HETATM    2  H   UNL     1     -43.208  55.175 -54.166  1.00  0.00     0.317 HD
ENDROOT
BRANCH   1   3
HETATM    3  C   UNL     1     -41.441  54.611 -53.302  1.00  0.00     0.256 C 
BRANCH   3   4
HETATM    4  C   UNL     1     -42.178  54.859 -51.960  1.00  0.00     0.036 C 
HETATM    5  C   UNL     1     -43.404  53.984 -51.713  1.00  0.00     0.007 C 
ENDBRANCH   3   4
BRANCH   3   6
HETATM    6  C   UNL     1     -40.843  53.209 -53.347  1.00  0.00     0.013 A 
HETATM    7  C   UNL     1     -39.985  52.805 -52.309  1.00  0.00     0.127 A 
HETATM    8  F   UNL     1     -39.697  53.660 -51.316  1.00  0.00    -0.205 F 
HETATM    9  C   UNL     1     -39.423  51.535 -52.269  1.00  0.00     0.085 A 
HETATM   10  C   UNL     1     -39.712  50.644 -53.289  1.00  0.00     0.119 A 
HETATM   11  F   UNL     1     -39.179  49.415 -53.266  1.00  0.00    -0.206 F 
HETATM   12  C   UNL     1     -40.552  51.004 -54.338  1.00  0.00     0.043 A 
HETATM   13  C   UNL     1     -41.119  52.282 -54.367  1.00  0.00     0.015 A 
ENDBRANCH   3   6
ENDBRANCH   1   3
BRANCH   1  14
HETATM   14  C   UNL     1     -41.729  55.995 -55.305  1.00  0.00     0.372 C 
BRANCH  14  15
HETATM   15  C   UNL     1     -42.739  56.429 -56.378  1.00  0.00     0.250 C 
HETATM   16  N   UNL     1     -42.315  56.115 -57.651  1.00  0.00    -0.322 N 
HETATM   17  H   UNL     1     -41.384  55.711 -57.698  1.00  0.00     0.169 HD
HETATM   18  O   UNL     1     -43.766  57.020 -56.064  1.00  0.00    -0.271 OA
BRANCH  16  19
HETATM   19  C   UNL     1     -42.997  56.284 -58.841  1.00  0.00     0.085 A 
HETATM   20  C   UNL     1     -43.881  55.461 -59.599  1.00  0.00     0.079 A 
HETATM   21  C   UNL     1     -44.365  54.080 -59.352  1.00  0.00     0.075 C 
HETATM   22  N   UNL     1     -44.282  56.079 -60.722  1.00  0.00    -0.177 NA
HETATM   23  N   UNL     1     -43.671  57.266 -60.683  1.00  0.00    -0.280 N 
HETATM   24  H   UNL     1     -43.839  57.911 -61.447  1.00  0.00     0.189 HD
HETATM   25  C   UNL     1     -42.878  57.445 -59.585  1.00  0.00     0.052 A 
HETATM   26  C   UNL     1     -42.114  58.695 -59.373  1.00  0.00     0.072 C 
ENDBRANCH  16  19
ENDBRANCH  14  15
ENDBRANCH   1  14
TORSDOF 6
ENDMDL
MODEL 6
REMARK VINA RESULT:      -6.9      2.284      3.974
REMARK  6 active torsions:
REMARK  status: ('A' for Active; 'I' for Inactive)
REMARK    1  A    between atoms: C_2  and  C_3 
REMARK    2  A    between atoms: C_3  and  N_4 
REMARK    3  A    between atoms: C_3  and  C_17 
REMARK    4  A    between atoms: N_4  and  C_5 
REMARK    5  A    between atoms: C_5  and  C_6 
REMARK       I    between atoms: C_6  and  N_7 
REMARK    6  A    between atoms: N_7  and  C_8 
ROOT
HETATM    1  N   UNL     1     -41.671  54.910 -54.085  1.00  0.00     0.101 N 
HETATM    2  H   UNL     1     -42.595  55.345 -54.090  1.00  0.00     0.317 HD
ENDROOT
BRANCH   1   3
HETATM    3  C   UNL     1     -41.513  54.163 -52.819  1.00  0.00     0.256 C 
BRANCH   3   4
HETATM    4  C   UNL     1     -42.844  53.994 -52.040  1.00  0.00     0.036 C 
HETATM    5  C   UNL     1     -42.889  54.657 -50.666  1.00  0.00     0.007 C 
ENDBRANCH   3   4
BRANCH   3   6
HETATM    6  C   UNL     1     -40.831  52.815 -53.035  1.00  0.00     0.013 A 
HETATM    7  C   UNL     1     -40.065  52.269 -51.990  1.00  0.00     0.127 A 
HETATM    8  F   UNL     1     -39.934  52.945 -50.839  1.00  0.00    -0.205 F 
HETATM    9  C   UNL     1     -39.435  51.035 -52.105  1.00  0.00     0.085 A 
HETATM   10  C   UNL     1     -39.563  50.328 -53.289  1.00  0.00     0.119 A 
HETATM   11  F   UNL     1     -38.963  49.137 -53.417  1.00  0.00    -0.206 F 
HETATM   12  C   UNL     1     -40.308  50.834 -54.349  1.00  0.00     0.043 A 
HETATM   13  C   UNL     1     -40.943  52.073 -54.223  1.00  0.00     0.015 A 
ENDBRANCH   3   6
ENDBRANCH   1   3
BRANCH   1  14
HETATM   14  C   UNL     1     -40.664  55.990 -54.216  1.00  0.00     0.372 C 
BRANCH  14  15
HETATM   15  C   UNL     1     -41.230  57.321 -53.696  1.00  0.00     0.250 C 
HETATM   16  N   UNL     1     -41.265  57.370 -52.319  1.00  0.00    -0.322 N 
HETATM   17  H   UNL     1     -40.980  56.510 -51.859  1.00  0.00     0.169 HD
HETATM   18  O   UNL     1     -41.624  58.177 -54.479  1.00  0.00    -0.271 OA
BRANCH  16  19
HETATM   19  C   UNL     1     -41.636  58.431 -51.516  1.00  0.00     0.085 A 
HETATM   20  C   UNL     1     -40.910  59.403 -50.766  1.00  0.00     0.079 A 
HETATM   21  C   UNL     1     -39.449  59.589 -50.583  1.00  0.00     0.075 C 
HETATM   22  N   UNL     1     -41.739  60.239 -50.119  1.00  0.00    -0.177 NA
HETATM   23  N   UNL     1     -42.961  59.813 -50.446  1.00  0.00    -0.280 N 
HETATM   24  H   UNL     1     -43.756  60.313 -50.064  1.00  0.00     0.189 HD
HETATM   25  C   UNL     1     -42.965  58.726 -51.272  1.00  0.00     0.052 A 
HETATM   26  C   UNL     1     -44.228  58.106 -51.736  1.00  0.00     0.072 C 
ENDBRANCH  16  19
ENDBRANCH  14  15
ENDBRANCH   1  14
TORSDOF 6
ENDMDL
MODEL 7
REMARK VINA RESULT:      -6.9      2.735      4.046
REMARK  6 active torsions:
REMARK  status: ('A' for Active; 'I' for Inactive)
REMARK    1  A    between atoms: C_2  and  C_3 
REMARK    2  A    between atoms: C_3  and  N_4 
REMARK    3  A    between atoms: C_3  and  C_17 
REMARK    4  A    between atoms: N_4  and  C_5 
REMARK    5  A    between atoms: C_5  and  C_6 
REMARK       I    between atoms: C_6  and  N_7 
REMARK    6  A    between atoms: N_7  and  C_8 
ROOT
HETATM    1  N   UNL     1     -42.590  54.227 -51.221  1.00  0.00     0.101 N 
HETATM    2  H   UNL     1     -42.769  54.509 -50.256  1.00  0.00     0.317 HD
ENDROOT
BRANCH   1   3
HETATM    3  C   UNL     1     -41.137  54.329 -51.476  1.00  0.00     0.256 C 
BRANCH   3   4
HETATM    4  C   UNL     1     -40.317  54.675 -50.205  1.00  0.00     0.036 C 
HETATM    5  C   UNL     1     -41.140  55.017 -48.966  1.00  0.00     0.007 C 
ENDBRANCH   3   4
BRANCH   3   6
HETATM    6  C   UNL     1     -40.589  53.079 -52.157  1.00  0.00     0.013 A 
HETATM    7  C   UNL     1     -40.702  52.964 -53.554  1.00  0.00     0.127 A 
HETATM    8  F   UNL     1     -41.299  53.939 -54.254  1.00  0.00    -0.205 F 
HETATM    9  C   UNL     1     -40.203  51.866 -54.245  1.00  0.00     0.085 A 
HETATM   10  C   UNL     1     -39.585  50.852 -53.533  1.00  0.00     0.119 A 
HETATM   11  F   UNL     1     -39.099  49.787 -54.184  1.00  0.00    -0.206 F 
HETATM   12  C   UNL     1     -39.456  50.924 -52.150  1.00  0.00     0.043 A 
HETATM   13  C   UNL     1     -39.954  52.035 -51.462  1.00  0.00     0.015 A 
ENDBRANCH   3   6
ENDBRANCH   1   3
BRANCH   1  14
HETATM   14  C   UNL     1     -43.368  55.126 -52.106  1.00  0.00     0.372 C 
BRANCH  14  15
HETATM   15  C   UNL     1     -43.714  56.433 -51.377  1.00  0.00     0.250 C 
HETATM   16  N   UNL     1     -42.893  57.474 -51.755  1.00  0.00    -0.322 N 
HETATM   17  H   UNL     1     -42.151  57.213 -52.399  1.00  0.00     0.169 HD
HETATM   18  O   UNL     1     -44.604  56.461 -50.535  1.00  0.00    -0.271 OA
BRANCH  16  19
HETATM   19  C   UNL     1     -42.964  58.798 -51.367  1.00  0.00     0.085 A 
HETATM   20  C   UNL     1     -43.984  59.793 -51.430  1.00  0.00     0.079 A 
HETATM   21  C   UNL     1     -45.362  59.730 -51.978  1.00  0.00     0.075 C 
HETATM   22  N   UNL     1     -43.558  60.962 -50.926  1.00  0.00    -0.177 NA
HETATM   23  N   UNL     1     -42.300  60.721 -50.550  1.00  0.00    -0.280 N 
HETATM   24  H   UNL     1     -41.776  61.482 -50.129  1.00  0.00     0.189 HD
HETATM   25  C   UNL     1     -41.882  59.445 -50.798  1.00  0.00     0.052 A 
HETATM   26  C   UNL     1     -40.514  58.994 -50.456  1.00  0.00     0.072 C 
ENDBRANCH  16  19
ENDBRANCH  14  15
ENDBRANCH   1  14
TORSDOF 6
ENDMDL
MODEL 8
REMARK VINA RESULT:      -6.9      3.632      5.176
REMARK  6 active torsions:
REMARK  status: ('A' for Active; 'I' for Inactive)
REMARK    1  A    between atoms: C_2  and  C_3 
REMARK    2  A    between atoms: C_3  and  N_4 
REMARK    3  A    between atoms: C_3  and  C_17 
REMARK    4  A    between atoms: N_4  and  C_5 
REMARK    5  A    between atoms: C_5  and  C_6 
REMARK       I    between atoms: C_6  and  N_7 
REMARK    6  A    between atoms: N_7  and  C_8 
ROOT
HETATM    1  N   UNL     1     -42.846  54.833 -54.032  1.00  0.00     0.101 N 
HETATM    2  H   UNL     1     -43.340  55.720 -53.924  1.00  0.00     0.317 HD
ENDROOT
BRANCH   1   3
HETATM    3  C   UNL     1     -41.427  55.040 -53.675  1.00  0.00     0.256 C 
BRANCH   3   4
HETATM    4  C   UNL     1     -41.191  56.317 -52.826  1.00  0.00     0.036 C 
HETATM    5  C   UNL     1     -40.967  57.601 -53.620  1.00  0.00     0.007 C 
ENDBRANCH   3   4
BRANCH   3   6
HETATM    6  C   UNL     1     -40.826  53.813 -52.996  1.00  0.00     0.013 A 
HETATM    7  C   UNL     1     -40.180  52.848 -53.788  1.00  0.00     0.127 A 
HETATM    8  F   UNL     1     -40.121  53.014 -55.118  1.00  0.00    -0.205 F 
HETATM    9  C   UNL     1     -39.588  51.718 -53.237  1.00  0.00     0.085 A 
HETATM   10  C   UNL     1     -39.643  51.536 -51.865  1.00  0.00     0.119 A 
HETATM   11  F   UNL     1     -39.077  50.453 -51.318  1.00  0.00    -0.206 F 
HETATM   12  C   UNL     1     -40.276  52.464 -51.045  1.00  0.00     0.043 A 
HETATM   13  C   UNL     1     -40.864  53.602 -51.606  1.00  0.00     0.015 A 
ENDBRANCH   3   6
ENDBRANCH   1   3
BRANCH   1  14
HETATM   14  C   UNL     1     -43.002  54.400 -55.441  1.00  0.00     0.372 C 
BRANCH  14  15
HETATM   15  C   UNL     1     -43.291  55.607 -56.347  1.00  0.00     0.250 C 
HETATM   16  N   UNL     1     -43.101  55.315 -57.681  1.00  0.00    -0.322 N 
HETATM   17  H   UNL     1     -42.739  54.383 -57.861  1.00  0.00     0.169 HD
HETATM   18  O   UNL     1     -43.610  56.686 -55.863  1.00  0.00    -0.271 OA
BRANCH  16  19
HETATM   19  C   UNL     1     -43.340  56.128 -58.772  1.00  0.00     0.085 A 
HETATM   20  C   UNL     1     -42.880  57.421 -59.161  1.00  0.00     0.079 A 
HETATM   21  C   UNL     1     -41.962  58.367 -58.478  1.00  0.00     0.075 C 
HETATM   22  N   UNL     1     -43.424  57.802 -60.328  1.00  0.00    -0.177 NA
HETATM   23  N   UNL     1     -44.209  56.780 -60.677  1.00  0.00    -0.280 N 
HETATM   24  H   UNL     1     -44.725  56.853 -61.547  1.00  0.00     0.189 HD
HETATM   25  C   UNL     1     -44.211  55.751 -59.779  1.00  0.00     0.052 A 
HETATM   26  C   UNL     1     -45.029  54.535 -59.990  1.00  0.00     0.072 C 
ENDBRANCH  16  19
ENDBRANCH  14  15
ENDBRANCH   1  14
TORSDOF 6
ENDMDL
MODEL 9
REMARK VINA RESULT:      -6.8      3.292      4.308
REMARK  6 active torsions:
REMARK  status: ('A' for Active; 'I' for Inactive)
REMARK    1  A    between atoms: C_2  and  C_3 
REMARK    2  A    between atoms: C_3  and  N_4 
REMARK    3  A    between atoms: C_3  and  C_17 
REMARK    4  A    between atoms: N_4  and  C_5 
REMARK    5  A    between atoms: C_5  and  C_6 
REMARK       I    between atoms: C_6  and  N_7 
REMARK    6  A    between atoms: N_7  and  C_8 
ROOT
HETATM    1  N   UNL     1     -41.700  54.361 -54.771  1.00  0.00     0.101 N 
HETATM    2  H   UNL     1     -40.966  54.381 -55.482  1.00  0.00     0.317 HD
ENDROOT
BRANCH   1   3
HETATM    3  C   UNL     1     -41.464  53.201 -53.886  1.00  0.00     0.256 C 
BRANCH   3   4
HETATM    4  C   UNL     1     -40.242  52.345 -54.315  1.00  0.00     0.036 C 
HETATM    5  C   UNL     1     -40.460  50.835 -54.296  1.00  0.00     0.007 C 
ENDBRANCH   3   4
BRANCH   3   6
HETATM    6  C   UNL     1     -41.355  53.614 -52.422  1.00  0.00     0.013 A 
HETATM    7  C   UNL     1     -42.519  54.018 -51.744  1.00  0.00     0.127 A 
HETATM    8  F   UNL     1     -43.690  54.048 -52.397  1.00  0.00    -0.205 F 
HETATM    9  C   UNL     1     -42.501  54.384 -50.403  1.00  0.00     0.085 A 
HETATM   10  C   UNL     1     -41.297  54.357 -49.719  1.00  0.00     0.119 A 
HETATM   11  F   UNL     1     -41.263  54.707 -48.427  1.00  0.00    -0.206 F 
HETATM   12  C   UNL     1     -40.122  53.969 -50.353  1.00  0.00     0.043 A 
HETATM   13  C   UNL     1     -40.149  53.596 -51.700  1.00  0.00     0.015 A 
ENDBRANCH   3   6
ENDBRANCH   1   3
BRANCH   1  14
HETATM   14  C   UNL     1     -43.003  54.264 -55.470  1.00  0.00     0.372 C 
BRANCH  14  15
HETATM   15  C   UNL     1     -43.232  55.498 -56.357  1.00  0.00     0.250 C 
HETATM   16  N   UNL     1     -43.138  55.200 -57.699  1.00  0.00    -0.322 N 
HETATM   17  H   UNL     1     -42.870  54.241 -57.901  1.00  0.00     0.169 HD
HETATM   18  O   UNL     1     -43.429  56.598 -55.854  1.00  0.00    -0.271 OA
BRANCH  16  19
HETATM   19  C   UNL     1     -43.362  56.039 -58.775  1.00  0.00     0.085 A 
HETATM   20  C   UNL     1     -42.884  57.333 -59.135  1.00  0.00     0.079 A 
HETATM   21  C   UNL     1     -41.958  58.253 -58.427  1.00  0.00     0.075 C 
HETATM   22  N   UNL     1     -43.416  57.745 -60.297  1.00  0.00    -0.177 NA
HETATM   23  N   UNL     1     -44.213  56.740 -60.670  1.00  0.00    -0.280 N 
HETATM   24  H   UNL     1     -44.723  56.838 -61.541  1.00  0.00     0.189 HD
HETATM   25  C   UNL     1     -44.232  55.694 -59.793  1.00  0.00     0.052 A 
HETATM   26  C   UNL     1     -45.064  54.492 -60.034  1.00  0.00     0.072 C 
ENDBRANCH  16  19
ENDBRANCH  14  15
ENDBRANCH   1  14
TORSDOF 6
ENDMDL
MODEL 10
REMARK VINA RESULT:      -6.8      2.230      4.101
REMARK  6 active torsions:
REMARK  status: ('A' for Active; 'I' for Inactive)
REMARK    1  A    between atoms: C_2  and  C_3 
REMARK    2  A    between atoms: C_3  and  N_4 
REMARK    3  A    between atoms: C_3  and  C_17 
REMARK    4  A    between atoms: N_4  and  C_5 
REMARK    5  A    between atoms: C_5  and  C_6 
REMARK       I    between atoms: C_6  and  N_7 
REMARK    6  A    between atoms: N_7  and  C_8 
ROOT
HETATM    1  N   UNL     1     -41.813  54.478 -50.799  1.00  0.00     0.101 N 
HETATM    2  H   UNL     1     -42.142  54.072 -49.921  1.00  0.00     0.317 HD
ENDROOT
BRANCH   1   3
HETATM    3  C   UNL     1     -40.370  54.187 -50.938  1.00  0.00     0.256 C 
BRANCH   3   4
HETATM    4  C   UNL     1     -39.614  54.187 -49.583  1.00  0.00     0.036 C 
HETATM    5  C   UNL     1     -40.481  53.954 -48.348  1.00  0.00     0.007 C 
ENDBRANCH   3   4
BRANCH   3   6
HETATM    6  C   UNL     1     -40.122  52.890 -51.702  1.00  0.00     0.013 A 
HETATM    7  C   UNL     1     -40.136  52.920 -53.108  1.00  0.00     0.127 A 
HETATM    8  F   UNL     1     -40.383  54.073 -53.745  1.00  0.00    -0.205 F 
HETATM    9  C   UNL     1     -39.893  51.784 -53.871  1.00  0.00     0.085 A 
HETATM   10  C   UNL     1     -39.637  50.586 -53.224  1.00  0.00     0.119 A 
HETATM   11  F   UNL     1     -39.401  49.482 -53.944  1.00  0.00    -0.206 F 
HETATM   12  C   UNL     1     -39.618  50.512 -51.835  1.00  0.00     0.043 A 
HETATM   13  C   UNL     1     -39.857  51.661 -51.074  1.00  0.00     0.015 A 
ENDBRANCH   3   6
ENDBRANCH   1   3
BRANCH   1  14
HETATM   14  C   UNL     1     -42.078  55.935 -50.749  1.00  0.00     0.372 C 
BRANCH  14  15
HETATM   15  C   UNL     1     -42.782  56.399 -52.034  1.00  0.00     0.250 C 
HETATM   16  N   UNL     1     -41.893  56.625 -53.063  1.00  0.00    -0.322 N 
HETATM   17  H   UNL     1     -40.916  56.518 -52.807  1.00  0.00     0.169 HD
HETATM   18  O   UNL     1     -43.996  56.567 -52.053  1.00  0.00    -0.271 OA
BRANCH  16  19
HETATM   19  C   UNL     1     -42.176  56.972 -54.370  1.00  0.00     0.085 A 
HETATM   20  C   UNL     1     -42.598  56.238 -55.518  1.00  0.00     0.079 A 
HETATM   21  C   UNL     1     -42.868  54.789 -55.693  1.00  0.00     0.075 C 
HETATM   22  N   UNL     1     -42.725  57.038 -56.589  1.00  0.00    -0.177 NA
HETATM   23  N   UNL     1     -42.394  58.250 -56.138  1.00  0.00    -0.280 N 
HETATM   24  H   UNL     1     -42.426  59.024 -56.793  1.00  0.00     0.189 HD
HETATM   25  C   UNL     1     -42.045  58.274 -54.819  1.00  0.00     0.052 A 
HETATM   26  C   UNL     1     -41.638  59.528 -54.144  1.00  0.00     0.072 C 
ENDBRANCH  16  19
ENDBRANCH  14  15
ENDBRANCH   1  14
TORSDOF 6
ENDMDL
