MODEL 1
REMARK VINA RESULT:      -9.2      0.000      0.000
REMARK  9 active torsions:
REMARK  status: ('A' for Active; 'I' for Inactive)
REMARK       I    between atoms: N_2  and  C_3 
REMARK    1  A    between atoms: N_2  and  C_28 
REMARK    2  A    between atoms: C_3  and  C_4 
REMARK    3  A    between atoms: C_6  and  N_7 
REMARK       I    between atoms: N_7  and  C_8 
REMARK    4  A    between atoms: C_8  and  C_9 
REMARK    5  A    between atoms: C_9  and  O_10 
REMARK    6  A    between atoms: N_17  and  C_18 
REMARK    7  A    between atoms: C_18  and  C_19 
REMARK    8  A    between atoms: C_19  and  C_20 
REMARK    9  A    between atoms: C_28  and  C_29 
ROOT
HETATM    1  C   UNL     1     -44.861  57.989 -51.992  1.00  0.00     0.036 A 
HETATM    2  C   UNL     1     -44.740  57.621 -53.338  1.00  0.00     0.049 A 
HETATM    3  C   UNL     1     -43.956  56.526 -53.747  1.00  0.00     0.065 A 
HETATM    4  C   UNL     1     -43.259  55.837 -52.727  1.00  0.00     0.091 A 
HETATM    5  C   UNL     1     -43.397  56.193 -51.377  1.00  0.00     0.088 A 
HETATM    6  N   UNL     1     -42.644  55.394 -50.556  1.00  0.00    -0.242 NA
HETATM    7  C   UNL     1     -42.028  54.569 -51.362  1.00  0.00     0.210 A 
HETATM    8  N   UNL     1     -42.368  54.783 -52.673  1.00  0.00    -0.337 N 
HETATM    9  C   UNL     1     -44.230  57.249 -50.995  1.00  0.00     0.051 A 
ENDROOT
BRANCH   1  10
HETATM   10  C   UNL     1     -45.772  59.106 -51.644  1.00  0.00     0.253 C 
HETATM   11  N   UNL     1     -45.722  60.307 -52.363  1.00  0.00    -0.350 N 
HETATM   12  C   UNL     1     -46.522  61.415 -51.861  1.00  0.00     0.153 C 
HETATM   13  O   UNL     1     -46.542  58.912 -50.703  1.00  0.00    -0.267 OA
BRANCH  11  14
HETATM   14  C   UNL     1     -44.847  60.543 -53.529  1.00  0.00     0.158 C 
BRANCH  14  15
HETATM   15  C   UNL     1     -43.435  61.098 -53.248  1.00  0.00     0.151 A 
HETATM   16  O   UNL     1     -42.441  60.146 -53.711  1.00  0.00    -0.343 OA
HETATM   17  C   UNL     1     -41.761  59.757 -52.589  1.00  0.00     0.075 A 
HETATM   18  C   UNL     1     -42.163  60.399 -51.433  1.00  0.00    -0.022 A 
HETATM   19  C   UNL     1     -40.753  58.815 -52.586  1.00  0.00     0.037 A 
HETATM   20  C   UNL     1     -43.232  61.368 -51.742  1.00  0.00     0.075 A 
HETATM   21  C   UNL     1     -41.561  60.120 -50.218  1.00  0.00     0.010 A 
HETATM   22  C   UNL     1     -40.539  59.168 -50.190  1.00  0.00     0.001 A 
HETATM   23  C   UNL     1     -40.137  58.519 -51.368  1.00  0.00     0.003 A 
ENDBRANCH  14  15
ENDBRANCH  11  14
ENDBRANCH   1  10
BRANCH   3  24
HETATM   24  N   UNL     1     -43.902  56.104 -55.087  1.00  0.00    -0.323 N 
HETATM   25  C   UNL     1     -43.066  56.557 -56.097  1.00  0.00     0.246 C 
HETATM   26  O   UNL     1     -42.118  57.326 -55.985  1.00  0.00    -0.271 OA
HETATM   27  H   UNL     1     -44.584  55.431 -55.408  1.00  0.00     0.169 HD
BRANCH  25  28
HETATM   28  C   UNL     1     -43.408  55.910 -57.445  1.00  0.00     0.270 C 
BRANCH  28  29
HETATM   29  O   UNL     1     -43.560  56.866 -58.496  1.00  0.00    -0.387 OA
HETATM   30  C   UNL     1     -44.757  57.628 -58.344  1.00  0.00     0.202 C 
ENDBRANCH  28  29
ENDBRANCH  25  28
ENDBRANCH   3  24
BRANCH   8  31
HETATM   31  C   UNL     1     -41.797  53.993 -53.750  1.00  0.00     0.134 C 
BRANCH  31  32
HETATM   32  C   UNL     1     -40.330  53.649 -53.484  1.00  0.00     0.058 C 
BRANCH  32  33
HETATM   33  C   UNL     1     -40.074  52.184 -53.216  1.00  0.00    -0.057 A 
HETATM   34  C   UNL     1     -39.725  51.709 -51.945  1.00  0.00     0.007 A 
HETATM   35  C   UNL     1     -39.486  50.347 -51.737  1.00  0.00     0.001 A 
HETATM   36  C   UNL     1     -39.573  49.449 -52.798  1.00  0.00     0.000 A 
HETATM   37  C   UNL     1     -39.895  49.911 -54.071  1.00  0.00     0.001 A 
HETATM   38  C   UNL     1     -40.141  51.269 -54.280  1.00  0.00     0.007 A 
ENDBRANCH  32  33
ENDBRANCH  31  32
ENDBRANCH   8  31
TORSDOF 9
ENDMDL
MODEL 2
REMARK VINA RESULT:      -8.8      1.925      3.852
REMARK  9 active torsions:
REMARK  status: ('A' for Active; 'I' for Inactive)
REMARK       I    between atoms: N_2  and  C_3 
REMARK    1  A    between atoms: N_2  and  C_28 
REMARK    2  A    between atoms: C_3  and  C_4 
REMARK    3  A    between atoms: C_6  and  N_7 
REMARK       I    between atoms: N_7  and  C_8 
REMARK    4  A    between atoms: C_8  and  C_9 
REMARK    5  A    between atoms: C_9  and  O_10 
REMARK    6  A    between atoms: N_17  and  C_18 
REMARK    7  A    between atoms: C_18  and  C_19 
REMARK    8  A    between atoms: C_19  and  C_20 
REMARK    9  A    between atoms: C_28  and  C_29 
ROOT
HETATM    1  C   UNL     1     -44.774  58.126 -52.139  1.00  0.00     0.036 A 
HETATM    2  C   UNL     1     -43.845  57.461 -51.328  1.00  0.00     0.049 A 
HETATM    3  C   UNL     1     -42.865  56.602 -51.861  1.00  0.00     0.065 A 
HETATM    4  C   UNL     1     -42.892  56.413 -53.263  1.00  0.00     0.091 A 
HETATM    5  C   UNL     1     -43.808  57.096 -54.077  1.00  0.00     0.088 A 
HETATM    6  N   UNL     1     -43.658  56.775 -55.400  1.00  0.00    -0.242 NA
HETATM    7  C   UNL     1     -42.690  55.897 -55.426  1.00  0.00     0.210 A 
HETATM    8  N   UNL     1     -42.187  55.650 -54.174  1.00  0.00    -0.337 N 
HETATM    9  C   UNL     1     -44.733  57.988 -53.524  1.00  0.00     0.051 A 
ENDROOT
BRANCH   1  10
HETATM   10  C   UNL     1     -45.718  59.074 -51.499  1.00  0.00     0.253 C 
HETATM   11  N   UNL     1     -45.812  60.393 -51.959  1.00  0.00    -0.350 N 
HETATM   12  C   UNL     1     -46.631  61.311 -51.180  1.00  0.00     0.153 C 
HETATM   13  O   UNL     1     -46.381  58.635 -50.559  1.00  0.00    -0.267 OA
BRANCH  11  14
HETATM   14  C   UNL     1     -45.068  60.927 -53.118  1.00  0.00     0.158 C 
BRANCH  14  15
HETATM   15  C   UNL     1     -43.674  61.525 -52.843  1.00  0.00     0.151 A 
HETATM   16  O   UNL     1     -42.671  60.772 -53.576  1.00  0.00    -0.343 OA
HETATM   17  C   UNL     1     -41.863  60.219 -52.620  1.00  0.00     0.075 A 
HETATM   18  C   UNL     1     -42.190  60.577 -51.326  1.00  0.00    -0.022 A 
HETATM   19  C   UNL     1     -40.803  59.381 -52.897  1.00  0.00     0.037 A 
HETATM   20  C   UNL     1     -43.343  61.499 -51.335  1.00  0.00     0.075 A 
HETATM   21  C   UNL     1     -41.457  60.106 -50.250  1.00  0.00     0.010 A 
HETATM   22  C   UNL     1     -40.380  59.255 -50.506  1.00  0.00     0.001 A 
HETATM   23  C   UNL     1     -40.054  58.895 -51.823  1.00  0.00     0.003 A 
ENDBRANCH  14  15
ENDBRANCH  11  14
ENDBRANCH   1  10
BRANCH   3  24
HETATM   24  N   UNL     1     -41.881  56.001 -51.058  1.00  0.00    -0.323 N 
HETATM   25  C   UNL     1     -41.915  54.757 -50.445  1.00  0.00     0.246 C 
HETATM   26  O   UNL     1     -42.760  53.882 -50.590  1.00  0.00    -0.271 OA
HETATM   27  H   UNL     1     -41.056  56.536 -50.826  1.00  0.00     0.169 HD
BRANCH  25  28
HETATM   28  C   UNL     1     -40.679  54.529 -49.565  1.00  0.00     0.270 C 
BRANCH  28  29
HETATM   29  O   UNL     1     -40.942  54.735 -48.176  1.00  0.00    -0.387 OA
HETATM   30  C   UNL     1     -40.145  53.880 -47.358  1.00  0.00     0.202 C 
ENDBRANCH  28  29
ENDBRANCH  25  28
ENDBRANCH   3  24
BRANCH   8  31
HETATM   31  C   UNL     1     -41.112  54.699 -53.954  1.00  0.00     0.134 C 
BRANCH  31  32
HETATM   32  C   UNL     1     -41.467  53.311 -54.492  1.00  0.00     0.058 C 
BRANCH  32  33
HETATM   33  C   UNL     1     -40.716  52.178 -53.831  1.00  0.00    -0.057 A 
HETATM   34  C   UNL     1     -40.566  50.927 -54.444  1.00  0.00     0.007 A 
HETATM   35  C   UNL     1     -39.873  49.899 -53.798  1.00  0.00     0.001 A 
HETATM   36  C   UNL     1     -39.341  50.101 -52.526  1.00  0.00     0.000 A 
HETATM   37  C   UNL     1     -39.505  51.332 -51.895  1.00  0.00     0.001 A 
HETATM   38  C   UNL     1     -40.190  52.362 -52.542  1.00  0.00     0.007 A 
ENDBRANCH  32  33
ENDBRANCH  31  32
ENDBRANCH   8  31
TORSDOF 9
ENDMDL
MODEL 3
REMARK VINA RESULT:      -8.8      2.588      6.270
REMARK  9 active torsions:
REMARK  status: ('A' for Active; 'I' for Inactive)
REMARK       I    between atoms: N_2  and  C_3 
REMARK    1  A    between atoms: N_2  and  C_28 
REMARK    2  A    between atoms: C_3  and  C_4 
REMARK    3  A    between atoms: C_6  and  N_7 
REMARK       I    between atoms: N_7  and  C_8 
REMARK    4  A    between atoms: C_8  and  C_9 
REMARK    5  A    between atoms: C_9  and  O_10 
REMARK    6  A    between atoms: N_17  and  C_18 
REMARK    7  A    between atoms: C_18  and  C_19 
REMARK    8  A    between atoms: C_19  and  C_20 
REMARK    9  A    between atoms: C_28  and  C_29 
ROOT
HETATM    1  C   UNL     1     -43.027  58.428 -55.905  1.00  0.00     0.036 A 
HETATM    2  C   UNL     1     -42.495  58.403 -54.609  1.00  0.00     0.049 A 
HETATM    3  C   UNL     1     -42.211  57.199 -53.939  1.00  0.00     0.065 A 
HETATM    4  C   UNL     1     -42.531  56.006 -54.629  1.00  0.00     0.091 A 
HETATM    5  C   UNL     1     -43.044  56.030 -55.935  1.00  0.00     0.088 A 
HETATM    6  N   UNL     1     -43.275  54.770 -56.419  1.00  0.00    -0.242 NA
HETATM    7  C   UNL     1     -42.941  53.967 -55.442  1.00  0.00     0.210 A 
HETATM    8  N   UNL     1     -42.479  54.654 -54.349  1.00  0.00    -0.337 N 
HETATM    9  C   UNL     1     -43.261  57.242 -56.598  1.00  0.00     0.051 A 
ENDROOT
BRANCH   1  10
HETATM   10  C   UNL     1     -43.218  59.741 -56.565  1.00  0.00     0.253 C 
HETATM   11  N   UNL     1     -42.594  60.014 -57.788  1.00  0.00    -0.350 N 
HETATM   12  C   UNL     1     -42.687  61.376 -58.293  1.00  0.00     0.153 C 
HETATM   13  O   UNL     1     -43.932  60.552 -55.974  1.00  0.00    -0.267 OA
BRANCH  11  14
HETATM   14  C   UNL     1     -41.779  59.039 -58.542  1.00  0.00     0.158 C 
BRANCH  14  15
HETATM   15  C   UNL     1     -42.352  58.533 -59.882  1.00  0.00     0.151 A 
HETATM   16  O   UNL     1     -43.779  58.804 -59.931  1.00  0.00    -0.343 OA
HETATM   17  C   UNL     1     -44.377  57.576 -60.002  1.00  0.00     0.075 A 
HETATM   18  C   UNL     1     -43.492  56.516 -60.066  1.00  0.00    -0.022 A 
HETATM   19  C   UNL     1     -45.744  57.384 -60.018  1.00  0.00     0.037 A 
HETATM   20  C   UNL     1     -42.105  57.020 -60.059  1.00  0.00     0.075 A 
HETATM   21  C   UNL     1     -43.948  55.212 -60.152  1.00  0.00     0.010 A 
HETATM   22  C   UNL     1     -45.328  54.994 -60.168  1.00  0.00     0.001 A 
HETATM   23  C   UNL     1     -46.221  56.074 -60.102  1.00  0.00     0.003 A 
ENDBRANCH  14  15
ENDBRANCH  11  14
ENDBRANCH   1  10
BRANCH   3  24
HETATM   24  N   UNL     1     -41.599  57.173 -52.674  1.00  0.00    -0.323 N 
HETATM   25  C   UNL     1     -42.204  57.229 -51.426  1.00  0.00     0.246 C 
HETATM   26  O   UNL     1     -43.404  57.181 -51.181  1.00  0.00    -0.271 OA
HETATM   27  H   UNL     1     -40.590  57.176 -52.627  1.00  0.00     0.169 HD
BRANCH  25  28
HETATM   28  C   UNL     1     -41.165  57.286 -50.299  1.00  0.00     0.270 C 
BRANCH  28  29
HETATM   29  O   UNL     1     -40.495  56.039 -50.099  1.00  0.00    -0.387 OA
HETATM   30  C   UNL     1     -41.266  55.155 -49.287  1.00  0.00     0.202 C 
ENDBRANCH  28  29
ENDBRANCH  25  28
ENDBRANCH   3  24
BRANCH   8  31
HETATM   31  C   UNL     1     -42.060  53.972 -53.137  1.00  0.00     0.134 C 
BRANCH  31  32
HETATM   32  C   UNL     1     -40.558  53.677 -53.145  1.00  0.00     0.058 C 
BRANCH  32  33
HETATM   33  C   UNL     1     -40.213  52.208 -53.075  1.00  0.00    -0.057 A 
HETATM   34  C   UNL     1     -39.743  51.608 -51.899  1.00  0.00     0.007 A 
HETATM   35  C   UNL     1     -39.424  50.247 -51.875  1.00  0.00     0.001 A 
HETATM   36  C   UNL     1     -39.551  49.475 -53.027  1.00  0.00     0.000 A 
HETATM   37  C   UNL     1     -39.994  50.063 -54.209  1.00  0.00     0.001 A 
HETATM   38  C   UNL     1     -40.319  51.420 -54.234  1.00  0.00     0.007 A 
ENDBRANCH  32  33
ENDBRANCH  31  32
ENDBRANCH   8  31
TORSDOF 9
ENDMDL
MODEL 4
REMARK VINA RESULT:      -8.5      2.890      6.827
REMARK  9 active torsions:
REMARK  status: ('A' for Active; 'I' for Inactive)
REMARK       I    between atoms: N_2  and  C_3 
REMARK    1  A    between atoms: N_2  and  C_28 
REMARK    2  A    between atoms: C_3  and  C_4 
REMARK    3  A    between atoms: C_6  and  N_7 
REMARK       I    between atoms: N_7  and  C_8 
REMARK    4  A    between atoms: C_8  and  C_9 
REMARK    5  A    between atoms: C_9  and  O_10 
REMARK    6  A    between atoms: N_17  and  C_18 
REMARK    7  A    between atoms: C_18  and  C_19 
REMARK    8  A    between atoms: C_19  and  C_20 
REMARK    9  A    between atoms: C_28  and  C_29 
ROOT
HETATM    1  C   UNL     1     -42.029  59.777 -57.213  1.00  0.00     0.036 A 
HETATM    2  C   UNL     1     -42.031  59.977 -55.827  1.00  0.00     0.049 A 
HETATM    3  C   UNL     1     -42.220  58.920 -54.918  1.00  0.00     0.065 A 
HETATM    4  C   UNL     1     -42.452  57.643 -55.480  1.00  0.00     0.091 A 
HETATM    5  C   UNL     1     -42.430  57.438 -56.868  1.00  0.00     0.088 A 
HETATM    6  N   UNL     1     -42.669  56.130 -57.198  1.00  0.00    -0.242 NA
HETATM    7  C   UNL     1     -42.861  55.524 -56.056  1.00  0.00     0.210 A 
HETATM    8  N   UNL     1     -42.732  56.381 -54.993  1.00  0.00    -0.337 N 
HETATM    9  C   UNL     1     -42.180  58.499 -57.745  1.00  0.00     0.051 A 
ENDROOT
BRANCH   1  10
HETATM   10  C   UNL     1     -41.741  60.935 -58.093  1.00  0.00     0.253 C 
HETATM   11  N   UNL     1     -42.743  61.459 -58.919  1.00  0.00    -0.350 N 
HETATM   12  C   UNL     1     -42.347  62.481 -59.878  1.00  0.00     0.153 C 
HETATM   13  O   UNL     1     -40.593  61.378 -58.057  1.00  0.00    -0.267 OA
BRANCH  11  14
HETATM   14  C   UNL     1     -44.140  60.980 -58.941  1.00  0.00     0.158 C 
BRANCH  14  15
HETATM   15  C   UNL     1     -44.610  60.243 -60.212  1.00  0.00     0.151 A 
HETATM   16  O   UNL     1     -45.944  59.708 -59.996  1.00  0.00    -0.343 OA
HETATM   17  C   UNL     1     -45.809  58.350 -60.091  1.00  0.00     0.075 A 
HETATM   18  C   UNL     1     -44.532  57.928 -60.409  1.00  0.00    -0.022 A 
HETATM   19  C   UNL     1     -46.843  57.457 -59.900  1.00  0.00     0.037 A 
HETATM   20  C   UNL     1     -43.645  59.095 -60.581  1.00  0.00     0.075 A 
HETATM   21  C   UNL     1     -44.241  56.582 -60.551  1.00  0.00     0.010 A 
HETATM   22  C   UNL     1     -45.273  55.660 -60.361  1.00  0.00     0.001 A 
HETATM   23  C   UNL     1     -46.567  56.095 -60.038  1.00  0.00     0.003 A 
ENDBRANCH  14  15
ENDBRANCH  11  14
ENDBRANCH   1  10
BRANCH   3  24
HETATM   24  N   UNL     1     -42.137  59.105 -53.527  1.00  0.00    -0.323 N 
HETATM   25  C   UNL     1     -41.000  59.149 -52.733  1.00  0.00     0.246 C 
HETATM   26  O   UNL     1     -39.834  59.165 -53.108  1.00  0.00    -0.271 OA
HETATM   27  H   UNL     1     -42.995  59.154 -52.996  1.00  0.00     0.169 HD
BRANCH  25  28
HETATM   28  C   UNL     1     -41.356  59.258 -51.245  1.00  0.00     0.270 C 
BRANCH  28  29
HETATM   29  O   UNL     1     -40.606  58.357 -50.428  1.00  0.00    -0.387 OA
HETATM   30  C   UNL     1     -41.131  57.032 -50.490  1.00  0.00     0.202 C 
ENDBRANCH  28  29
ENDBRANCH  25  28
ENDBRANCH   3  24
BRANCH   8  31
HETATM   31  C   UNL     1     -42.914  55.933 -53.623  1.00  0.00     0.134 C 
BRANCH  31  32
HETATM   32  C   UNL     1     -43.163  54.425 -53.549  1.00  0.00     0.058 C 
BRANCH  32  33
HETATM   33  C   UNL     1     -41.946  53.611 -53.180  1.00  0.00    -0.057 A 
HETATM   34  C   UNL     1     -41.285  52.796 -54.109  1.00  0.00     0.007 A 
HETATM   35  C   UNL     1     -40.166  52.048 -53.729  1.00  0.00     0.001 A 
HETATM   36  C   UNL     1     -39.707  52.090 -52.415  1.00  0.00     0.000 A 
HETATM   37  C   UNL     1     -40.369  52.877 -51.475  1.00  0.00     0.001 A 
HETATM   38  C   UNL     1     -41.482  53.629 -51.854  1.00  0.00     0.007 A 
ENDBRANCH  32  33
ENDBRANCH  31  32
ENDBRANCH   8  31
TORSDOF 9
ENDMDL
MODEL 5
REMARK VINA RESULT:      -8.5      2.321      4.610
REMARK  9 active torsions:
REMARK  status: ('A' for Active; 'I' for Inactive)
REMARK       I    between atoms: N_2  and  C_3 
REMARK    1  A    between atoms: N_2  and  C_28 
REMARK    2  A    between atoms: C_3  and  C_4 
REMARK    3  A    between atoms: C_6  and  N_7 
REMARK       I    between atoms: N_7  and  C_8 
REMARK    4  A    between atoms: C_8  and  C_9 
REMARK    5  A    between atoms: C_9  and  O_10 
REMARK    6  A    between atoms: N_17  and  C_18 
REMARK    7  A    between atoms: C_18  and  C_19 
REMARK    8  A    between atoms: C_19  and  C_20 
REMARK    9  A    between atoms: C_28  and  C_29 
ROOT
HETATM    1  C   UNL     1     -42.215  58.988 -56.118  1.00  0.00     0.036 A 
HETATM    2  C   UNL     1     -41.847  58.857 -54.773  1.00  0.00     0.049 A 
HETATM    3  C   UNL     1     -41.797  57.607 -54.128  1.00  0.00     0.065 A 
HETATM    4  C   UNL     1     -42.181  56.486 -54.901  1.00  0.00     0.091 A 
HETATM    5  C   UNL     1     -42.530  56.615 -56.255  1.00  0.00     0.088 A 
HETATM    6  N   UNL     1     -42.859  55.410 -56.817  1.00  0.00    -0.242 NA
HETATM    7  C   UNL     1     -42.746  54.543 -55.845  1.00  0.00     0.210 A 
HETATM    8  N   UNL     1     -42.333  55.132 -54.677  1.00  0.00    -0.337 N 
HETATM    9  C   UNL     1     -42.512  57.864 -56.884  1.00  0.00     0.051 A 
ENDROOT
BRANCH   1  10
HETATM   10  C   UNL     1     -42.160  60.334 -56.736  1.00  0.00     0.253 C 
HETATM   11  N   UNL     1     -43.258  61.199 -56.642  1.00  0.00    -0.350 N 
HETATM   12  C   UNL     1     -43.201  62.432 -57.414  1.00  0.00     0.153 C 
HETATM   13  O   UNL     1     -41.121  60.623 -57.330  1.00  0.00    -0.267 OA
BRANCH  11  14
HETATM   14  C   UNL     1     -44.493  60.897 -55.890  1.00  0.00     0.158 C 
BRANCH  14  15
HETATM   15  C   UNL     1     -44.807  61.788 -54.670  1.00  0.00     0.151 A 
HETATM   16  O   UNL     1     -43.616  61.917 -53.847  1.00  0.00    -0.343 OA
HETATM   17  C   UNL     1     -43.943  61.348 -52.646  1.00  0.00     0.075 A 
HETATM   18  C   UNL     1     -45.250  60.906 -52.565  1.00  0.00    -0.022 A 
HETATM   19  C   UNL     1     -43.065  61.221 -51.589  1.00  0.00     0.037 A 
HETATM   20  C   UNL     1     -45.957  61.196 -53.828  1.00  0.00     0.075 A 
HETATM   21  C   UNL     1     -45.732  60.316 -51.410  1.00  0.00     0.010 A 
HETATM   22  C   UNL     1     -44.860  60.175 -50.327  1.00  0.00     0.001 A 
HETATM   23  C   UNL     1     -43.534  60.626 -50.416  1.00  0.00     0.003 A 
ENDBRANCH  14  15
ENDBRANCH  11  14
ENDBRANCH   1  10
BRANCH   3  24
HETATM   24  N   UNL     1     -41.347  57.465 -52.804  1.00  0.00    -0.323 N 
HETATM   25  C   UNL     1     -42.103  57.391 -51.643  1.00  0.00     0.246 C 
HETATM   26  O   UNL     1     -43.323  57.305 -51.557  1.00  0.00    -0.271 OA
HETATM   27  H   UNL     1     -40.352  57.476 -52.630  1.00  0.00     0.169 HD
BRANCH  25  28
HETATM   28  C   UNL     1     -41.214  57.350 -50.394  1.00  0.00     0.270 C 
BRANCH  28  29
HETATM   29  O   UNL     1     -40.564  56.090 -50.217  1.00  0.00    -0.387 OA
HETATM   30  C   UNL     1     -41.359  55.194 -49.441  1.00  0.00     0.202 C 
ENDBRANCH  28  29
ENDBRANCH  25  28
ENDBRANCH   3  24
BRANCH   8  31
HETATM   31  C   UNL     1     -42.148  54.366 -53.457  1.00  0.00     0.134 C 
BRANCH  31  32
HETATM   32  C   UNL     1     -40.671  54.066 -53.195  1.00  0.00     0.058 C 
BRANCH  32  33
HETATM   33  C   UNL     1     -40.320  52.597 -53.222  1.00  0.00    -0.057 A 
HETATM   34  C   UNL     1     -40.555  51.795 -54.348  1.00  0.00     0.007 A 
HETATM   35  C   UNL     1     -40.227  50.437 -54.333  1.00  0.00     0.001 A 
HETATM   36  C   UNL     1     -39.681  49.859 -53.189  1.00  0.00     0.000 A 
HETATM   37  C   UNL     1     -39.465  50.638 -52.055  1.00  0.00     0.001 A 
HETATM   38  C   UNL     1     -39.785  51.996 -52.070  1.00  0.00     0.007 A 
ENDBRANCH  32  33
ENDBRANCH  31  32
ENDBRANCH   8  31
TORSDOF 9
ENDMDL
MODEL 6
REMARK VINA RESULT:      -8.4      1.343      2.694
REMARK  9 active torsions:
REMARK  status: ('A' for Active; 'I' for Inactive)
REMARK       I    between atoms: N_2  and  C_3 
REMARK    1  A    between atoms: N_2  and  C_28 
REMARK    2  A    between atoms: C_3  and  C_4 
REMARK    3  A    between atoms: C_6  and  N_7 
REMARK       I    between atoms: N_7  and  C_8 
REMARK    4  A    between atoms: C_8  and  C_9 
REMARK    5  A    between atoms: C_9  and  O_10 
REMARK    6  A    between atoms: N_17  and  C_18 
REMARK    7  A    between atoms: C_18  and  C_19 
REMARK    8  A    between atoms: C_19  and  C_20 
REMARK    9  A    between atoms: C_28  and  C_29 
ROOT
HETATM    1  C   UNL     1     -44.690  57.776 -51.526  1.00  0.00     0.036 A 
HETATM    2  C   UNL     1     -44.577  57.615 -52.913  1.00  0.00     0.049 A 
HETATM    3  C   UNL     1     -43.937  56.501 -53.488  1.00  0.00     0.065 A 
HETATM    4  C   UNL     1     -43.374  55.567 -52.587  1.00  0.00     0.091 A 
HETATM    5  C   UNL     1     -43.506  55.717 -51.198  1.00  0.00     0.088 A 
HETATM    6  N   UNL     1     -42.897  54.700 -50.511  1.00  0.00    -0.242 NA
HETATM    7  C   UNL     1     -42.373  53.937 -51.435  1.00  0.00     0.210 A 
HETATM    8  N   UNL     1     -42.637  54.404 -52.697  1.00  0.00    -0.337 N 
HETATM    9  C   UNL     1     -44.199  56.805 -50.657  1.00  0.00     0.051 A 
ENDROOT
BRANCH   1  10
HETATM   10  C   UNL     1     -45.452  58.939 -51.010  1.00  0.00     0.253 C 
HETATM   11  N   UNL     1     -44.815  60.173 -50.826  1.00  0.00    -0.350 N 
HETATM   12  C   UNL     1     -45.576  61.220 -50.160  1.00  0.00     0.153 C 
HETATM   13  O   UNL     1     -46.640  58.745 -50.752  1.00  0.00    -0.267 OA
BRANCH  11  14
HETATM   14  C   UNL     1     -43.407  60.445 -51.180  1.00  0.00     0.158 C 
BRANCH  14  15
HETATM   15  C   UNL     1     -43.152  61.342 -52.408  1.00  0.00     0.151 A 
HETATM   16  O   UNL     1     -44.424  61.745 -52.984  1.00  0.00    -0.343 OA
HETATM   17  C   UNL     1     -44.438  61.208 -54.242  1.00  0.00     0.075 A 
HETATM   18  C   UNL     1     -43.278  60.538 -54.586  1.00  0.00    -0.022 A 
HETATM   19  C   UNL     1     -45.500  61.318 -55.116  1.00  0.00     0.037 A 
HETATM   20  C   UNL     1     -42.311  60.606 -53.473  1.00  0.00     0.075 A 
HETATM   21  C   UNL     1     -43.138  59.949 -55.830  1.00  0.00     0.010 A 
HETATM   22  C   UNL     1     -44.202  60.046 -56.731  1.00  0.00     0.001 A 
HETATM   23  C   UNL     1     -45.376  60.728 -56.376  1.00  0.00     0.003 A 
ENDBRANCH  14  15
ENDBRANCH  11  14
ENDBRANCH   1  10
BRANCH   3  24
HETATM   24  N   UNL     1     -43.897  56.296 -54.878  1.00  0.00    -0.323 N 
HETATM   25  C   UNL     1     -42.840  56.520 -55.749  1.00  0.00     0.246 C 
HETATM   26  O   UNL     1     -41.689  56.820 -55.456  1.00  0.00    -0.271 OA
HETATM   27  H   UNL     1     -44.744  56.008 -55.346  1.00  0.00     0.169 HD
BRANCH  25  28
HETATM   28  C   UNL     1     -43.250  56.272 -57.206  1.00  0.00     0.270 C 
BRANCH  28  29
HETATM   29  O   UNL     1     -42.543  57.102 -58.129  1.00  0.00    -0.387 OA
HETATM   30  C   UNL     1     -42.907  56.815 -59.478  1.00  0.00     0.202 C 
ENDBRANCH  28  29
ENDBRANCH  25  28
ENDBRANCH   3  24
BRANCH   8  31
HETATM   31  C   UNL     1     -42.145  53.724 -53.883  1.00  0.00     0.134 C 
BRANCH  31  32
HETATM   32  C   UNL     1     -40.629  53.518 -53.828  1.00  0.00     0.058 C 
BRANCH  32  33
HETATM   33  C   UNL     1     -40.206  52.107 -53.494  1.00  0.00    -0.057 A 
HETATM   34  C   UNL     1     -40.275  51.067 -54.431  1.00  0.00     0.007 A 
HETATM   35  C   UNL     1     -39.884  49.771 -54.083  1.00  0.00     0.001 A 
HETATM   36  C   UNL     1     -39.438  49.494 -52.793  1.00  0.00     0.000 A 
HETATM   37  C   UNL     1     -39.388  50.513 -51.844  1.00  0.00     0.001 A 
HETATM   38  C   UNL     1     -39.772  51.809 -52.192  1.00  0.00     0.007 A 
ENDBRANCH  32  33
ENDBRANCH  31  32
ENDBRANCH   8  31
TORSDOF 9
ENDMDL
MODEL 7
REMARK VINA RESULT:      -8.1      3.546      5.884
REMARK  9 active torsions:
REMARK  status: ('A' for Active; 'I' for Inactive)
REMARK       I    between atoms: N_2  and  C_3 
REMARK    1  A    between atoms: N_2  and  C_28 
REMARK    2  A    between atoms: C_3  and  C_4 
REMARK    3  A    between atoms: C_6  and  N_7 
REMARK       I    between atoms: N_7  and  C_8 
REMARK    4  A    between atoms: C_8  and  C_9 
REMARK    5  A    between atoms: C_9  and  O_10 
REMARK    6  A    between atoms: N_17  and  C_18 
REMARK    7  A    between atoms: C_18  and  C_19 
REMARK    8  A    between atoms: C_19  and  C_20 
REMARK    9  A    between atoms: C_28  and  C_29 
ROOT
HETATM    1  C   UNL     1     -44.734  58.479 -56.893  1.00  0.00     0.036 A 
HETATM    2  C   UNL     1     -45.051  58.384 -55.532  1.00  0.00     0.049 A 
HETATM    3  C   UNL     1     -44.548  57.354 -54.715  1.00  0.00     0.065 A 
HETATM    4  C   UNL     1     -43.734  56.389 -55.353  1.00  0.00     0.091 A 
HETATM    5  C   UNL     1     -43.399  56.495 -56.711  1.00  0.00     0.088 A 
HETATM    6  N   UNL     1     -42.597  55.464 -57.125  1.00  0.00    -0.242 NA
HETATM    7  C   UNL     1     -42.445  54.711 -56.067  1.00  0.00     0.210 A 
HETATM    8  N   UNL     1     -43.096  55.224 -54.974  1.00  0.00    -0.337 N 
HETATM    9  C   UNL     1     -43.867  57.564 -57.484  1.00  0.00     0.051 A 
ENDROOT
BRANCH   1  10
HETATM   10  C   UNL     1     -45.243  59.643 -57.657  1.00  0.00     0.253 C 
HETATM   11  N   UNL     1     -44.488  60.819 -57.736  1.00  0.00    -0.350 N 
HETATM   12  C   UNL     1     -45.121  61.975 -58.357  1.00  0.00     0.153 C 
HETATM   13  O   UNL     1     -46.346  59.509 -58.188  1.00  0.00    -0.267 OA
BRANCH  11  14
HETATM   14  C   UNL     1     -43.140  60.985 -57.154  1.00  0.00     0.158 C 
BRANCH  14  15
HETATM   15  C   UNL     1     -41.947  60.483 -57.994  1.00  0.00     0.151 A 
HETATM   16  O   UNL     1     -40.824  61.391 -57.828  1.00  0.00    -0.343 OA
HETATM   17  C   UNL     1     -40.592  61.910 -59.072  1.00  0.00     0.075 A 
HETATM   18  C   UNL     1     -41.408  61.395 -60.062  1.00  0.00    -0.022 A 
HETATM   19  C   UNL     1     -39.629  62.860 -59.344  1.00  0.00     0.037 A 
HETATM   20  C   UNL     1     -42.317  60.385 -59.488  1.00  0.00     0.075 A 
HETATM   21  C   UNL     1     -41.286  61.816 -61.375  1.00  0.00     0.010 A 
HETATM   22  C   UNL     1     -40.319  62.778 -61.674  1.00  0.00     0.001 A 
HETATM   23  C   UNL     1     -39.494  63.297 -60.664  1.00  0.00     0.003 A 
ENDBRANCH  14  15
ENDBRANCH  11  14
ENDBRANCH   1  10
BRANCH   3  24
HETATM   24  N   UNL     1     -44.797  57.306 -53.332  1.00  0.00    -0.323 N 
HETATM   25  C   UNL     1     -43.966  57.707 -52.296  1.00  0.00     0.246 C 
HETATM   26  O   UNL     1     -42.900  58.305 -52.390  1.00  0.00    -0.271 OA
HETATM   27  H   UNL     1     -45.652  56.875 -53.012  1.00  0.00     0.169 HD
BRANCH  25  28
HETATM   28  C   UNL     1     -44.575  57.381 -50.927  1.00  0.00     0.270 C 
BRANCH  28  29
HETATM   29  O   UNL     1     -45.827  58.033 -50.708  1.00  0.00    -0.387 OA
HETATM   30  C   UNL     1     -45.655  59.427 -50.454  1.00  0.00     0.202 C 
ENDBRANCH  28  29
ENDBRANCH  25  28
ENDBRANCH   3  24
BRANCH   8  31
HETATM   31  C   UNL     1     -43.077  54.551 -53.687  1.00  0.00     0.134 C 
BRANCH  31  32
HETATM   32  C   UNL     1     -41.743  54.751 -52.964  1.00  0.00     0.058 C 
BRANCH  32  33
HETATM   33  C   UNL     1     -40.964  53.477 -52.735  1.00  0.00    -0.057 A 
HETATM   34  C   UNL     1     -40.587  53.053 -51.453  1.00  0.00     0.007 A 
HETATM   35  C   UNL     1     -39.857  51.874 -51.281  1.00  0.00     0.001 A 
HETATM   36  C   UNL     1     -39.478  51.115 -52.386  1.00  0.00     0.000 A 
HETATM   37  C   UNL     1     -39.824  51.537 -53.667  1.00  0.00     0.001 A 
HETATM   38  C   UNL     1     -40.559  52.711 -53.841  1.00  0.00     0.007 A 
ENDBRANCH  32  33
ENDBRANCH  31  32
ENDBRANCH   8  31
TORSDOF 9
ENDMDL
MODEL 8
REMARK VINA RESULT:      -8.1      2.677      6.310
REMARK  9 active torsions:
REMARK  status: ('A' for Active; 'I' for Inactive)
REMARK       I    between atoms: N_2  and  C_3 
REMARK    1  A    between atoms: N_2  and  C_28 
REMARK    2  A    between atoms: C_3  and  C_4 
REMARK    3  A    between atoms: C_6  and  N_7 
REMARK       I    between atoms: N_7  and  C_8 
REMARK    4  A    between atoms: C_8  and  C_9 
REMARK    5  A    between atoms: C_9  and  O_10 
REMARK    6  A    between atoms: N_17  and  C_18 
REMARK    7  A    between atoms: C_18  and  C_19 
REMARK    8  A    between atoms: C_19  and  C_20 
REMARK    9  A    between atoms: C_28  and  C_29 
ROOT
HETATM    1  C   UNL     1     -44.062  58.871 -54.399  1.00  0.00     0.036 A 
HETATM    2  C   UNL     1     -44.917  58.334 -55.370  1.00  0.00     0.049 A 
HETATM    3  C   UNL     1     -44.624  58.400 -56.745  1.00  0.00     0.065 A 
HETATM    4  C   UNL     1     -43.434  59.076 -57.101  1.00  0.00     0.091 A 
HETATM    5  C   UNL     1     -42.566  59.595 -56.128  1.00  0.00     0.088 A 
HETATM    6  N   UNL     1     -41.472  60.201 -56.686  1.00  0.00    -0.242 NA
HETATM    7  C   UNL     1     -41.648  60.092 -57.977  1.00  0.00     0.210 A 
HETATM    8  N   UNL     1     -42.802  59.417 -58.281  1.00  0.00    -0.337 N 
HETATM    9  C   UNL     1     -42.856  59.463 -54.766  1.00  0.00     0.051 A 
ENDROOT
BRANCH   1  10
HETATM   10  C   UNL     1     -44.410  58.684 -52.970  1.00  0.00     0.253 C 
HETATM   11  N   UNL     1     -44.216  57.442 -52.353  1.00  0.00    -0.350 N 
HETATM   12  C   UNL     1     -44.736  57.282 -51.002  1.00  0.00     0.153 C 
HETATM   13  O   UNL     1     -44.879  59.663 -52.388  1.00  0.00    -0.267 OA
BRANCH  11  14
HETATM   14  C   UNL     1     -43.606  56.270 -53.014  1.00  0.00     0.158 C 
BRANCH  14  15
HETATM   15  C   UNL     1     -42.072  56.134 -52.926  1.00  0.00     0.151 A 
HETATM   16  O   UNL     1     -41.568  55.550 -54.157  1.00  0.00    -0.343 OA
HETATM   17  C   UNL     1     -41.003  54.360 -53.789  1.00  0.00     0.075 A 
HETATM   18  C   UNL     1     -41.027  54.119 -52.428  1.00  0.00    -0.022 A 
HETATM   19  C   UNL     1     -40.445  53.464 -54.677  1.00  0.00     0.037 A 
HETATM   20  C   UNL     1     -41.657  55.255 -51.728  1.00  0.00     0.075 A 
HETATM   21  C   UNL     1     -40.485  52.960 -51.901  1.00  0.00     0.010 A 
HETATM   22  C   UNL     1     -39.914  52.037 -52.781  1.00  0.00     0.001 A 
HETATM   23  C   UNL     1     -39.894  52.288 -54.162  1.00  0.00     0.003 A 
ENDBRANCH  14  15
ENDBRANCH  11  14
ENDBRANCH   1  10
BRANCH   3  24
HETATM   24  N   UNL     1     -45.438  57.788 -57.713  1.00  0.00    -0.323 N 
HETATM   25  C   UNL     1     -46.562  58.305 -58.341  1.00  0.00     0.246 C 
HETATM   26  O   UNL     1     -46.991  59.451 -58.268  1.00  0.00    -0.271 OA
HETATM   27  H   UNL     1     -45.249  56.828 -57.965  1.00  0.00     0.169 HD
BRANCH  25  28
HETATM   28  C   UNL     1     -47.225  57.267 -59.255  1.00  0.00     0.270 C 
BRANCH  28  29
HETATM   29  O   UNL     1     -47.235  57.662 -60.628  1.00  0.00    -0.387 OA
HETATM   30  C   UNL     1     -47.877  56.688 -61.450  1.00  0.00     0.202 C 
ENDBRANCH  28  29
ENDBRANCH  25  28
ENDBRANCH   3  24
BRANCH   8  31
HETATM   31  C   UNL     1     -43.213  59.185 -59.655  1.00  0.00     0.134 C 
BRANCH  31  32
HETATM   32  C   UNL     1     -42.517  57.960 -60.254  1.00  0.00     0.058 C 
BRANCH  32  33
HETATM   33  C   UNL     1     -43.206  56.648 -59.961  1.00  0.00    -0.057 A 
HETATM   34  C   UNL     1     -42.898  55.881 -58.830  1.00  0.00     0.007 A 
HETATM   35  C   UNL     1     -43.549  54.666 -58.597  1.00  0.00     0.001 A 
HETATM   36  C   UNL     1     -44.500  54.195 -59.499  1.00  0.00     0.000 A 
HETATM   37  C   UNL     1     -44.798  54.935 -60.640  1.00  0.00     0.001 A 
HETATM   38  C   UNL     1     -44.154  56.151 -60.871  1.00  0.00     0.007 A 
ENDBRANCH  32  33
ENDBRANCH  31  32
ENDBRANCH   8  31
TORSDOF 9
ENDMDL
MODEL 9
REMARK VINA RESULT:      -8.0      2.520      5.260
REMARK  9 active torsions:
REMARK  status: ('A' for Active; 'I' for Inactive)
REMARK       I    between atoms: N_2  and  C_3 
REMARK    1  A    between atoms: N_2  and  C_28 
REMARK    2  A    between atoms: C_3  and  C_4 
REMARK    3  A    between atoms: C_6  and  N_7 
REMARK       I    between atoms: N_7  and  C_8 
REMARK    4  A    between atoms: C_8  and  C_9 
REMARK    5  A    between atoms: C_9  and  O_10 
REMARK    6  A    between atoms: N_17  and  C_18 
REMARK    7  A    between atoms: C_18  and  C_19 
REMARK    8  A    between atoms: C_19  and  C_20 
REMARK    9  A    between atoms: C_28  and  C_29 
ROOT
HETATM    1  C   UNL     1     -43.875  58.530 -54.049  1.00  0.00     0.036 A 
HETATM    2  C   UNL     1     -43.217  58.145 -52.873  1.00  0.00     0.049 A 
HETATM    3  C   UNL     1     -42.358  57.032 -52.826  1.00  0.00     0.065 A 
HETATM    4  C   UNL     1     -42.223  56.292 -54.024  1.00  0.00     0.091 A 
HETATM    5  C   UNL     1     -42.864  56.689 -55.207  1.00  0.00     0.088 A 
HETATM    6  N   UNL     1     -42.594  55.841 -56.248  1.00  0.00    -0.242 NA
HETATM    7  C   UNL     1     -41.821  54.917 -55.737  1.00  0.00     0.210 A 
HETATM    8  N   UNL     1     -41.558  55.144 -54.411  1.00  0.00    -0.337 N 
HETATM    9  C   UNL     1     -43.666  57.835 -55.237  1.00  0.00     0.051 A 
ENDROOT
BRANCH   1  10
HETATM   10  C   UNL     1     -44.697  59.763 -54.027  1.00  0.00     0.253 C 
HETATM   11  N   UNL     1     -44.221  60.939 -54.619  1.00  0.00    -0.350 N 
HETATM   12  C   UNL     1     -45.002  62.151 -54.412  1.00  0.00     0.153 C 
HETATM   13  O   UNL     1     -45.787  59.685 -53.459  1.00  0.00    -0.267 OA
BRANCH  11  14
HETATM   14  C   UNL     1     -42.943  61.044 -55.352  1.00  0.00     0.158 C 
BRANCH  14  15
HETATM   15  C   UNL     1     -43.024  61.174 -56.888  1.00  0.00     0.151 A 
HETATM   16  O   UNL     1     -44.255  60.565 -57.360  1.00  0.00    -0.343 OA
HETATM   17  C   UNL     1     -43.862  59.527 -58.159  1.00  0.00     0.075 A 
HETATM   18  C   UNL     1     -42.493  59.419 -58.315  1.00  0.00    -0.022 A 
HETATM   19  C   UNL     1     -44.735  58.653 -58.774  1.00  0.00     0.037 A 
HETATM   20  C   UNL     1     -41.816  60.497 -57.569  1.00  0.00     0.075 A 
HETATM   21  C   UNL     1     -41.942  58.423 -59.103  1.00  0.00     0.010 A 
HETATM   22  C   UNL     1     -42.807  57.526 -59.735  1.00  0.00     0.001 A 
HETATM   23  C   UNL     1     -44.197  57.641 -59.571  1.00  0.00     0.003 A 
ENDBRANCH  14  15
ENDBRANCH  11  14
ENDBRANCH   1  10
BRANCH   3  24
HETATM   24  N   UNL     1     -41.632  56.696 -51.670  1.00  0.00    -0.323 N 
HETATM   25  C   UNL     1     -42.022  55.879 -50.619  1.00  0.00     0.246 C 
HETATM   26  O   UNL     1     -43.030  55.184 -50.554  1.00  0.00    -0.271 OA
HETATM   27  H   UNL     1     -40.734  57.134 -51.521  1.00  0.00     0.169 HD
BRANCH  25  28
HETATM   28  C   UNL     1     -40.975  55.863 -49.499  1.00  0.00     0.270 C 
BRANCH  28  29
HETATM   29  O   UNL     1     -40.172  54.681 -49.506  1.00  0.00    -0.387 OA
HETATM   30  C   UNL     1     -40.443  53.856 -48.373  1.00  0.00     0.202 C 
ENDBRANCH  28  29
ENDBRANCH  25  28
ENDBRANCH   3  24
BRANCH   8  31
HETATM   31  C   UNL     1     -40.730  54.242 -53.629  1.00  0.00     0.134 C 
BRANCH  31  32
HETATM   32  C   UNL     1     -40.291  53.026 -54.448  1.00  0.00     0.058 C 
BRANCH  32  33
HETATM   33  C   UNL     1     -39.996  51.795 -53.623  1.00  0.00    -0.057 A 
HETATM   34  C   UNL     1     -39.910  50.518 -54.194  1.00  0.00     0.007 A 
HETATM   35  C   UNL     1     -39.644  49.401 -53.397  1.00  0.00     0.001 A 
HETATM   36  C   UNL     1     -39.483  49.542 -52.021  1.00  0.00     0.000 A 
HETATM   37  C   UNL     1     -39.591  50.801 -51.436  1.00  0.00     0.001 A 
HETATM   38  C   UNL     1     -39.848  51.919 -52.231  1.00  0.00     0.007 A 
ENDBRANCH  32  33
ENDBRANCH  31  32
ENDBRANCH   8  31
TORSDOF 9
ENDMDL
MODEL 10
REMARK VINA RESULT:      -7.9      2.078      3.404
REMARK  9 active torsions:
REMARK  status: ('A' for Active; 'I' for Inactive)
REMARK       I    between atoms: N_2  and  C_3 
REMARK    1  A    between atoms: N_2  and  C_28 
REMARK    2  A    between atoms: C_3  and  C_4 
REMARK    3  A    between atoms: C_6  and  N_7 
REMARK       I    between atoms: N_7  and  C_8 
REMARK    4  A    between atoms: C_8  and  C_9 
REMARK    5  A    between atoms: C_9  and  O_10 
REMARK    6  A    between atoms: N_17  and  C_18 
REMARK    7  A    between atoms: C_18  and  C_19 
REMARK    8  A    between atoms: C_19  and  C_20 
REMARK    9  A    between atoms: C_28  and  C_29 
ROOT
HETATM    1  C   UNL     1     -42.119  58.632 -51.570  1.00  0.00     0.036 A 
HETATM    2  C   UNL     1     -41.973  58.425 -52.947  1.00  0.00     0.049 A 
HETATM    3  C   UNL     1     -42.073  57.146 -53.527  1.00  0.00     0.065 A 
HETATM    4  C   UNL     1     -42.289  56.068 -52.636  1.00  0.00     0.091 A 
HETATM    5  C   UNL     1     -42.456  56.279 -51.259  1.00  0.00     0.088 A 
HETATM    6  N   UNL     1     -42.662  55.106 -50.582  1.00  0.00    -0.242 NA
HETATM    7  C   UNL     1     -42.604  54.174 -51.497  1.00  0.00     0.210 A 
HETATM    8  N   UNL     1     -42.393  54.696 -52.748  1.00  0.00    -0.337 N 
HETATM    9  C   UNL     1     -42.410  57.568 -50.720  1.00  0.00     0.051 A 
ENDROOT
BRANCH   1  10
HETATM   10  C   UNL     1     -42.079  60.023 -51.057  1.00  0.00     0.253 C 
HETATM   11  N   UNL     1     -43.139  60.901 -51.316  1.00  0.00    -0.350 N 
HETATM   12  C   UNL     1     -42.957  62.293 -50.931  1.00  0.00     0.153 C 
HETATM   13  O   UNL     1     -41.075  60.343 -50.420  1.00  0.00    -0.267 OA
BRANCH  11  14
HETATM   14  C   UNL     1     -44.376  60.525 -52.030  1.00  0.00     0.158 C 
BRANCH  14  15
HETATM   15  C   UNL     1     -45.654  60.362 -51.182  1.00  0.00     0.151 A 
HETATM   16  O   UNL     1     -46.260  61.665 -50.967  1.00  0.00    -0.343 OA
HETATM   17  C   UNL     1     -46.217  61.865 -49.614  1.00  0.00     0.075 A 
HETATM   18  C   UNL     1     -45.699  60.801 -48.900  1.00  0.00    -0.022 A 
HETATM   19  C   UNL     1     -46.654  63.016 -48.990  1.00  0.00     0.037 A 
HETATM   20  C   UNL     1     -45.342  59.705 -49.821  1.00  0.00     0.075 A 
HETATM   21  C   UNL     1     -45.600  60.850 -47.520  1.00  0.00     0.010 A 
HETATM   22  C   UNL     1     -46.035  62.006 -46.867  1.00  0.00     0.001 A 
HETATM   23  C   UNL     1     -46.560  63.083 -47.598  1.00  0.00     0.003 A 
ENDBRANCH  14  15
ENDBRANCH  11  14
ENDBRANCH   1  10
BRANCH   3  24
HETATM   24  N   UNL     1     -42.011  56.948 -54.917  1.00  0.00    -0.323 N 
HETATM   25  C   UNL     1     -43.057  56.927 -55.829  1.00  0.00     0.246 C 
HETATM   26  O   UNL     1     -44.230  57.208 -55.617  1.00  0.00    -0.271 OA
HETATM   27  H   UNL     1     -41.117  56.728 -55.333  1.00  0.00     0.169 HD
BRANCH  25  28
HETATM   28  C   UNL     1     -42.568  56.568 -57.238  1.00  0.00     0.270 C 
BRANCH  28  29
HETATM   29  O   UNL     1     -43.562  56.786 -58.241  1.00  0.00    -0.387 OA
HETATM   30  C   UNL     1     -43.766  55.620 -59.038  1.00  0.00     0.202 C 
ENDBRANCH  28  29
ENDBRANCH  25  28
ENDBRANCH   3  24
BRANCH   8  31
HETATM   31  C   UNL     1     -42.281  53.848 -53.922  1.00  0.00     0.134 C 
BRANCH  31  32
HETATM   32  C   UNL     1     -40.823  53.501 -54.232  1.00  0.00     0.058 C 
BRANCH  32  33
HETATM   33  C   UNL     1     -40.367  52.175 -53.670  1.00  0.00    -0.057 A 
HETATM   34  C   UNL     1     -39.881  52.048 -52.361  1.00  0.00     0.007 A 
HETATM   35  C   UNL     1     -39.458  50.807 -51.878  1.00  0.00     0.001 A 
HETATM   36  C   UNL     1     -39.496  49.683 -52.700  1.00  0.00     0.000 A 
HETATM   37  C   UNL     1     -39.953  49.799 -54.011  1.00  0.00     0.001 A 
HETATM   38  C   UNL     1     -40.383  51.037 -54.493  1.00  0.00     0.007 A 
ENDBRANCH  32  33
ENDBRANCH  31  32
ENDBRANCH   8  31
TORSDOF 9
ENDMDL
