MODEL 1
REMARK VINA RESULT:      -7.5      0.000      0.000
REMARK  5 active torsions:
REMARK  status: ('A' for Active; 'I' for Inactive)
REMARK    1  A    between atoms: C_10  and  N_11 
REMARK    2  A    between atoms: N_11  and  C_12 
REMARK    3  A    between atoms: C_12  and  C_13 
REMARK    4  A    between atoms: C_13  and  N_14 
REMARK       I    between atoms: N_14  and  C_15 
REMARK    5  A    between atoms: C_15  and  C_16 
ROOT
HETATM    1  C   UNL     1     -39.585  49.872 -54.759  1.00  0.00     0.048 C 
HETATM    2  C   UNL     1     -39.758  50.618 -53.466  1.00  0.00    -0.060 A 
HETATM    3  C   UNL     1     -40.131  51.967 -53.461  1.00  0.00     0.037 A 
HETATM    4  C   UNL     1     -40.314  52.646 -52.249  1.00  0.00     0.044 A 
HETATM    5  C   UNL     1     -40.139  51.977 -51.024  1.00  0.00    -0.009 A 
HETATM    6  C   UNL     1     -39.779  50.622 -51.035  1.00  0.00     0.014 A 
HETATM    7  C   UNL     1     -39.595  49.950 -52.246  1.00  0.00     0.007 A 
HETATM    8  N   UNL     1     -40.654  53.945 -52.242  1.00  0.00    -0.346 N 
HETATM    9  H   UNL     1     -40.781  54.392 -53.142  1.00  0.00     0.167 HD
HETATM   10  C   UNL     1     -40.828  54.686 -51.132  1.00  0.00     0.086 A 
HETATM   11  C   UNL     1     -40.709  54.045 -49.883  1.00  0.00    -0.023 A 
HETATM   12  C   UNL     1     -40.921  54.781 -48.586  1.00  0.00     0.052 C 
HETATM   13  C   UNL     1     -40.341  52.693 -49.841  1.00  0.00     0.023 A 
ENDROOT
BRANCH  10  14
HETATM   14  N   UNL     1     -41.201  56.031 -51.217  1.00  0.00    -0.277 NA
HETATM   15  H   UNL     1     -40.582  56.544 -51.849  1.00  0.00     0.129 HD
BRANCH  14  16
HETATM   16  C   UNL     1     -42.612  56.351 -51.433  1.00  0.00     0.113 C 
BRANCH  16  17
HETATM   17  C   UNL     1     -42.865  57.129 -52.730  1.00  0.00     0.137 C 
BRANCH  17  18
HETATM   18  N   UNL     1     -42.940  56.332 -53.952  1.00  0.00    -0.360 N 
HETATM   19  C   UNL     1     -41.866  55.877 -54.692  1.00  0.00     0.221 C 
HETATM   20  O   UNL     1     -40.698  56.126 -54.401  1.00  0.00    -0.273 OA
HETATM   21  H   UNL     1     -43.866  56.041 -54.245  1.00  0.00     0.162 HD
BRANCH  19  22
HETATM   22  C   UNL     1     -42.262  55.030 -55.901  1.00  0.00     0.070 C 
HETATM   23  C   UNL     1     -43.220  53.915 -55.488  1.00  0.00     0.019 C 
HETATM   24  C   UNL     1     -42.896  55.898 -56.987  1.00  0.00     0.019 C 
ENDBRANCH  19  22
ENDBRANCH  17  18
ENDBRANCH  16  17
ENDBRANCH  14  16
ENDBRANCH  10  14
TORSDOF 5
ENDMDL
MODEL 2
REMARK VINA RESULT:      -7.4      1.452      2.005
REMARK  5 active torsions:
REMARK  status: ('A' for Active; 'I' for Inactive)
REMARK    1  A    between atoms: C_10  and  N_11 
REMARK    2  A    between atoms: N_11  and  C_12 
REMARK    3  A    between atoms: C_12  and  C_13 
REMARK    4  A    between atoms: C_13  and  N_14 
REMARK       I    between atoms: N_14  and  C_15 
REMARK    5  A    between atoms: C_15  and  C_16 
ROOT
HETATM    1  C   UNL     1     -39.631  49.891 -54.570  1.00  0.00     0.048 C 
HETATM    2  C   UNL     1     -39.858  51.031 -53.618  1.00  0.00    -0.060 A 
HETATM    3  C   UNL     1     -40.384  52.248 -54.066  1.00  0.00     0.037 A 
HETATM    4  C   UNL     1     -40.615  53.296 -53.165  1.00  0.00     0.044 A 
HETATM    5  C   UNL     1     -40.335  53.132 -51.796  1.00  0.00    -0.009 A 
HETATM    6  C   UNL     1     -39.821  51.906 -51.349  1.00  0.00     0.014 A 
HETATM    7  C   UNL     1     -39.590  50.866 -52.253  1.00  0.00     0.007 A 
HETATM    8  N   UNL     1     -41.102  54.470 -53.597  1.00  0.00    -0.346 N 
HETATM    9  H   UNL     1     -41.302  54.548 -54.587  1.00  0.00     0.167 HD
HETATM   10  C   UNL     1     -41.334  55.539 -52.813  1.00  0.00     0.086 A 
HETATM   11  C   UNL     1     -41.111  55.405 -51.429  1.00  0.00    -0.023 A 
HETATM   12  C   UNL     1     -41.376  56.532 -50.466  1.00  0.00     0.052 C 
HETATM   13  C   UNL     1     -40.589  54.202 -50.934  1.00  0.00     0.023 A 
ENDROOT
BRANCH  10  14
HETATM   14  N   UNL     1     -41.862  56.719 -53.346  1.00  0.00    -0.277 NA
HETATM   15  H   UNL     1     -41.454  56.923 -54.261  1.00  0.00     0.129 HD
BRANCH  14  16
HETATM   16  C   UNL     1     -43.312  56.906 -53.323  1.00  0.00     0.113 C 
BRANCH  16  17
HETATM   17  C   UNL     1     -44.053  56.020 -54.333  1.00  0.00     0.137 C 
BRANCH  17  18
HETATM   18  N   UNL     1     -43.886  56.373 -55.740  1.00  0.00    -0.360 N 
HETATM   19  C   UNL     1     -42.933  55.858 -56.599  1.00  0.00     0.221 C 
HETATM   20  O   UNL     1     -42.084  55.043 -56.248  1.00  0.00    -0.273 OA
HETATM   21  H   UNL     1     -44.572  57.009 -56.131  1.00  0.00     0.162 HD
BRANCH  19  22
HETATM   22  C   UNL     1     -43.035  56.392 -58.027  1.00  0.00     0.070 C 
HETATM   23  C   UNL     1     -43.702  55.366 -58.941  1.00  0.00     0.019 C 
HETATM   24  C   UNL     1     -43.807  57.711 -58.060  1.00  0.00     0.019 C 
ENDBRANCH  19  22
ENDBRANCH  17  18
ENDBRANCH  16  17
ENDBRANCH  14  16
ENDBRANCH  10  14
TORSDOF 5
ENDMDL
MODEL 3
REMARK VINA RESULT:      -7.4      2.600      3.828
REMARK  5 active torsions:
REMARK  status: ('A' for Active; 'I' for Inactive)
REMARK    1  A    between atoms: C_10  and  N_11 
REMARK    2  A    between atoms: N_11  and  C_12 
REMARK    3  A    between atoms: C_12  and  C_13 
REMARK    4  A    between atoms: C_13  and  N_14 
REMARK       I    between atoms: N_14  and  C_15 
REMARK    5  A    between atoms: C_15  and  C_16 
ROOT
HETATM    1  C   UNL     1     -39.335  50.004 -54.285  1.00  0.00     0.048 C 
HETATM    2  C   UNL     1     -39.964  51.261 -53.752  1.00  0.00    -0.060 A 
HETATM    3  C   UNL     1     -40.887  51.982 -54.518  1.00  0.00     0.037 A 
HETATM    4  C   UNL     1     -41.485  53.139 -54.002  1.00  0.00     0.044 A 
HETATM    5  C   UNL     1     -41.176  53.582 -52.703  1.00  0.00    -0.009 A 
HETATM    6  C   UNL     1     -40.261  52.849 -51.935  1.00  0.00     0.014 A 
HETATM    7  C   UNL     1     -39.665  51.697 -52.456  1.00  0.00     0.007 A 
HETATM    8  N   UNL     1     -42.358  53.842 -54.742  1.00  0.00    -0.346 N 
HETATM    9  H   UNL     1     -42.564  53.487 -55.668  1.00  0.00     0.167 HD
HETATM   10  C   UNL     1     -42.963  54.975 -54.343  1.00  0.00     0.086 A 
HETATM   11  C   UNL     1     -42.719  55.430 -53.032  1.00  0.00    -0.023 A 
HETATM   12  C   UNL     1     -43.378  56.667 -52.482  1.00  0.00     0.052 C 
HETATM   13  C   UNL     1     -41.804  54.736 -52.228  1.00  0.00     0.023 A 
ENDROOT
BRANCH  10  14
HETATM   14  N   UNL     1     -43.876  55.633 -55.174  1.00  0.00    -0.277 NA
HETATM   15  H   UNL     1     -44.782  55.738 -54.713  1.00  0.00     0.129 HD
BRANCH  14  16
HETATM   16  C   UNL     1     -43.445  56.856 -55.851  1.00  0.00     0.113 C 
BRANCH  16  17
HETATM   17  C   UNL     1     -42.850  56.601 -57.242  1.00  0.00     0.137 C 
BRANCH  17  18
HETATM   18  N   UNL     1     -43.702  55.873 -58.180  1.00  0.00    -0.360 N 
HETATM   19  C   UNL     1     -43.486  55.740 -59.538  1.00  0.00     0.221 C 
HETATM   20  O   UNL     1     -42.537  56.261 -60.120  1.00  0.00    -0.273 OA
HETATM   21  H   UNL     1     -44.488  55.373 -57.781  1.00  0.00     0.162 HD
BRANCH  19  22
HETATM   22  C   UNL     1     -44.532  54.883 -60.250  1.00  0.00     0.070 C 
HETATM   23  C   UNL     1     -44.804  53.602 -59.464  1.00  0.00     0.019 C 
HETATM   24  C   UNL     1     -45.828  55.666 -60.453  1.00  0.00     0.019 C 
ENDBRANCH  19  22
ENDBRANCH  17  18
ENDBRANCH  16  17
ENDBRANCH  14  16
ENDBRANCH  10  14
TORSDOF 5
ENDMDL
MODEL 4
REMARK VINA RESULT:      -7.4      1.835      2.841
REMARK  5 active torsions:
REMARK  status: ('A' for Active; 'I' for Inactive)
REMARK    1  A    between atoms: C_10  and  N_11 
REMARK    2  A    between atoms: N_11  and  C_12 
REMARK    3  A    between atoms: C_12  and  C_13 
REMARK    4  A    between atoms: C_13  and  N_14 
REMARK       I    between atoms: N_14  and  C_15 
REMARK    5  A    between atoms: C_15  and  C_16 
ROOT
HETATM    1  C   UNL     1     -39.502  49.967 -54.511  1.00  0.00     0.048 C 
HETATM    2  C   UNL     1     -39.931  51.174 -53.725  1.00  0.00    -0.060 A 
HETATM    3  C   UNL     1     -40.852  52.085 -54.255  1.00  0.00     0.037 A 
HETATM    4  C   UNL     1     -41.265  53.194 -53.504  1.00  0.00     0.044 A 
HETATM    5  C   UNL     1     -40.770  53.397 -52.203  1.00  0.00    -0.009 A 
HETATM    6  C   UNL     1     -39.858  52.473 -51.671  1.00  0.00     0.014 A 
HETATM    7  C   UNL     1     -39.448  51.371 -52.426  1.00  0.00     0.007 A 
HETATM    8  N   UNL     1     -42.134  54.079 -54.018  1.00  0.00    -0.346 N 
HETATM    9  H   UNL     1     -42.477  53.895 -54.954  1.00  0.00     0.167 HD
HETATM   10  C   UNL     1     -42.569  55.183 -53.384  1.00  0.00     0.086 A 
HETATM   11  C   UNL     1     -42.136  55.401 -52.062  1.00  0.00    -0.023 A 
HETATM   12  C   UNL     1     -42.596  56.588 -51.258  1.00  0.00     0.052 C 
HETATM   13  C   UNL     1     -41.216  54.511 -51.489  1.00  0.00     0.023 A 
ENDROOT
BRANCH  10  14
HETATM   14  N   UNL     1     -43.492  56.042 -53.989  1.00  0.00    -0.277 NA
HETATM   15  H   UNL     1     -44.315  56.172 -53.396  1.00  0.00     0.129 HD
BRANCH  14  16
HETATM   16  C   UNL     1     -43.006  57.298 -54.559  1.00  0.00     0.113 C 
BRANCH  16  17
HETATM   17  C   UNL     1     -41.956  57.098 -55.659  1.00  0.00     0.137 C 
BRANCH  17  18
HETATM   18  N   UNL     1     -42.473  56.915 -57.013  1.00  0.00    -0.360 N 
HETATM   19  C   UNL     1     -43.045  55.761 -57.515  1.00  0.00     0.221 C 
HETATM   20  O   UNL     1     -43.158  54.728 -56.859  1.00  0.00    -0.273 OA
HETATM   21  H   UNL     1     -42.462  57.730 -57.615  1.00  0.00     0.162 HD
BRANCH  19  22
HETATM   22  C   UNL     1     -43.530  55.889 -58.959  1.00  0.00     0.070 C 
HETATM   23  C   UNL     1     -42.366  56.222 -59.890  1.00  0.00     0.019 C 
HETATM   24  C   UNL     1     -44.222  54.605 -59.415  1.00  0.00     0.019 C 
ENDBRANCH  19  22
ENDBRANCH  17  18
ENDBRANCH  16  17
ENDBRANCH  14  16
ENDBRANCH  10  14
TORSDOF 5
ENDMDL
MODEL 5
REMARK VINA RESULT:      -7.2      2.021      2.720
REMARK  5 active torsions:
REMARK  status: ('A' for Active; 'I' for Inactive)
REMARK    1  A    between atoms: C_10  and  N_11 
REMARK    2  A    between atoms: N_11  and  C_12 
REMARK    3  A    between atoms: C_12  and  C_13 
REMARK    4  A    between atoms: C_13  and  N_14 
REMARK       I    between atoms: N_14  and  C_15 
REMARK    5  A    between atoms: C_15  and  C_16 
ROOT
HETATM    1  C   UNL     1     -39.618  49.904 -54.544  1.00  0.00     0.048 C 
HETATM    2  C   UNL     1     -39.886  51.068 -53.632  1.00  0.00    -0.060 A 
HETATM    3  C   UNL     1     -40.536  52.214 -54.104  1.00  0.00     0.037 A 
HETATM    4  C   UNL     1     -40.803  53.284 -53.238  1.00  0.00     0.044 A 
HETATM    5  C   UNL     1     -40.434  53.212 -51.883  1.00  0.00    -0.009 A 
HETATM    6  C   UNL     1     -39.795  52.056 -51.412  1.00  0.00     0.014 A 
HETATM    7  C   UNL     1     -39.529  50.994 -52.280  1.00  0.00     0.007 A 
HETATM    8  N   UNL     1     -41.410  54.392 -53.693  1.00  0.00    -0.346 N 
HETATM    9  H   UNL     1     -41.670  54.403 -54.672  1.00  0.00     0.167 HD
HETATM   10  C   UNL     1     -41.686  55.476 -52.946  1.00  0.00     0.086 A 
HETATM   11  C   UNL     1     -41.376  55.430 -51.573  1.00  0.00    -0.023 A 
HETATM   12  C   UNL     1     -41.679  56.579 -50.649  1.00  0.00     0.052 C 
HETATM   13  C   UNL     1     -40.728  54.299 -51.056  1.00  0.00     0.023 A 
ENDROOT
BRANCH  10  14
HETATM   14  N   UNL     1     -42.340  56.582 -53.499  1.00  0.00    -0.277 NA
HETATM   15  H   UNL     1     -42.761  57.161 -52.770  1.00  0.00     0.129 HD
BRANCH  14  16
HETATM   16  C   UNL     1     -41.639  57.373 -54.510  1.00  0.00     0.113 C 
BRANCH  16  17
HETATM   17  C   UNL     1     -42.532  57.779 -55.689  1.00  0.00     0.137 C 
BRANCH  17  18
HETATM   18  N   UNL     1     -42.327  57.042 -56.933  1.00  0.00    -0.360 N 
HETATM   19  C   UNL     1     -43.265  56.852 -57.930  1.00  0.00     0.221 C 
HETATM   20  O   UNL     1     -44.416  57.277 -57.857  1.00  0.00    -0.273 OA
HETATM   21  H   UNL     1     -41.390  56.691 -57.101  1.00  0.00     0.162 HD
BRANCH  19  22
HETATM   22  C   UNL     1     -42.740  56.071 -59.134  1.00  0.00     0.070 C 
HETATM   23  C   UNL     1     -43.861  55.261 -59.781  1.00  0.00     0.019 C 
HETATM   24  C   UNL     1     -42.106  57.012 -60.157  1.00  0.00     0.019 C 
ENDBRANCH  19  22
ENDBRANCH  17  18
ENDBRANCH  16  17
ENDBRANCH  14  16
ENDBRANCH  10  14
TORSDOF 5
ENDMDL
MODEL 6
REMARK VINA RESULT:      -7.0      2.137      4.381
REMARK  5 active torsions:
REMARK  status: ('A' for Active; 'I' for Inactive)
REMARK    1  A    between atoms: C_10  and  N_11 
REMARK    2  A    between atoms: N_11  and  C_12 
REMARK    3  A    between atoms: C_12  and  C_13 
REMARK    4  A    between atoms: C_13  and  N_14 
REMARK       I    between atoms: N_14  and  C_15 
REMARK    5  A    between atoms: C_15  and  C_16 
ROOT
HETATM    1  C   UNL     1     -39.296  49.936 -50.838  1.00  0.00     0.048 C 
HETATM    2  C   UNL     1     -39.740  50.831 -51.962  1.00  0.00    -0.060 A 
HETATM    3  C   UNL     1     -40.236  52.114 -51.705  1.00  0.00     0.037 A 
HETATM    4  C   UNL     1     -40.623  52.949 -52.762  1.00  0.00     0.044 A 
HETATM    5  C   UNL     1     -40.505  52.512 -54.094  1.00  0.00    -0.009 A 
HETATM    6  C   UNL     1     -39.995  51.231 -54.347  1.00  0.00     0.014 A 
HETATM    7  C   UNL     1     -39.613  50.402 -53.289  1.00  0.00     0.007 A 
HETATM    8  N   UNL     1     -41.116  54.174 -52.516  1.00  0.00    -0.346 N 
HETATM    9  H   UNL     1     -41.176  54.458 -51.546  1.00  0.00     0.167 HD
HETATM   10  C   UNL     1     -41.535  55.035 -53.461  1.00  0.00     0.086 A 
HETATM   11  C   UNL     1     -41.392  54.658 -54.811  1.00  0.00    -0.023 A 
HETATM   12  C   UNL     1     -41.798  55.567 -55.940  1.00  0.00     0.052 C 
HETATM   13  C   UNL     1     -40.896  53.382 -55.115  1.00  0.00     0.023 A 
ENDROOT
BRANCH  10  14
HETATM   14  N   UNL     1     -42.017  56.301 -53.116  1.00  0.00    -0.277 NA
HETATM   15  H   UNL     1     -41.747  56.999 -53.812  1.00  0.00     0.129 HD
BRANCH  14  16
HETATM   16  C   UNL     1     -43.417  56.427 -52.709  1.00  0.00     0.113 C 
BRANCH  16  17
HETATM   17  C   UNL     1     -43.587  56.915 -51.265  1.00  0.00     0.137 C 
BRANCH  17  18
HETATM   18  N   UNL     1     -42.680  57.977 -50.836  1.00  0.00    -0.360 N 
HETATM   19  C   UNL     1     -41.366  57.815 -50.443  1.00  0.00     0.221 C 
HETATM   20  O   UNL     1     -40.813  56.718 -50.388  1.00  0.00    -0.273 OA
HETATM   21  H   UNL     1     -43.037  58.925 -50.891  1.00  0.00     0.162 HD
BRANCH  19  22
HETATM   22  C   UNL     1     -40.659  59.123 -50.089  1.00  0.00     0.070 C 
HETATM   23  C   UNL     1     -39.360  59.265 -50.879  1.00  0.00     0.019 C 
HETATM   24  C   UNL     1     -41.571  60.321 -50.350  1.00  0.00     0.019 C 
ENDBRANCH  19  22
ENDBRANCH  17  18
ENDBRANCH  16  17
ENDBRANCH  14  16
ENDBRANCH  10  14
TORSDOF 5
ENDMDL
MODEL 7
REMARK VINA RESULT:      -6.9      2.869      4.134
REMARK  5 active torsions:
REMARK  status: ('A' for Active; 'I' for Inactive)
REMARK    1  A    between atoms: C_10  and  N_11 
REMARK    2  A    between atoms: N_11  and  C_12 
REMARK    3  A    between atoms: C_12  and  C_13 
REMARK    4  A    between atoms: C_13  and  N_14 
REMARK       I    between atoms: N_14  and  C_15 
REMARK    5  A    between atoms: C_15  and  C_16 
ROOT
HETATM    1  C   UNL     1     -39.739  49.928 -54.865  1.00  0.00     0.048 C 
HETATM    2  C   UNL     1     -39.891  50.872 -53.705  1.00  0.00    -0.060 A 
HETATM    3  C   UNL     1     -40.483  52.128 -53.875  1.00  0.00     0.037 A 
HETATM    4  C   UNL     1     -40.643  52.990 -52.782  1.00  0.00     0.044 A 
HETATM    5  C   UNL     1     -40.224  52.597 -51.498  1.00  0.00    -0.009 A 
HETATM    6  C   UNL     1     -39.643  51.332 -51.330  1.00  0.00     0.014 A 
HETATM    7  C   UNL     1     -39.484  50.478 -52.425  1.00  0.00     0.007 A 
HETATM    8  N   UNL     1     -41.195  54.203 -52.947  1.00  0.00    -0.346 N 
HETATM    9  H   UNL     1     -41.495  54.448 -53.883  1.00  0.00     0.167 HD
HETATM   10  C   UNL     1     -41.368  55.106 -51.965  1.00  0.00     0.086 A 
HETATM   11  C   UNL     1     -41.005  54.738 -50.655  1.00  0.00    -0.023 A 
HETATM   12  C   UNL     1     -41.193  55.666 -49.484  1.00  0.00     0.052 C 
HETATM   13  C   UNL     1     -40.411  53.486 -50.437  1.00  0.00     0.023 A 
ENDROOT
BRANCH  10  14
HETATM   14  N   UNL     1     -41.970  56.342 -52.223  1.00  0.00    -0.277 NA
HETATM   15  H   UNL     1     -41.444  56.867 -52.925  1.00  0.00     0.129 HD
BRANCH  14  16
HETATM   16  C   UNL     1     -43.413  56.378 -52.459  1.00  0.00     0.113 C 
BRANCH  16  17
HETATM   17  C   UNL     1     -44.206  56.947 -51.276  1.00  0.00     0.137 C 
BRANCH  17  18
HETATM   18  N   UNL     1     -44.124  58.392 -51.084  1.00  0.00    -0.360 N 
HETATM   19  C   UNL     1     -45.125  59.205 -50.586  1.00  0.00     0.221 C 
HETATM   20  O   UNL     1     -46.234  58.783 -50.268  1.00  0.00    -0.273 OA
HETATM   21  H   UNL     1     -43.227  58.823 -51.279  1.00  0.00     0.162 HD
BRANCH  19  22
HETATM   22  C   UNL     1     -44.725  60.674 -50.463  1.00  0.00     0.070 C 
HETATM   23  C   UNL     1     -45.513  61.356 -49.346  1.00  0.00     0.019 C 
HETATM   24  C   UNL     1     -43.224  60.810 -50.211  1.00  0.00     0.019 C 
ENDBRANCH  19  22
ENDBRANCH  17  18
ENDBRANCH  16  17
ENDBRANCH  14  16
ENDBRANCH  10  14
TORSDOF 5
ENDMDL
MODEL 8
REMARK VINA RESULT:      -6.8      2.645      3.894
REMARK  5 active torsions:
REMARK  status: ('A' for Active; 'I' for Inactive)
REMARK    1  A    between atoms: C_10  and  N_11 
REMARK    2  A    between atoms: N_11  and  C_12 
REMARK    3  A    between atoms: C_12  and  C_13 
REMARK    4  A    between atoms: C_13  and  N_14 
REMARK       I    between atoms: N_14  and  C_15 
REMARK    5  A    between atoms: C_15  and  C_16 
ROOT
HETATM    1  C   UNL     1     -39.632  49.949 -54.685  1.00  0.00     0.048 C 
HETATM    2  C   UNL     1     -39.837  50.996 -53.627  1.00  0.00    -0.060 A 
HETATM    3  C   UNL     1     -40.361  52.252 -53.952  1.00  0.00     0.037 A 
HETATM    4  C   UNL     1     -40.572  53.213 -52.953  1.00  0.00     0.044 A 
HETATM    5  C   UNL     1     -40.271  52.921 -51.610  1.00  0.00    -0.009 A 
HETATM    6  C   UNL     1     -39.759  51.656 -51.287  1.00  0.00     0.014 A 
HETATM    7  C   UNL     1     -39.548  50.704 -52.288  1.00  0.00     0.007 A 
HETATM    8  N   UNL     1     -41.058  54.425 -53.266  1.00  0.00    -0.346 N 
HETATM    9  H   UNL     1     -41.273  54.595 -54.241  1.00  0.00     0.167 HD
HETATM   10  C   UNL     1     -41.271  55.416 -52.382  1.00  0.00     0.086 A 
HETATM   11  C   UNL     1     -41.028  55.153 -51.020  1.00  0.00    -0.023 A 
HETATM   12  C   UNL     1     -41.270  56.187 -49.952  1.00  0.00     0.052 C 
HETATM   13  C   UNL     1     -40.505  53.906 -50.647  1.00  0.00     0.023 A 
ENDROOT
BRANCH  10  14
HETATM   14  N   UNL     1     -41.800  56.644 -52.794  1.00  0.00    -0.277 NA
HETATM   15  H   UNL     1     -42.257  57.125 -52.016  1.00  0.00     0.129 HD
BRANCH  14  16
HETATM   16  C   UNL     1     -40.955  57.536 -53.587  1.00  0.00     0.113 C 
BRANCH  16  17
HETATM   17  C   UNL     1     -40.468  58.763 -52.806  1.00  0.00     0.137 C 
BRANCH  17  18
HETATM   18  N   UNL     1     -41.496  59.728 -52.422  1.00  0.00    -0.360 N 
HETATM   19  C   UNL     1     -41.789  60.133 -51.134  1.00  0.00     0.221 C 
HETATM   20  O   UNL     1     -41.213  59.687 -50.144  1.00  0.00    -0.273 OA
HETATM   21  H   UNL     1     -41.995  60.182 -53.179  1.00  0.00     0.162 HD
BRANCH  19  22
HETATM   22  C   UNL     1     -42.891  61.188 -51.052  1.00  0.00     0.070 C 
HETATM   23  C   UNL     1     -43.812  61.100 -52.268  1.00  0.00     0.019 C 
HETATM   24  C   UNL     1     -43.698  61.032 -49.764  1.00  0.00     0.019 C 
ENDBRANCH  19  22
ENDBRANCH  17  18
ENDBRANCH  16  17
ENDBRANCH  14  16
ENDBRANCH  10  14
TORSDOF 5
ENDMDL
MODEL 9
REMARK VINA RESULT:      -6.7      2.189      4.663
REMARK  5 active torsions:
REMARK  status: ('A' for Active; 'I' for Inactive)
REMARK    1  A    between atoms: C_10  and  N_11 
REMARK    2  A    between atoms: N_11  and  C_12 
REMARK    3  A    between atoms: C_12  and  C_13 
REMARK    4  A    between atoms: C_13  and  N_14 
REMARK       I    between atoms: N_14  and  C_15 
REMARK    5  A    between atoms: C_15  and  C_16 
ROOT
HETATM    1  C   UNL     1     -40.392  53.888 -48.758  1.00  0.00     0.048 C 
HETATM    2  C   UNL     1     -40.770  53.792 -50.210  1.00  0.00    -0.060 A 
HETATM    3  C   UNL     1     -41.872  54.493 -50.712  1.00  0.00     0.037 A 
HETATM    4  C   UNL     1     -42.201  54.415 -52.072  1.00  0.00     0.044 A 
HETATM    5  C   UNL     1     -41.419  53.644 -52.951  1.00  0.00    -0.009 A 
HETATM    6  C   UNL     1     -40.308  52.954 -52.445  1.00  0.00     0.014 A 
HETATM    7  C   UNL     1     -39.986  53.033 -51.088  1.00  0.00     0.007 A 
HETATM    8  N   UNL     1     -43.269  55.073 -52.552  1.00  0.00    -0.346 N 
HETATM    9  H   UNL     1     -43.802  55.626 -51.893  1.00  0.00     0.167 HD
HETATM   10  C   UNL     1     -43.676  55.040 -53.834  1.00  0.00     0.086 A 
HETATM   11  C   UNL     1     -42.897  54.318 -54.759  1.00  0.00    -0.023 A 
HETATM   12  C   UNL     1     -43.251  54.252 -56.220  1.00  0.00     0.052 C 
HETATM   13  C   UNL     1     -41.781  53.603 -54.300  1.00  0.00     0.023 A 
ENDROOT
BRANCH  10  14
HETATM   14  N   UNL     1     -44.792  55.773 -54.252  1.00  0.00    -0.277 NA
HETATM   15  H   UNL     1     -45.526  55.760 -53.541  1.00  0.00     0.129 HD
BRANCH  14  16
HETATM   16  C   UNL     1     -44.580  57.105 -54.816  1.00  0.00     0.113 C 
BRANCH  16  17
HETATM   17  C   UNL     1     -44.569  58.216 -53.758  1.00  0.00     0.137 C 
BRANCH  17  18
HETATM   18  N   UNL     1     -43.256  58.613 -53.258  1.00  0.00    -0.360 N 
HETATM   19  C   UNL     1     -42.764  58.375 -51.988  1.00  0.00     0.221 C 
HETATM   20  O   UNL     1     -43.415  57.809 -51.113  1.00  0.00    -0.273 OA
HETATM   21  H   UNL     1     -42.631  59.049 -53.926  1.00  0.00     0.162 HD
BRANCH  19  22
HETATM   22  C   UNL     1     -41.336  58.876 -51.774  1.00  0.00     0.070 C 
HETATM   23  C   UNL     1     -40.594  57.981 -50.784  1.00  0.00     0.019 C 
HETATM   24  C   UNL     1     -40.579  58.942 -53.100  1.00  0.00     0.019 C 
ENDBRANCH  19  22
ENDBRANCH  17  18
ENDBRANCH  16  17
ENDBRANCH  14  16
ENDBRANCH  10  14
TORSDOF 5
ENDMDL
MODEL 10
REMARK VINA RESULT:      -6.7      2.037      3.483
REMARK  5 active torsions:
REMARK  status: ('A' for Active; 'I' for Inactive)
REMARK    1  A    between atoms: C_10  and  N_11 
REMARK    2  A    between atoms: N_11  and  C_12 
REMARK    3  A    between atoms: C_12  and  C_13 
REMARK    4  A    between atoms: C_13  and  N_14 
REMARK       I    between atoms: N_14  and  C_15 
REMARK    5  A    between atoms: C_15  and  C_16 
ROOT
HETATM    1  C   UNL     1     -39.178  49.508 -50.938  1.00  0.00     0.048 C 
HETATM    2  C   UNL     1     -39.615  50.604 -51.869  1.00  0.00    -0.060 A 
HETATM    3  C   UNL     1     -40.003  51.854 -51.375  1.00  0.00     0.037 A 
HETATM    4  C   UNL     1     -40.385  52.876 -52.254  1.00  0.00     0.044 A 
HETATM    5  C   UNL     1     -40.369  52.663 -53.644  1.00  0.00    -0.009 A 
HETATM    6  C   UNL     1     -39.966  51.413 -54.135  1.00  0.00     0.014 A 
HETATM    7  C   UNL     1     -39.589  50.396 -53.254  1.00  0.00     0.007 A 
HETATM    8  N   UNL     1     -40.775  54.071 -51.780  1.00  0.00    -0.346 N 
HETATM    9  H   UNL     1     -40.764  54.192 -50.775  1.00  0.00     0.167 HD
HETATM   10  C   UNL     1     -41.180  55.102 -52.543  1.00  0.00     0.086 A 
HETATM   11  C   UNL     1     -41.136  54.949 -53.942  1.00  0.00    -0.023 A 
HETATM   12  C   UNL     1     -41.535  56.058 -54.879  1.00  0.00     0.052 C 
HETATM   13  C   UNL     1     -40.750  53.714 -54.482  1.00  0.00     0.023 A 
ENDROOT
BRANCH  10  14
HETATM   14  N   UNL     1     -41.552  56.320 -51.964  1.00  0.00    -0.277 NA
HETATM   15  H   UNL     1     -41.913  56.966 -52.670  1.00  0.00     0.129 HD
BRANCH  14  16
HETATM   16  C   UNL     1     -42.372  56.296 -50.754  1.00  0.00     0.113 C 
BRANCH  16  17
HETATM   17  C   UNL     1     -43.873  56.435 -51.036  1.00  0.00     0.137 C 
BRANCH  17  18
HETATM   18  N   UNL     1     -44.232  56.999 -52.335  1.00  0.00    -0.360 N 
HETATM   19  C   UNL     1     -44.695  58.280 -52.565  1.00  0.00     0.221 C 
HETATM   20  O   UNL     1     -44.884  59.096 -51.665  1.00  0.00    -0.273 OA
HETATM   21  H   UNL     1     -44.067  56.410 -53.144  1.00  0.00     0.162 HD
BRANCH  19  22
HETATM   22  C   UNL     1     -44.947  58.592 -54.040  1.00  0.00     0.070 C 
HETATM   23  C   UNL     1     -43.870  59.528 -54.584  1.00  0.00     0.019 C 
HETATM   24  C   UNL     1     -45.000  57.307 -54.865  1.00  0.00     0.019 C 
ENDBRANCH  19  22
ENDBRANCH  17  18
ENDBRANCH  16  17
ENDBRANCH  14  16
ENDBRANCH  10  14
TORSDOF 5
ENDMDL
