MODEL 1
REMARK VINA RESULT:      -8.5      0.000      0.000
REMARK  7 active torsions:
REMARK  status: ('A' for Active; 'I' for Inactive)
REMARK    1  A    between atoms: O_2  and  C_3 
REMARK    2  A    between atoms: C_7  and  C_8 
REMARK    3  A    between atoms: C_8  and  C_9 
REMARK       I    between atoms: C_9  and  N_10 
REMARK    4  A    between atoms: N_10  and  C_11 
REMARK    5  A    between atoms: C_11  and  C_12 
REMARK    6  A    between atoms: C_12  and  N_13 
REMARK    7  A    between atoms: C_12  and  C_19 
ROOT
HETATM    1  C   UNL     1     -41.699  54.505 -55.574  1.00  0.00     0.222 C 
HETATM    2  N   UNL     1     -41.678  55.675 -56.314  1.00  0.00    -0.358 N 
HETATM    3  O   UNL     1     -42.759  53.963 -55.284  1.00  0.00    -0.273 OA
HETATM    4  H   UNL     1     -40.789  56.157 -56.419  1.00  0.00     0.162 HD
ENDROOT
BRANCH   2   5
HETATM    5  C   UNL     1     -42.898  56.408 -56.635  1.00  0.00     0.160 C 
BRANCH   5   6
HETATM    6  C   UNL     1     -43.155  56.639 -58.160  1.00  0.00     0.240 C 
BRANCH   6   7
HETATM    7  N   UNL     1     -42.053  57.472 -58.814  1.00  0.00    -0.061 N 
HETATM    8  H   UNL     1     -41.177  56.977 -58.595  1.00  0.00     0.280 HD
HETATM    9  C   UNL     1     -41.932  58.896 -58.293  1.00  0.00     0.236 C 
HETATM   10  C   UNL     1     -42.386  59.765 -59.446  1.00  0.00     0.029 C 
HETATM   11  C   UNL     1     -41.847  59.028 -60.648  1.00  0.00     0.029 C 
HETATM   12  C   UNL     1     -42.146  57.574 -60.333  1.00  0.00     0.236 C 
ENDBRANCH   6   7
BRANCH   6  13
HETATM   13  C   UNL     1     -44.573  57.161 -58.380  1.00  0.00    -0.004 A 
HETATM   14  C   UNL     1     -45.412  56.799 -59.452  1.00  0.00     0.042 A 
HETATM   15 CL   UNL     1     -44.944  55.649 -60.654  1.00  0.00    -0.084 Cl
HETATM   16  C   UNL     1     -46.692  57.349 -59.578  1.00  0.00     0.024 A 
HETATM   17  C   UNL     1     -47.158  58.269 -58.643  1.00  0.00     0.002 A 
HETATM   18  C   UNL     1     -46.348  58.644 -57.578  1.00  0.00     0.001 A 
HETATM   19  C   UNL     1     -45.068  58.100 -57.449  1.00  0.00     0.011 A 
ENDBRANCH   6  13
ENDBRANCH   5   6
ENDBRANCH   2   5
BRANCH   1  20
HETATM   20  C   UNL     1     -40.311  53.970 -55.246  1.00  0.00     0.144 C 
BRANCH  20  21
HETATM   21  C   UNL     1     -40.205  53.238 -53.952  1.00  0.00    -0.014 A 
HETATM   22  C   UNL     1     -40.532  53.697 -52.635  1.00  0.00     0.006 A 
HETATM   23  C   UNL     1     -40.328  52.615 -51.787  1.00  0.00     0.088 A 
HETATM   24  C   UNL     1     -40.981  54.903 -52.068  1.00  0.00     0.017 A 
HETATM   25  C   UNL     1     -40.551  52.631 -50.410  1.00  0.00     0.074 A 
HETATM   26  O   UNL     1     -39.887  51.541 -52.495  1.00  0.00    -0.321 OA
HETATM   27  C   UNL     1     -41.008  53.836 -49.868  1.00  0.00     0.070 A 
HETATM   28  C   UNL     1     -41.198  54.957 -50.683  1.00  0.00     0.038 A 
HETATM   29  C   UNL     1     -39.815  51.922 -53.793  1.00  0.00     0.151 A 
BRANCH  27  30
HETATM   30  O   UNL     1     -41.283  54.048 -48.542  1.00  0.00    -0.356 OA
HETATM   31  C   UNL     1     -40.186  53.909 -47.645  1.00  0.00     0.210 C 
ENDBRANCH  27  30
ENDBRANCH  20  21
ENDBRANCH   1  20
TORSDOF 7
ENDMDL
MODEL 2
REMARK VINA RESULT:      -8.3      2.690      4.074
REMARK  7 active torsions:
REMARK  status: ('A' for Active; 'I' for Inactive)
REMARK    1  A    between atoms: O_2  and  C_3 
REMARK    2  A    between atoms: C_7  and  C_8 
REMARK    3  A    between atoms: C_8  and  C_9 
REMARK       I    between atoms: C_9  and  N_10 
REMARK    4  A    between atoms: N_10  and  C_11 
REMARK    5  A    between atoms: C_11  and  C_12 
REMARK    6  A    between atoms: C_12  and  N_13 
REMARK    7  A    between atoms: C_12  and  C_19 
ROOT
HETATM    1  C   UNL     1     -43.191  55.223 -56.086  1.00  0.00     0.222 C 
HETATM    2  N   UNL     1     -43.879  56.221 -55.417  1.00  0.00    -0.358 N 
HETATM    3  O   UNL     1     -42.652  55.444 -57.164  1.00  0.00    -0.273 OA
HETATM    4  H   UNL     1     -44.417  55.960 -54.595  1.00  0.00     0.162 HD
ENDROOT
BRANCH   2   5
HETATM    5  C   UNL     1     -44.144  57.519 -56.029  1.00  0.00     0.160 C 
BRANCH   5   6
HETATM    6  C   UNL     1     -43.292  58.705 -55.471  1.00  0.00     0.240 C 
BRANCH   6   7
HETATM    7  N   UNL     1     -42.248  59.192 -56.475  1.00  0.00    -0.061 N 
HETATM    8  H   UNL     1     -41.350  58.825 -56.127  1.00  0.00     0.280 HD
HETATM    9  C   UNL     1     -42.125  60.704 -56.590  1.00  0.00     0.236 C 
HETATM   10  C   UNL     1     -42.664  61.027 -57.967  1.00  0.00     0.029 C 
HETATM   11  C   UNL     1     -42.181  59.860 -58.794  1.00  0.00     0.029 C 
HETATM   12  C   UNL     1     -42.431  58.664 -57.894  1.00  0.00     0.236 C 
ENDBRANCH   6   7
BRANCH   6  13
HETATM   13  C   UNL     1     -42.741  58.352 -54.090  1.00  0.00    -0.004 A 
HETATM   14  C   UNL     1     -43.442  58.496 -52.878  1.00  0.00     0.042 A 
HETATM   15 CL   UNL     1     -45.075  59.058 -52.806  1.00  0.00    -0.084 Cl
HETATM   16  C   UNL     1     -42.842  58.162 -51.659  1.00  0.00     0.024 A 
HETATM   17  C   UNL     1     -41.535  57.682 -51.625  1.00  0.00     0.002 A 
HETATM   18  C   UNL     1     -40.822  57.534 -52.809  1.00  0.00     0.001 A 
HETATM   19  C   UNL     1     -41.416  57.868 -54.028  1.00  0.00     0.011 A 
ENDBRANCH   6  13
ENDBRANCH   5   6
ENDBRANCH   2   5
BRANCH   1  20
HETATM   20  C   UNL     1     -43.132  53.908 -55.318  1.00  0.00     0.144 C 
BRANCH  20  21
HETATM   21  C   UNL     1     -42.076  53.837 -54.268  1.00  0.00    -0.014 A 
HETATM   22  C   UNL     1     -42.202  54.045 -52.857  1.00  0.00     0.006 A 
HETATM   23  C   UNL     1     -40.948  53.791 -52.315  1.00  0.00     0.088 A 
HETATM   24  C   UNL     1     -43.235  54.417 -51.979  1.00  0.00     0.017 A 
HETATM   25  C   UNL     1     -40.639  53.860 -50.956  1.00  0.00     0.074 A 
HETATM   26  O   UNL     1     -40.071  53.457 -53.299  1.00  0.00    -0.321 OA
HETATM   27  C   UNL     1     -41.683  54.220 -50.099  1.00  0.00     0.070 A 
HETATM   28  C   UNL     1     -42.953  54.514 -50.607  1.00  0.00     0.038 A 
HETATM   29  C   UNL     1     -40.754  53.488 -54.469  1.00  0.00     0.151 A 
BRANCH  27  30
HETATM   30  O   UNL     1     -41.578  54.342 -48.738  1.00  0.00    -0.356 OA
HETATM   31  C   UNL     1     -40.328  53.963 -48.170  1.00  0.00     0.210 C 
ENDBRANCH  27  30
ENDBRANCH  20  21
ENDBRANCH   1  20
TORSDOF 7
ENDMDL
MODEL 3
REMARK VINA RESULT:      -8.3      1.501      2.919
REMARK  7 active torsions:
REMARK  status: ('A' for Active; 'I' for Inactive)
REMARK    1  A    between atoms: O_2  and  C_3 
REMARK    2  A    between atoms: C_7  and  C_8 
REMARK    3  A    between atoms: C_8  and  C_9 
REMARK       I    between atoms: C_9  and  N_10 
REMARK    4  A    between atoms: N_10  and  C_11 
REMARK    5  A    between atoms: C_11  and  C_12 
REMARK    6  A    between atoms: C_12  and  N_13 
REMARK    7  A    between atoms: C_12  and  C_19 
ROOT
HETATM    1  C   UNL     1     -42.802  56.831 -54.435  1.00  0.00     0.222 C 
HETATM    2  N   UNL     1     -42.680  57.493 -55.644  1.00  0.00    -0.358 N 
HETATM    3  O   UNL     1     -43.792  56.152 -54.186  1.00  0.00    -0.273 OA
HETATM    4  H   UNL     1     -41.907  58.145 -55.755  1.00  0.00     0.162 HD
ENDROOT
BRANCH   2   5
HETATM    5  C   UNL     1     -43.778  57.561 -56.602  1.00  0.00     0.160 C 
BRANCH   5   6
HETATM    6  C   UNL     1     -43.477  56.941 -58.006  1.00  0.00     0.240 C 
BRANCH   6   7
HETATM    7  N   UNL     1     -42.260  57.580 -58.673  1.00  0.00    -0.061 N 
HETATM    8  H   UNL     1     -41.446  57.106 -58.258  1.00  0.00     0.280 HD
HETATM    9  C   UNL     1     -42.107  59.074 -58.431  1.00  0.00     0.236 C 
HETATM   10  C   UNL     1     -42.376  59.710 -59.777  1.00  0.00     0.029 C 
HETATM   11  C   UNL     1     -41.756  58.725 -60.739  1.00  0.00     0.029 C 
HETATM   12  C   UNL     1     -42.178  57.378 -60.183  1.00  0.00     0.236 C 
ENDBRANCH   6   7
BRANCH   6  13
HETATM   13  C   UNL     1     -44.745  56.928 -58.857  1.00  0.00    -0.004 A 
HETATM   14  C   UNL     1     -45.155  55.864 -59.683  1.00  0.00     0.042 A 
HETATM   15 CL   UNL     1     -44.274  54.382 -59.799  1.00  0.00    -0.084 Cl
HETATM   16  C   UNL     1     -46.326  55.957 -60.442  1.00  0.00     0.024 A 
HETATM   17  C   UNL     1     -47.108  57.108 -60.395  1.00  0.00     0.002 A 
HETATM   18  C   UNL     1     -46.722  58.172 -59.588  1.00  0.00     0.001 A 
HETATM   19  C   UNL     1     -45.553  58.086 -58.831  1.00  0.00     0.011 A 
ENDBRANCH   6  13
ENDBRANCH   5   6
ENDBRANCH   2   5
BRANCH   1  20
HETATM   20  C   UNL     1     -41.585  56.988 -53.532  1.00  0.00     0.144 C 
BRANCH  20  21
HETATM   21  C   UNL     1     -41.269  55.801 -52.687  1.00  0.00    -0.014 A 
HETATM   22  C   UNL     1     -40.831  54.501 -53.098  1.00  0.00     0.006 A 
HETATM   23  C   UNL     1     -40.605  53.781 -51.931  1.00  0.00     0.088 A 
HETATM   24  C   UNL     1     -40.598  53.854 -54.325  1.00  0.00     0.017 A 
HETATM   25  C   UNL     1     -40.145  52.465 -51.884  1.00  0.00     0.074 A 
HETATM   26  O   UNL     1     -40.888  54.550 -50.845  1.00  0.00    -0.321 OA
HETATM   27  C   UNL     1     -39.910  51.845 -53.114  1.00  0.00     0.070 A 
HETATM   28  C   UNL     1     -40.153  52.524 -54.312  1.00  0.00     0.038 A 
HETATM   29  C   UNL     1     -41.287  55.760 -51.306  1.00  0.00     0.151 A 
BRANCH  27  30
HETATM   30  O   UNL     1     -39.458  50.560 -53.274  1.00  0.00    -0.356 OA
HETATM   31  C   UNL     1     -39.805  49.923 -54.499  1.00  0.00     0.210 C 
ENDBRANCH  27  30
ENDBRANCH  20  21
ENDBRANCH   1  20
TORSDOF 7
ENDMDL
MODEL 4
REMARK VINA RESULT:      -8.3      1.859      3.855
REMARK  7 active torsions:
REMARK  status: ('A' for Active; 'I' for Inactive)
REMARK    1  A    between atoms: O_2  and  C_3 
REMARK    2  A    between atoms: C_7  and  C_8 
REMARK    3  A    between atoms: C_8  and  C_9 
REMARK       I    between atoms: C_9  and  N_10 
REMARK    4  A    between atoms: N_10  and  C_11 
REMARK    5  A    between atoms: C_11  and  C_12 
REMARK    6  A    between atoms: C_12  and  N_13 
REMARK    7  A    between atoms: C_12  and  C_19 
ROOT
HETATM    1  C   UNL     1     -42.512  56.061 -55.339  1.00  0.00     0.222 C 
HETATM    2  N   UNL     1     -42.026  56.165 -56.632  1.00  0.00    -0.358 N 
HETATM    3  O   UNL     1     -43.566  55.479 -55.108  1.00  0.00    -0.273 OA
HETATM    4  H   UNL     1     -41.221  56.765 -56.791  1.00  0.00     0.162 HD
ENDROOT
BRANCH   2   5
HETATM    5  C   UNL     1     -42.813  55.748 -57.788  1.00  0.00     0.160 C 
BRANCH   5   6
HETATM    6  C   UNL     1     -43.944  56.739 -58.216  1.00  0.00     0.240 C 
BRANCH   6   7
HETATM    7  N   UNL     1     -45.103  56.030 -58.915  1.00  0.00    -0.061 N 
HETATM    8  H   UNL     1     -45.727  55.724 -58.156  1.00  0.00     0.280 HD
HETATM    9  C   UNL     1     -44.709  54.803 -59.723  1.00  0.00     0.236 C 
HETATM   10  C   UNL     1     -44.930  55.206 -61.165  1.00  0.00     0.029 C 
HETATM   11  C   UNL     1     -46.168  56.067 -61.081  1.00  0.00     0.029 C 
HETATM   12  C   UNL     1     -45.925  56.914 -59.847  1.00  0.00     0.236 C 
ENDBRANCH   6   7
BRANCH   6  13
HETATM   13  C   UNL     1     -43.348  57.914 -58.990  1.00  0.00    -0.004 A 
HETATM   14  C   UNL     1     -43.680  59.267 -58.791  1.00  0.00     0.042 A 
HETATM   15 CL   UNL     1     -44.798  59.783 -57.577  1.00  0.00    -0.084 Cl
HETATM   16  C   UNL     1     -43.092  60.271 -59.566  1.00  0.00     0.024 A 
HETATM   17  C   UNL     1     -42.165  59.948 -60.554  1.00  0.00     0.002 A 
HETATM   18  C   UNL     1     -41.823  58.618 -60.771  1.00  0.00     0.001 A 
HETATM   19  C   UNL     1     -42.409  57.612 -60.001  1.00  0.00     0.011 A 
ENDBRANCH   6  13
ENDBRANCH   5   6
ENDBRANCH   2   5
BRANCH   1  20
HETATM   20  C   UNL     1     -41.585  56.665 -54.293  1.00  0.00     0.144 C 
BRANCH  20  21
HETATM   21  C   UNL     1     -41.280  55.780 -53.133  1.00  0.00    -0.014 A 
HETATM   22  C   UNL     1     -40.822  54.423 -53.139  1.00  0.00     0.006 A 
HETATM   23  C   UNL     1     -40.618  54.077 -51.808  1.00  0.00     0.088 A 
HETATM   24  C   UNL     1     -40.555  53.451 -54.120  1.00  0.00     0.017 A 
HETATM   25  C   UNL     1     -40.150  52.838 -51.371  1.00  0.00     0.074 A 
HETATM   26  O   UNL     1     -40.933  55.124 -50.999  1.00  0.00    -0.321 OA
HETATM   27  C   UNL     1     -39.880  51.891 -52.362  1.00  0.00     0.070 A 
HETATM   28  C   UNL     1     -40.100  52.188 -53.711  1.00  0.00     0.038 A 
HETATM   29  C   UNL     1     -41.330  56.142 -51.800  1.00  0.00     0.151 A 
BRANCH  27  30
HETATM   30  O   UNL     1     -39.415  50.622 -52.133  1.00  0.00    -0.356 OA
HETATM   31  C   UNL     1     -39.627  49.678 -53.178  1.00  0.00     0.210 C 
ENDBRANCH  27  30
ENDBRANCH  20  21
ENDBRANCH   1  20
TORSDOF 7
ENDMDL
MODEL 5
REMARK VINA RESULT:      -8.2      2.921      4.962
REMARK  7 active torsions:
REMARK  status: ('A' for Active; 'I' for Inactive)
REMARK    1  A    between atoms: O_2  and  C_3 
REMARK    2  A    between atoms: C_7  and  C_8 
REMARK    3  A    between atoms: C_8  and  C_9 
REMARK       I    between atoms: C_9  and  N_10 
REMARK    4  A    between atoms: N_10  and  C_11 
REMARK    5  A    between atoms: C_11  and  C_12 
REMARK    6  A    between atoms: C_12  and  N_13 
REMARK    7  A    between atoms: C_12  and  C_19 
ROOT
HETATM    1  C   UNL     1     -44.089  58.633 -53.620  1.00  0.00     0.222 C 
HETATM    2  N   UNL     1     -44.349  57.492 -54.361  1.00  0.00    -0.358 N 
HETATM    3  O   UNL     1     -43.790  59.686 -54.171  1.00  0.00    -0.273 OA
HETATM    4  H   UNL     1     -44.464  56.614 -53.860  1.00  0.00     0.162 HD
ENDROOT
BRANCH   2   5
HETATM    5  C   UNL     1     -44.117  57.436 -55.800  1.00  0.00     0.160 C 
BRANCH   5   6
HETATM    6  C   UNL     1     -42.648  57.115 -56.226  1.00  0.00     0.240 C 
BRANCH   6   7
HETATM    7  N   UNL     1     -42.504  56.957 -57.739  1.00  0.00    -0.061 N 
HETATM    8  H   UNL     1     -41.871  56.154 -57.866  1.00  0.00     0.280 HD
HETATM    9  C   UNL     1     -41.894  58.153 -58.454  1.00  0.00     0.236 C 
HETATM   10  C   UNL     1     -43.029  58.732 -59.269  1.00  0.00     0.029 C 
HETATM   11  C   UNL     1     -43.777  57.500 -59.717  1.00  0.00     0.029 C 
HETATM   12  C   UNL     1     -43.800  56.630 -58.474  1.00  0.00     0.236 C 
ENDBRANCH   6   7
BRANCH   6  13
HETATM   13  C   UNL     1     -42.105  55.948 -55.403  1.00  0.00    -0.004 A 
HETATM   14  C   UNL     1     -41.153  56.058 -54.372  1.00  0.00     0.042 A 
HETATM   15 CL   UNL     1     -40.500  57.576 -53.865  1.00  0.00    -0.084 Cl
HETATM   16  C   UNL     1     -40.703  54.924 -53.688  1.00  0.00     0.024 A 
HETATM   17  C   UNL     1     -41.191  53.662 -54.017  1.00  0.00     0.002 A 
HETATM   18  C   UNL     1     -42.130  53.529 -55.033  1.00  0.00     0.001 A 
HETATM   19  C   UNL     1     -42.580  54.657 -55.721  1.00  0.00     0.011 A 
ENDBRANCH   6  13
ENDBRANCH   5   6
ENDBRANCH   2   5
BRANCH   1  20
HETATM   20  C   UNL     1     -44.280  58.439 -52.121  1.00  0.00     0.144 C 
BRANCH  20  21
HETATM   21  C   UNL     1     -43.080  57.944 -51.390  1.00  0.00    -0.014 A 
HETATM   22  C   UNL     1     -42.741  56.599 -51.032  1.00  0.00     0.006 A 
HETATM   23  C   UNL     1     -41.490  56.662 -50.430  1.00  0.00     0.088 A 
HETATM   24  C   UNL     1     -43.352  55.338 -51.152  1.00  0.00     0.017 A 
HETATM   25  C   UNL     1     -40.782  55.560 -49.950  1.00  0.00     0.074 A 
HETATM   26  O   UNL     1     -41.055  57.950 -50.387  1.00  0.00    -0.321 OA
HETATM   27  C   UNL     1     -41.402  54.314 -50.089  1.00  0.00     0.070 A 
HETATM   28  C   UNL     1     -42.673  54.211 -50.662  1.00  0.00     0.038 A 
HETATM   29  C   UNL     1     -42.014  58.714 -50.964  1.00  0.00     0.151 A 
BRANCH  27  30
HETATM   30  O   UNL     1     -40.868  53.120 -49.680  1.00  0.00    -0.356 OA
HETATM   31  C   UNL     1     -40.223  52.345 -50.686  1.00  0.00     0.210 C 
ENDBRANCH  27  30
ENDBRANCH  20  21
ENDBRANCH   1  20
TORSDOF 7
ENDMDL
MODEL 6
REMARK VINA RESULT:      -8.2      3.375      4.844
REMARK  7 active torsions:
REMARK  status: ('A' for Active; 'I' for Inactive)
REMARK    1  A    between atoms: O_2  and  C_3 
REMARK    2  A    between atoms: C_7  and  C_8 
REMARK    3  A    between atoms: C_8  and  C_9 
REMARK       I    between atoms: C_9  and  N_10 
REMARK    4  A    between atoms: N_10  and  C_11 
REMARK    5  A    between atoms: C_11  and  C_12 
REMARK    6  A    between atoms: C_12  and  N_13 
REMARK    7  A    between atoms: C_12  and  C_19 
ROOT
HETATM    1  C   UNL     1     -42.660  55.188 -55.346  1.00  0.00     0.222 C 
HETATM    2  N   UNL     1     -43.912  55.746 -55.144  1.00  0.00    -0.358 N 
HETATM    3  O   UNL     1     -41.693  55.893 -55.609  1.00  0.00    -0.273 OA
HETATM    4  H   UNL     1     -44.706  55.116 -55.057  1.00  0.00     0.162 HD
ENDROOT
BRANCH   2   5
HETATM    5  C   UNL     1     -44.179  57.157 -55.400  1.00  0.00     0.160 C 
BRANCH   5   6
HETATM    6  C   UNL     1     -44.607  57.991 -54.149  1.00  0.00     0.240 C 
BRANCH   6   7
HETATM    7  N   UNL     1     -45.458  59.204 -54.524  1.00  0.00    -0.061 N 
HETATM    8  H   UNL     1     -46.428  58.858 -54.536  1.00  0.00     0.280 HD
HETATM    9  C   UNL     1     -45.155  59.802 -55.889  1.00  0.00     0.236 C 
HETATM   10  C   UNL     1     -44.525  61.144 -55.588  1.00  0.00     0.029 C 
HETATM   11  C   UNL     1     -45.297  61.609 -54.377  1.00  0.00     0.029 C 
HETATM   12  C   UNL     1     -45.403  60.357 -53.527  1.00  0.00     0.236 C 
ENDBRANCH   6   7
BRANCH   6  13
HETATM   13  C   UNL     1     -43.388  58.304 -53.283  1.00  0.00    -0.004 A 
HETATM   14  C   UNL     1     -43.318  58.124 -51.889  1.00  0.00     0.042 A 
HETATM   15 CL   UNL     1     -44.621  57.462 -50.968  1.00  0.00    -0.084 Cl
HETATM   16  C   UNL     1     -42.159  58.460 -51.181  1.00  0.00     0.024 A 
HETATM   17  C   UNL     1     -41.053  58.982 -51.846  1.00  0.00     0.002 A 
HETATM   18  C   UNL     1     -41.100  59.170 -53.222  1.00  0.00     0.001 A 
HETATM   19  C   UNL     1     -42.254  58.840 -53.933  1.00  0.00     0.011 A 
ENDBRANCH   6  13
ENDBRANCH   5   6
ENDBRANCH   2   5
BRANCH   1  20
HETATM   20  C   UNL     1     -42.629  53.679 -55.140  1.00  0.00     0.144 C 
BRANCH  20  21
HETATM   21  C   UNL     1     -41.579  53.193 -54.201  1.00  0.00    -0.014 A 
HETATM   22  C   UNL     1     -41.240  53.690 -52.901  1.00  0.00     0.006 A 
HETATM   23  C   UNL     1     -40.248  52.849 -52.411  1.00  0.00     0.088 A 
HETATM   24  C   UNL     1     -41.664  54.753 -52.084  1.00  0.00     0.017 A 
HETATM   25  C   UNL     1     -39.650  52.971 -51.156  1.00  0.00     0.074 A 
HETATM   26  O   UNL     1     -39.953  51.888 -53.328  1.00  0.00    -0.321 OA
HETATM   27  C   UNL     1     -40.094  54.027 -50.356  1.00  0.00     0.070 A 
HETATM   28  C   UNL     1     -41.070  54.914 -50.823  1.00  0.00     0.038 A 
HETATM   29  C   UNL     1     -40.754  52.101 -54.399  1.00  0.00     0.151 A 
BRANCH  27  30
HETATM   30  O   UNL     1     -39.630  54.311 -49.098  1.00  0.00    -0.356 OA
HETATM   31  C   UNL     1     -40.468  53.914 -48.017  1.00  0.00     0.210 C 
ENDBRANCH  27  30
ENDBRANCH  20  21
ENDBRANCH   1  20
TORSDOF 7
ENDMDL
MODEL 7
REMARK VINA RESULT:      -8.0      1.987      3.093
REMARK  7 active torsions:
REMARK  status: ('A' for Active; 'I' for Inactive)
REMARK    1  A    between atoms: O_2  and  C_3 
REMARK    2  A    between atoms: C_7  and  C_8 
REMARK    3  A    between atoms: C_8  and  C_9 
REMARK       I    between atoms: C_9  and  N_10 
REMARK    4  A    between atoms: N_10  and  C_11 
REMARK    5  A    between atoms: C_11  and  C_12 
REMARK    6  A    between atoms: C_12  and  N_13 
REMARK    7  A    between atoms: C_12  and  C_19 
ROOT
HETATM    1  C   UNL     1     -42.857  56.090 -55.947  1.00  0.00     0.222 C 
HETATM    2  N   UNL     1     -44.017  56.719 -56.363  1.00  0.00    -0.358 N 
HETATM    3  O   UNL     1     -41.791  56.695 -55.910  1.00  0.00    -0.273 OA
HETATM    4  H   UNL     1     -44.847  56.146 -56.501  1.00  0.00     0.162 HD
ENDROOT
BRANCH   2   5
HETATM    5  C   UNL     1     -44.005  58.060 -56.937  1.00  0.00     0.160 C 
BRANCH   5   6
HETATM    6  C   UNL     1     -43.596  58.137 -58.444  1.00  0.00     0.240 C 
BRANCH   6   7
HETATM    7  N   UNL     1     -43.449  59.577 -58.932  1.00  0.00    -0.061 N 
HETATM    8  H   UNL     1     -44.272  60.072 -58.561  1.00  0.00     0.280 HD
HETATM    9  C   UNL     1     -43.442  59.744 -60.444  1.00  0.00     0.236 C 
HETATM   10  C   UNL     1     -42.027  60.165 -60.777  1.00  0.00     0.029 C 
HETATM   11  C   UNL     1     -41.664  61.054 -59.613  1.00  0.00     0.029 C 
HETATM   12  C   UNL     1     -42.213  60.305 -58.413  1.00  0.00     0.236 C 
ENDBRANCH   6   7
BRANCH   6  13
HETATM   13  C   UNL     1     -44.525  57.265 -59.285  1.00  0.00    -0.004 A 
HETATM   14  C   UNL     1     -45.919  57.433 -59.390  1.00  0.00     0.042 A 
HETATM   15 CL   UNL     1     -46.766  58.714 -58.597  1.00  0.00    -0.084 Cl
HETATM   16  C   UNL     1     -46.688  56.567 -60.175  1.00  0.00     0.024 A 
HETATM   17  C   UNL     1     -46.086  55.519 -60.866  1.00  0.00     0.002 A 
HETATM   18  C   UNL     1     -44.712  55.332 -60.775  1.00  0.00     0.001 A 
HETATM   19  C   UNL     1     -43.940  56.191 -59.992  1.00  0.00     0.011 A 
ENDBRANCH   6  13
ENDBRANCH   5   6
ENDBRANCH   2   5
BRANCH   1  20
HETATM   20  C   UNL     1     -43.075  54.651 -55.496  1.00  0.00     0.144 C 
BRANCH  20  21
HETATM   21  C   UNL     1     -42.602  54.342 -54.117  1.00  0.00    -0.014 A 
HETATM   22  C   UNL     1     -41.627  53.379 -53.700  1.00  0.00     0.006 A 
HETATM   23  C   UNL     1     -41.493  53.534 -52.326  1.00  0.00     0.088 A 
HETATM   24  C   UNL     1     -40.843  52.397 -54.332  1.00  0.00     0.017 A 
HETATM   25  C   UNL     1     -40.621  52.797 -51.524  1.00  0.00     0.074 A 
HETATM   26  O   UNL     1     -42.326  54.512 -51.881  1.00  0.00    -0.321 OA
HETATM   27  C   UNL     1     -39.842  51.835 -52.173  1.00  0.00     0.070 A 
HETATM   28  C   UNL     1     -39.969  51.626 -53.550  1.00  0.00     0.038 A 
HETATM   29  C   UNL     1     -42.989  54.992 -52.961  1.00  0.00     0.151 A 
BRANCH  27  30
HETATM   30  O   UNL     1     -38.932  51.014 -51.559  1.00  0.00    -0.356 OA
HETATM   31  C   UNL     1     -39.466  49.876 -50.890  1.00  0.00     0.210 C 
ENDBRANCH  27  30
ENDBRANCH  20  21
ENDBRANCH   1  20
TORSDOF 7
ENDMDL
MODEL 8
REMARK VINA RESULT:      -7.8      1.845      3.367
REMARK  7 active torsions:
REMARK  status: ('A' for Active; 'I' for Inactive)
REMARK    1  A    between atoms: O_2  and  C_3 
REMARK    2  A    between atoms: C_7  and  C_8 
REMARK    3  A    between atoms: C_8  and  C_9 
REMARK       I    between atoms: C_9  and  N_10 
REMARK    4  A    between atoms: N_10  and  C_11 
REMARK    5  A    between atoms: C_11  and  C_12 
REMARK    6  A    between atoms: C_12  and  N_13 
REMARK    7  A    between atoms: C_12  and  C_19 
ROOT
HETATM    1  C   UNL     1     -42.779  56.876 -54.555  1.00  0.00     0.222 C 
HETATM    2  N   UNL     1     -42.853  57.839 -55.548  1.00  0.00    -0.358 N 
HETATM    3  O   UNL     1     -43.632  56.000 -54.464  1.00  0.00    -0.273 OA
HETATM    4  H   UNL     1     -42.200  58.618 -55.506  1.00  0.00     0.162 HD
ENDROOT
BRANCH   2   5
HETATM    5  C   UNL     1     -44.019  57.965 -56.416  1.00  0.00     0.160 C 
BRANCH   5   6
HETATM    6  C   UNL     1     -43.701  58.228 -57.924  1.00  0.00     0.240 C 
BRANCH   6   7
HETATM    7  N   UNL     1     -43.675  59.719 -58.260  1.00  0.00    -0.061 N 
HETATM    8  H   UNL     1     -44.324  59.827 -59.052  1.00  0.00     0.280 HD
HETATM    9  C   UNL     1     -42.318  60.256 -58.688  1.00  0.00     0.236 C 
HETATM   10  C   UNL     1     -41.889  61.160 -57.554  1.00  0.00     0.029 C 
HETATM   11  C   UNL     1     -43.190  61.793 -57.124  1.00  0.00     0.029 C 
HETATM   12  C   UNL     1     -44.169  60.634 -57.144  1.00  0.00     0.236 C 
ENDBRANCH   6   7
BRANCH   6  13
HETATM   13  C   UNL     1     -44.617  57.386 -58.809  1.00  0.00    -0.004 A 
HETATM   14  C   UNL     1     -44.190  56.351 -59.664  1.00  0.00     0.042 A 
HETATM   15 CL   UNL     1     -42.536  55.863 -59.781  1.00  0.00    -0.084 Cl
HETATM   16  C   UNL     1     -45.107  55.648 -60.452  1.00  0.00     0.024 A 
HETATM   17  C   UNL     1     -46.463  55.962 -60.405  1.00  0.00     0.002 A 
HETATM   18  C   UNL     1     -46.907  56.980 -59.571  1.00  0.00     0.001 A 
HETATM   19  C   UNL     1     -45.996  57.687 -58.784  1.00  0.00     0.011 A 
ENDBRANCH   6  13
ENDBRANCH   5   6
ENDBRANCH   2   5
BRANCH   1  20
HETATM   20  C   UNL     1     -41.535  56.997 -53.685  1.00  0.00     0.144 C 
BRANCH  20  21
HETATM   21  C   UNL     1     -41.256  55.819 -52.815  1.00  0.00    -0.014 A 
HETATM   22  C   UNL     1     -40.812  54.512 -53.195  1.00  0.00     0.006 A 
HETATM   23  C   UNL     1     -40.631  53.805 -52.013  1.00  0.00     0.088 A 
HETATM   24  C   UNL     1     -40.539  53.850 -54.406  1.00  0.00     0.017 A 
HETATM   25  C   UNL     1     -40.181  52.487 -51.934  1.00  0.00     0.074 A 
HETATM   26  O   UNL     1     -40.948  54.588 -50.946  1.00  0.00    -0.321 OA
HETATM   27  C   UNL     1     -39.905  51.851 -53.148  1.00  0.00     0.070 A 
HETATM   28  C   UNL     1     -40.102  52.517 -54.362  1.00  0.00     0.038 A 
HETATM   29  C   UNL     1     -41.323  55.794 -51.435  1.00  0.00     0.151 A 
BRANCH  27  30
HETATM   30  O   UNL     1     -39.456  50.562 -53.277  1.00  0.00    -0.356 OA
HETATM   31  C   UNL     1     -39.818  49.891 -54.480  1.00  0.00     0.210 C 
ENDBRANCH  27  30
ENDBRANCH  20  21
ENDBRANCH   1  20
TORSDOF 7
ENDMDL
MODEL 9
REMARK VINA RESULT:      -7.8      1.564      3.093
REMARK  7 active torsions:
REMARK  status: ('A' for Active; 'I' for Inactive)
REMARK    1  A    between atoms: O_2  and  C_3 
REMARK    2  A    between atoms: C_7  and  C_8 
REMARK    3  A    between atoms: C_8  and  C_9 
REMARK       I    between atoms: C_9  and  N_10 
REMARK    4  A    between atoms: N_10  and  C_11 
REMARK    5  A    between atoms: C_11  and  C_12 
REMARK    6  A    between atoms: C_12  and  N_13 
REMARK    7  A    between atoms: C_12  and  C_19 
ROOT
HETATM    1  C   UNL     1     -42.290  55.107 -55.975  1.00  0.00     0.222 C 
HETATM    2  N   UNL     1     -42.179  55.738 -57.202  1.00  0.00    -0.358 N 
HETATM    3  O   UNL     1     -43.203  54.319 -55.753  1.00  0.00    -0.273 OA
HETATM    4  H   UNL     1     -41.486  56.477 -57.296  1.00  0.00     0.162 HD
ENDROOT
BRANCH   2   5
HETATM    5  C   UNL     1     -43.219  55.638 -58.219  1.00  0.00     0.160 C 
BRANCH   5   6
HETATM    6  C   UNL     1     -44.186  56.864 -58.307  1.00  0.00     0.240 C 
BRANCH   6   7
HETATM    7  N   UNL     1     -45.554  56.485 -58.873  1.00  0.00    -0.061 N 
HETATM    8  H   UNL     1     -46.096  56.151 -58.063  1.00  0.00     0.280 HD
HETATM    9  C   UNL     1     -45.532  55.375 -59.913  1.00  0.00     0.236 C 
HETATM   10  C   UNL     1     -45.899  56.060 -61.211  1.00  0.00     0.029 C 
HETATM   11  C   UNL     1     -46.923  57.077 -60.771  1.00  0.00     0.029 C 
HETATM   12  C   UNL     1     -46.332  57.641 -59.492  1.00  0.00     0.236 C 
ENDBRANCH   6   7
BRANCH   6  13
HETATM   13  C   UNL     1     -43.496  58.027 -59.017  1.00  0.00    -0.004 A 
HETATM   14  C   UNL     1     -43.600  59.380 -58.643  1.00  0.00     0.042 A 
HETATM   15 CL   UNL     1     -44.507  59.899 -57.266  1.00  0.00    -0.084 Cl
HETATM   16  C   UNL     1     -42.944  60.378 -59.371  1.00  0.00     0.024 A 
HETATM   17  C   UNL     1     -42.175  60.047 -60.484  1.00  0.00     0.002 A 
HETATM   18  C   UNL     1     -42.059  58.719 -60.873  1.00  0.00     0.001 A 
HETATM   19  C   UNL     1     -42.714  57.719 -60.152  1.00  0.00     0.011 A 
ENDBRANCH   6  13
ENDBRANCH   5   6
ENDBRANCH   2   5
BRANCH   1  20
HETATM   20  C   UNL     1     -41.156  55.442 -55.015  1.00  0.00     0.144 C 
BRANCH  20  21
HETATM   21  C   UNL     1     -40.699  54.311 -54.158  1.00  0.00    -0.014 A 
HETATM   22  C   UNL     1     -40.747  54.193 -52.731  1.00  0.00     0.006 A 
HETATM   23  C   UNL     1     -40.270  52.923 -52.431  1.00  0.00     0.088 A 
HETATM   24  C   UNL     1     -41.144  55.017 -51.662  1.00  0.00     0.017 A 
HETATM   25  C   UNL     1     -40.171  52.394 -51.144  1.00  0.00     0.074 A 
HETATM   26  O   UNL     1     -39.924  52.271 -53.573  1.00  0.00    -0.321 OA
HETATM   27  C   UNL     1     -40.581  53.225 -50.097  1.00  0.00     0.070 A 
HETATM   28  C   UNL     1     -41.040  54.521 -50.354  1.00  0.00     0.038 A 
HETATM   29  C   UNL     1     -40.183  53.110 -54.605  1.00  0.00     0.151 A 
BRANCH  27  30
HETATM   30  O   UNL     1     -40.559  52.887 -48.769  1.00  0.00    -0.356 OA
HETATM   31  C   UNL     1     -40.281  53.945 -47.858  1.00  0.00     0.210 C 
ENDBRANCH  27  30
ENDBRANCH  20  21
ENDBRANCH   1  20
TORSDOF 7
ENDMDL
MODEL 10
REMARK VINA RESULT:      -7.7     15.472     17.920
REMARK  7 active torsions:
REMARK  status: ('A' for Active; 'I' for Inactive)
REMARK    1  A    between atoms: O_2  and  C_3 
REMARK    2  A    between atoms: C_7  and  C_8 
REMARK    3  A    between atoms: C_8  and  C_9 
REMARK       I    between atoms: C_9  and  N_10 
REMARK    4  A    between atoms: N_10  and  C_11 
REMARK    5  A    between atoms: C_11  and  C_12 
REMARK    6  A    between atoms: C_12  and  N_13 
REMARK    7  A    between atoms: C_12  and  C_19 
ROOT
HETATM    1  C   UNL     1     -35.362  42.084 -52.830  1.00  0.00     0.222 C 
HETATM    2  N   UNL     1     -34.490  41.658 -53.818  1.00  0.00    -0.358 N 
HETATM    3  O   UNL     1     -36.518  42.388 -53.101  1.00  0.00    -0.273 OA
HETATM    4  H   UNL     1     -33.510  41.542 -53.571  1.00  0.00     0.162 HD
ENDROOT
BRANCH   2   5
HETATM    5  C   UNL     1     -34.839  41.715 -55.234  1.00  0.00     0.160 C 
BRANCH   5   6
HETATM    6  C   UNL     1     -35.178  40.338 -55.891  1.00  0.00     0.240 C 
BRANCH   6   7
HETATM    7  N   UNL     1     -33.925  39.527 -56.219  1.00  0.00    -0.061 N 
HETATM    8  H   UNL     1     -34.160  39.003 -57.073  1.00  0.00     0.280 HD
HETATM    9  C   UNL     1     -33.512  38.526 -55.151  1.00  0.00     0.236 C 
HETATM   10  C   UNL     1     -32.224  39.081 -54.583  1.00  0.00     0.029 C 
HETATM   11  C   UNL     1     -31.551  39.668 -55.800  1.00  0.00     0.029 C 
HETATM   12  C   UNL     1     -32.686  40.362 -56.529  1.00  0.00     0.236 C 
ENDBRANCH   6   7
BRANCH   6  13
HETATM   13  C   UNL     1     -36.139  40.536 -57.062  1.00  0.00    -0.004 A 
HETATM   14  C   UNL     1     -37.006  39.552 -57.574  1.00  0.00     0.042 A 
HETATM   15 CL   UNL     1     -37.127  37.970 -56.889  1.00  0.00    -0.084 Cl
HETATM   16  C   UNL     1     -37.837  39.827 -58.665  1.00  0.00     0.024 A 
HETATM   17  C   UNL     1     -37.819  41.083 -59.266  1.00  0.00     0.002 A 
HETATM   18  C   UNL     1     -36.971  42.069 -58.779  1.00  0.00     0.001 A 
HETATM   19  C   UNL     1     -36.137  41.800 -57.692  1.00  0.00     0.011 A 
ENDBRANCH   6  13
ENDBRANCH   5   6
ENDBRANCH   2   5
BRANCH   1  20
HETATM   20  C   UNL     1     -34.755  42.057 -51.433  1.00  0.00     0.144 C 
BRANCH  20  21
HETATM   21  C   UNL     1     -34.788  40.729 -50.757  1.00  0.00    -0.014 A 
HETATM   22  C   UNL     1     -33.754  40.082 -50.006  1.00  0.00     0.006 A 
HETATM   23  C   UNL     1     -34.306  38.902 -49.524  1.00  0.00     0.088 A 
HETATM   24  C   UNL     1     -32.416  40.364 -49.677  1.00  0.00     0.017 A 
HETATM   25  C   UNL     1     -33.636  37.979 -48.720  1.00  0.00     0.074 A 
HETATM   26  O   UNL     1     -35.595  38.783 -49.942  1.00  0.00    -0.321 OA
HETATM   27  C   UNL     1     -32.311  38.284 -48.396  1.00  0.00     0.070 A 
HETATM   28  C   UNL     1     -31.708  39.448 -48.885  1.00  0.00     0.038 A 
HETATM   29  C   UNL     1     -35.877  39.882 -50.682  1.00  0.00     0.151 A 
BRANCH  27  30
HETATM   30  O   UNL     1     -31.491  37.506 -47.622  1.00  0.00    -0.356 OA
HETATM   31  C   UNL     1     -30.914  38.142 -46.485  1.00  0.00     0.210 C 
ENDBRANCH  27  30
ENDBRANCH  20  21
ENDBRANCH   1  20
TORSDOF 7
ENDMDL
