MODEL 1
REMARK VINA RESULT:      -8.1      0.000      0.000
REMARK  10 active torsions:
REMARK  status: ('A' for Active; 'I' for Inactive)
REMARK    1  A    between atoms: C_2  and  O_3 
REMARK    2  A    between atoms: O_3  and  C_4 
REMARK    3  A    between atoms: C_4  and  C_5 
REMARK    4  A    between atoms: C_6  and  C_7 
REMARK    5  A    between atoms: C_16  and  C_17 
REMARK    6  A    between atoms: C_17  and  C_18 
REMARK       I    between atoms: C_18  and  N_19 
REMARK    7  A    between atoms: N_19  and  C_20 
REMARK    8  A    between atoms: C_20  and  C_21 
REMARK    9  A    between atoms: C_21  and  N_22 
REMARK   10  A    between atoms: C_31  and  C_32 
ROOT
HETATM    1  C   UNL     1     -41.007  57.509 -51.720  1.00  0.00     0.075 C 
HETATM    2  C   UNL     1     -41.033  57.414 -53.267  1.00  0.00     0.151 C 
HETATM    3  N   UNL     1     -42.032  58.154 -53.978  1.00  0.00    -0.321 N 
HETATM    4  C   UNL     1     -42.700  58.027 -55.074  1.00  0.00     0.011 C 
HETATM    5  C   UNL     1     -41.980  59.571 -53.473  1.00  0.00     0.170 C 
HETATM    6  S   UNL     1     -42.818  60.666 -54.510  1.00  0.00    -0.086 SA
HETATM    7  C   UNL     1     -43.433  59.275 -55.518  1.00  0.00     0.135 C 
HETATM    8  N   UNL     1     -41.302  59.898 -52.439  1.00  0.00    -0.219 NA
HETATM    9  C   UNL     1     -40.821  58.932 -51.508  1.00  0.00     0.157 C 
ENDROOT
BRANCH   4  10
HETATM   10  C   UNL     1     -42.596  56.788 -55.916  1.00  0.00     0.156 C 
BRANCH  10  11
HETATM   11  C   UNL     1     -42.472  57.045 -57.403  1.00  0.00     0.223 C 
HETATM   12  N   UNL     1     -43.145  56.153 -58.199  1.00  0.00    -0.359 N 
HETATM   13  H   UNL     1     -43.621  55.366 -57.763  1.00  0.00     0.162 HD
HETATM   14  O   UNL     1     -41.848  57.999 -57.859  1.00  0.00    -0.273 OA
BRANCH  12  15
HETATM   15  C   UNL     1     -43.011  56.081 -59.656  1.00  0.00     0.150 C 
BRANCH  15  16
HETATM   16  C   UNL     1     -43.933  57.024 -60.458  1.00  0.00     0.253 C 
BRANCH  16  17
HETATM   17  N   UNL     1     -45.204  56.339 -60.922  1.00  0.00    -0.077 N 
HETATM   18  H   UNL     1     -45.460  56.758 -61.837  1.00  0.00     0.279 HD
HETATM   19  C   UNL     1     -45.034  54.864 -61.167  1.00  0.00     0.269 C 
HETATM   20  C   UNL     1     -46.351  56.597 -59.984  1.00  0.00     0.269 C 
ENDBRANCH  16  17
ENDBRANCH  15  16
ENDBRANCH  12  15
ENDBRANCH  10  11
ENDBRANCH   4  10
BRANCH   2  21
HETATM   21  C   UNL     1     -41.365  56.108 -52.806  1.00  0.00     0.044 C 
HETATM   22  C   UNL     1     -41.858  55.359 -54.420  1.00  0.00    -0.068 C 
HETATM   23  C   UNL     1     -40.993  54.381 -55.138  1.00  0.00     0.044 C 
HETATM   24  C   UNL     1     -43.490  55.730 -54.991  1.00  0.00     0.004 C 
HETATM   25  C   UNL     1     -44.609  56.700 -53.980  1.00  0.00     0.007 C 
HETATM   26  C   UNL     1     -44.167  57.252 -52.320  1.00  0.00    -0.065 C 
HETATM   27  C   UNL     1     -45.224  57.833 -51.428  1.00  0.00     0.048 C 
HETATM   28  C   UNL     1     -42.572  56.895 -51.650  1.00  0.00    -0.002 C 
ENDBRANCH   2  21
BRANCH   1  29
HETATM   29  C   UNL     1     -41.214  55.567 -50.845  1.00  0.00     0.293 C 
HETATM   30  O   UNL     1     -42.217  55.133 -50.203  1.00  0.00    -0.259 OA
BRANCH  29  31
HETATM   31  O   UNL     1     -40.241  54.506 -50.863  1.00  0.00    -0.318 OA
BRANCH  31  32
HETATM   32  C   UNL     1     -40.659  53.123 -50.880  1.00  0.00     0.174 C 
HETATM   33  C   UNL     1     -40.072  52.423 -52.088  1.00  0.00     0.034 C 
ENDBRANCH  31  32
ENDBRANCH  29  31
ENDBRANCH   1  29
BRANCH   9  34
HETATM   34  C   UNL     1     -40.316  59.753 -50.258  1.00  0.00     0.435 C 
HETATM   35  F   UNL     1     -40.867  61.003 -50.263  1.00  0.00    -0.165 F 
HETATM   36  F   UNL     1     -40.695  59.191 -49.084  1.00  0.00    -0.165 F 
HETATM   37  F   UNL     1     -38.979  59.969 -50.235  1.00  0.00    -0.165 F 
ENDBRANCH   9  34
TORSDOF 10
ENDMDL
MODEL 2
REMARK VINA RESULT:      -7.8      2.694      4.246
REMARK  10 active torsions:
REMARK  status: ('A' for Active; 'I' for Inactive)
REMARK    1  A    between atoms: C_2  and  O_3 
REMARK    2  A    between atoms: O_3  and  C_4 
REMARK    3  A    between atoms: C_4  and  C_5 
REMARK    4  A    between atoms: C_6  and  C_7 
REMARK    5  A    between atoms: C_16  and  C_17 
REMARK    6  A    between atoms: C_17  and  C_18 
REMARK       I    between atoms: C_18  and  N_19 
REMARK    7  A    between atoms: N_19  and  C_20 
REMARK    8  A    between atoms: C_20  and  C_21 
REMARK    9  A    between atoms: C_21  and  N_22 
REMARK   10  A    between atoms: C_31  and  C_32 
ROOT
HETATM    1  C   UNL     1     -41.344  56.964 -51.682  1.00  0.00     0.075 C 
HETATM    2  C   UNL     1     -42.410  56.874 -52.803  1.00  0.00     0.151 C 
HETATM    3  N   UNL     1     -42.196  55.951 -53.876  1.00  0.00    -0.321 N 
HETATM    4  C   UNL     1     -42.488  55.875 -55.130  1.00  0.00     0.011 C 
HETATM    5  C   UNL     1     -41.873  54.617 -53.258  1.00  0.00     0.170 C 
HETATM    6  S   UNL     1     -42.000  53.323 -54.392  1.00  0.00    -0.086 SA
HETATM    7  C   UNL     1     -42.273  54.511 -55.750  1.00  0.00     0.135 C 
HETATM    8  N   UNL     1     -41.630  54.490 -52.008  1.00  0.00    -0.219 NA
HETATM    9  C   UNL     1     -41.323  55.606 -51.175  1.00  0.00     0.157 C 
ENDROOT
BRANCH   4  10
HETATM   10  C   UNL     1     -43.157  57.011 -55.849  1.00  0.00     0.156 C 
BRANCH  10  11
HETATM   11  C   UNL     1     -43.072  56.939 -57.359  1.00  0.00     0.223 C 
HETATM   12  N   UNL     1     -44.069  56.208 -57.957  1.00  0.00    -0.359 N 
HETATM   13  H   UNL     1     -44.747  55.728 -57.369  1.00  0.00     0.162 HD
HETATM   14  O   UNL     1     -42.201  57.519 -58.000  1.00  0.00    -0.273 OA
BRANCH  12  15
HETATM   15  C   UNL     1     -44.083  55.835 -59.373  1.00  0.00     0.150 C 
BRANCH  15  16
HETATM   16  C   UNL     1     -44.852  56.793 -60.307  1.00  0.00     0.253 C 
BRANCH  16  17
HETATM   17  N   UNL     1     -44.791  58.234 -59.842  1.00  0.00    -0.077 N 
HETATM   18  H   UNL     1     -44.369  58.231 -58.892  1.00  0.00     0.279 HD
HETATM   19  C   UNL     1     -43.904  59.102 -60.693  1.00  0.00     0.269 C 
HETATM   20  C   UNL     1     -46.163  58.838 -59.710  1.00  0.00     0.269 C 
ENDBRANCH  16  17
ENDBRANCH  15  16
ENDBRANCH  12  15
ENDBRANCH  10  11
ENDBRANCH   4  10
BRANCH   2  21
HETATM   21  C   UNL     1     -41.855  58.181 -52.919  1.00  0.00     0.044 C 
HETATM   22  C   UNL     1     -42.598  58.937 -51.408  1.00  0.00    -0.068 C 
HETATM   23  C   UNL     1     -41.796  59.210 -50.181  1.00  0.00     0.044 C 
HETATM   24  C   UNL     1     -44.275  59.479 -51.545  1.00  0.00     0.004 C 
HETATM   25  C   UNL     1     -45.139  59.377 -53.113  1.00  0.00     0.007 C 
HETATM   26  C   UNL     1     -44.323  58.817 -54.622  1.00  0.00    -0.065 C 
HETATM   27  C   UNL     1     -45.011  58.994 -55.944  1.00  0.00     0.048 C 
HETATM   28  C   UNL     1     -42.637  58.291 -54.590  1.00  0.00    -0.002 C 
ENDBRANCH   2  21
BRANCH   1  29
HETATM   29  C   UNL     1     -40.589  58.960 -51.521  1.00  0.00     0.293 C 
HETATM   30  O   UNL     1     -40.828  59.922 -52.312  1.00  0.00    -0.259 OA
BRANCH  29  31
HETATM   31  O   UNL     1     -39.709  59.469 -50.502  1.00  0.00    -0.318 OA
BRANCH  31  32
HETATM   32  C   UNL     1     -38.275  59.370 -50.651  1.00  0.00     0.174 C 
HETATM   33  C   UNL     1     -37.591  59.965 -49.437  1.00  0.00     0.034 C 
ENDBRANCH  31  32
ENDBRANCH  29  31
ENDBRANCH   1  29
BRANCH   9  34
HETATM   34  C   UNL     1     -40.804  54.996 -49.815  1.00  0.00     0.435 C 
HETATM   35  F   UNL     1     -41.271  55.731 -48.762  1.00  0.00    -0.165 F 
HETATM   36  F   UNL     1     -41.256  53.735 -49.609  1.00  0.00    -0.165 F 
HETATM   37  F   UNL     1     -39.458  55.013 -49.674  1.00  0.00    -0.165 F 
ENDBRANCH   9  34
TORSDOF 10
ENDMDL
MODEL 3
REMARK VINA RESULT:      -7.7      1.418      1.597
REMARK  10 active torsions:
REMARK  status: ('A' for Active; 'I' for Inactive)
REMARK    1  A    between atoms: C_2  and  O_3 
REMARK    2  A    between atoms: O_3  and  C_4 
REMARK    3  A    between atoms: C_4  and  C_5 
REMARK    4  A    between atoms: C_6  and  C_7 
REMARK    5  A    between atoms: C_16  and  C_17 
REMARK    6  A    between atoms: C_17  and  C_18 
REMARK       I    between atoms: C_18  and  N_19 
REMARK    7  A    between atoms: N_19  and  C_20 
REMARK    8  A    between atoms: C_20  and  C_21 
REMARK    9  A    between atoms: C_21  and  N_22 
REMARK   10  A    between atoms: C_31  and  C_32 
ROOT
HETATM    1  C   UNL     1     -40.984  57.526 -51.805  1.00  0.00     0.075 C 
HETATM    2  C   UNL     1     -41.062  57.461 -53.352  1.00  0.00     0.151 C 
HETATM    3  N   UNL     1     -42.081  58.217 -54.016  1.00  0.00    -0.321 N 
HETATM    4  C   UNL     1     -42.785  58.112 -55.091  1.00  0.00     0.011 C 
HETATM    5  C   UNL     1     -42.009  59.624 -53.485  1.00  0.00     0.170 C 
HETATM    6  S   UNL     1     -42.877  60.739 -54.473  1.00  0.00    -0.086 SA
HETATM    7  C   UNL     1     -43.529  59.370 -55.487  1.00  0.00     0.135 C 
HETATM    8  N   UNL     1     -41.295  59.928 -52.468  1.00  0.00    -0.219 NA
HETATM    9  C   UNL     1     -40.787  58.943 -51.572  1.00  0.00     0.157 C 
ENDROOT
BRANCH   4  10
HETATM   10  C   UNL     1     -42.712  56.889 -55.960  1.00  0.00     0.156 C 
BRANCH  10  11
HETATM   11  C   UNL     1     -42.938  57.149 -57.434  1.00  0.00     0.223 C 
HETATM   12  N   UNL     1     -41.849  57.647 -58.104  1.00  0.00    -0.359 N 
HETATM   13  H   UNL     1     -41.003  57.860 -57.580  1.00  0.00     0.162 HD
HETATM   14  O   UNL     1     -44.002  56.899 -57.993  1.00  0.00    -0.273 OA
BRANCH  12  15
HETATM   15  C   UNL     1     -41.886  58.158 -59.476  1.00  0.00     0.150 C 
BRANCH  15  16
HETATM   16  C   UNL     1     -42.017  59.690 -59.614  1.00  0.00     0.253 C 
BRANCH  16  17
HETATM   17  N   UNL     1     -43.416  60.122 -60.008  1.00  0.00    -0.077 N 
HETATM   18  H   UNL     1     -43.316  60.893 -60.696  1.00  0.00     0.279 HD
HETATM   19  C   UNL     1     -44.204  59.042 -60.699  1.00  0.00     0.269 C 
HETATM   20  C   UNL     1     -44.181  60.675 -58.837  1.00  0.00     0.269 C 
ENDBRANCH  16  17
ENDBRANCH  15  16
ENDBRANCH  12  15
ENDBRANCH  10  11
ENDBRANCH   4  10
BRANCH   2  21
HETATM   21  C   UNL     1     -41.382  56.146 -52.906  1.00  0.00     0.044 C 
HETATM   22  C   UNL     1     -41.868  55.411 -54.528  1.00  0.00    -0.068 C 
HETATM   23  C   UNL     1     -40.993  54.448 -55.256  1.00  0.00     0.044 C 
HETATM   24  C   UNL     1     -43.502  55.774 -55.096  1.00  0.00     0.004 C 
HETATM   25  C   UNL     1     -44.631  56.723 -54.075  1.00  0.00     0.007 C 
HETATM   26  C   UNL     1     -44.194  57.260 -52.409  1.00  0.00    -0.065 C 
HETATM   27  C   UNL     1     -45.257  57.822 -51.511  1.00  0.00     0.048 C 
HETATM   28  C   UNL     1     -42.596  56.910 -51.742  1.00  0.00    -0.002 C 
ENDBRANCH   2  21
BRANCH   1  29
HETATM   29  C   UNL     1     -41.168  55.568 -50.961  1.00  0.00     0.293 C 
HETATM   30  O   UNL     1     -41.725  55.270 -49.862  1.00  0.00    -0.259 OA
BRANCH  29  31
HETATM   31  O   UNL     1     -40.678  54.337 -51.525  1.00  0.00    -0.318 OA
BRANCH  31  32
HETATM   32  C   UNL     1     -39.869  53.436 -50.737  1.00  0.00     0.174 C 
HETATM   33  C   UNL     1     -39.845  52.067 -51.385  1.00  0.00     0.034 C 
ENDBRANCH  31  32
ENDBRANCH  29  31
ENDBRANCH   1  29
BRANCH   9  34
HETATM   34  C   UNL     1     -40.239  59.739 -50.324  1.00  0.00     0.435 C 
HETATM   35  F   UNL     1     -40.734  61.013 -50.324  1.00  0.00    -0.165 F 
HETATM   36  F   UNL     1     -40.636  59.193 -49.149  1.00  0.00    -0.165 F 
HETATM   37  F   UNL     1     -38.894  59.895 -50.308  1.00  0.00    -0.165 F 
ENDBRANCH   9  34
TORSDOF 10
ENDMDL
MODEL 4
REMARK VINA RESULT:      -7.6      2.988      4.509
REMARK  10 active torsions:
REMARK  status: ('A' for Active; 'I' for Inactive)
REMARK    1  A    between atoms: C_2  and  O_3 
REMARK    2  A    between atoms: O_3  and  C_4 
REMARK    3  A    between atoms: C_4  and  C_5 
REMARK    4  A    between atoms: C_6  and  C_7 
REMARK    5  A    between atoms: C_16  and  C_17 
REMARK    6  A    between atoms: C_17  and  C_18 
REMARK       I    between atoms: C_18  and  N_19 
REMARK    7  A    between atoms: N_19  and  C_20 
REMARK    8  A    between atoms: C_20  and  C_21 
REMARK    9  A    between atoms: C_21  and  N_22 
REMARK   10  A    between atoms: C_31  and  C_32 
ROOT
HETATM    1  C   UNL     1     -41.353  57.060 -51.788  1.00  0.00     0.075 C 
HETATM    2  C   UNL     1     -42.385  57.006 -52.944  1.00  0.00     0.151 C 
HETATM    3  N   UNL     1     -42.160  56.085 -54.016  1.00  0.00    -0.321 N 
HETATM    4  C   UNL     1     -42.413  56.026 -55.279  1.00  0.00     0.011 C 
HETATM    5  C   UNL     1     -41.892  54.739 -53.398  1.00  0.00     0.170 C 
HETATM    6  S   UNL     1     -42.016  53.457 -54.545  1.00  0.00    -0.086 SA
HETATM    7  C   UNL     1     -42.214  54.660 -55.903  1.00  0.00     0.135 C 
HETATM    8  N   UNL     1     -41.694  54.597 -52.142  1.00  0.00    -0.219 NA
HETATM    9  C   UNL     1     -41.385  55.698 -51.292  1.00  0.00     0.157 C 
ENDROOT
BRANCH   4  10
HETATM   10  C   UNL     1     -43.029  57.184 -56.011  1.00  0.00     0.156 C 
BRANCH  10  11
HETATM   11  C   UNL     1     -43.063  57.032 -57.517  1.00  0.00     0.223 C 
HETATM   12  N   UNL     1     -41.973  57.547 -58.172  1.00  0.00    -0.359 N 
HETATM   13  H   UNL     1     -41.260  58.034 -57.634  1.00  0.00     0.162 HD
HETATM   14  O   UNL     1     -43.978  56.459 -58.102  1.00  0.00    -0.273 OA
BRANCH  12  15
HETATM   15  C   UNL     1     -41.877  57.694 -59.626  1.00  0.00     0.150 C 
BRANCH  15  16
HETATM   16  C   UNL     1     -42.794  58.767 -60.250  1.00  0.00     0.253 C 
BRANCH  16  17
HETATM   17  N   UNL     1     -42.716  60.095 -59.522  1.00  0.00    -0.077 N 
HETATM   18  H   UNL     1     -42.452  59.889 -58.539  1.00  0.00     0.279 HD
HETATM   19  C   UNL     1     -41.651  61.011 -60.060  1.00  0.00     0.269 C 
HETATM   20  C   UNL     1     -44.049  60.789 -59.483  1.00  0.00     0.269 C 
ENDBRANCH  16  17
ENDBRANCH  15  16
ENDBRANCH  12  15
ENDBRANCH  10  11
ENDBRANCH   4  10
BRANCH   2  21
HETATM   21  C   UNL     1     -41.792  58.299 -53.032  1.00  0.00     0.044 C 
HETATM   22  C   UNL     1     -42.555  59.060 -51.533  1.00  0.00    -0.068 C 
HETATM   23  C   UNL     1     -41.779  59.301 -50.283  1.00  0.00     0.044 C 
HETATM   24  C   UNL     1     -44.213  59.649 -51.710  1.00  0.00     0.004 C 
HETATM   25  C   UNL     1     -45.037  59.585 -53.302  1.00  0.00     0.007 C 
HETATM   26  C   UNL     1     -44.196  59.017 -54.794  1.00  0.00    -0.065 C 
HETATM   27  C   UNL     1     -44.843  59.224 -56.132  1.00  0.00     0.048 C 
HETATM   28  C   UNL     1     -42.525  58.445 -54.722  1.00  0.00    -0.002 C 
ENDBRANCH   2  21
BRANCH   1  29
HETATM   29  C   UNL     1     -40.552  59.035 -51.588  1.00  0.00     0.293 C 
HETATM   30  O   UNL     1     -40.732  60.005 -52.384  1.00  0.00    -0.259 OA
BRANCH  29  31
HETATM   31  O   UNL     1     -39.702  59.516 -50.532  1.00  0.00    -0.318 OA
BRANCH  31  32
HETATM   32  C   UNL     1     -38.266  59.386 -50.625  1.00  0.00     0.174 C 
HETATM   33  C   UNL     1     -37.616  59.956 -49.380  1.00  0.00     0.034 C 
ENDBRANCH  31  32
ENDBRANCH  29  31
ENDBRANCH   1  29
BRANCH   9  34
HETATM   34  C   UNL     1     -40.926  55.066 -49.920  1.00  0.00     0.435 C 
HETATM   35  F   UNL     1     -41.361  55.836 -48.879  1.00  0.00    -0.165 F 
HETATM   36  F   UNL     1     -41.461  53.838 -49.714  1.00  0.00    -0.165 F 
HETATM   37  F   UNL     1     -39.584  54.998 -49.758  1.00  0.00    -0.165 F 
ENDBRANCH   9  34
TORSDOF 10
ENDMDL
MODEL 5
REMARK VINA RESULT:      -7.4      4.339      5.874
REMARK  10 active torsions:
REMARK  status: ('A' for Active; 'I' for Inactive)
REMARK    1  A    between atoms: C_2  and  O_3 
REMARK    2  A    between atoms: O_3  and  C_4 
REMARK    3  A    between atoms: C_4  and  C_5 
REMARK    4  A    between atoms: C_6  and  C_7 
REMARK    5  A    between atoms: C_16  and  C_17 
REMARK    6  A    between atoms: C_17  and  C_18 
REMARK       I    between atoms: C_18  and  N_19 
REMARK    7  A    between atoms: N_19  and  C_20 
REMARK    8  A    between atoms: C_20  and  C_21 
REMARK    9  A    between atoms: C_21  and  N_22 
REMARK   10  A    between atoms: C_31  and  C_32 
ROOT
HETATM    1  C   UNL     1     -42.258  56.848 -54.464  1.00  0.00     0.075 C 
HETATM    2  C   UNL     1     -42.869  58.063 -55.206  1.00  0.00     0.151 C 
HETATM    3  N   UNL     1     -42.472  58.305 -56.560  1.00  0.00    -0.321 N 
HETATM    4  C   UNL     1     -42.322  59.327 -57.332  1.00  0.00     0.011 C 
HETATM    5  C   UNL     1     -42.634  57.010 -57.311  1.00  0.00     0.170 C 
HETATM    6  S   UNL     1     -42.598  57.237 -59.020  1.00  0.00    -0.086 SA
HETATM    7  C   UNL     1     -42.162  58.995 -58.801  1.00  0.00     0.135 C 
HETATM    8  N   UNL     1     -42.865  55.904 -56.711  1.00  0.00    -0.219 NA
HETATM    9  C   UNL     1     -42.665  55.742 -55.309  1.00  0.00     0.157 C 
ENDROOT
BRANCH   4  10
HETATM   10  C   UNL     1     -42.480  60.729 -56.817  1.00  0.00     0.156 C 
BRANCH  10  11
HETATM   11  C   UNL     1     -42.170  61.812 -57.829  1.00  0.00     0.223 C 
HETATM   12  N   UNL     1     -40.859  62.214 -57.858  1.00  0.00    -0.359 N 
HETATM   13  H   UNL     1     -40.208  61.819 -57.182  1.00  0.00     0.162 HD
HETATM   14  O   UNL     1     -43.019  62.267 -58.591  1.00  0.00    -0.273 OA
BRANCH  12  15
HETATM   15  C   UNL     1     -40.367  63.374 -58.605  1.00  0.00     0.150 C 
BRANCH  15  16
HETATM   16  C   UNL     1     -39.370  63.060 -59.742  1.00  0.00     0.253 C 
BRANCH  16  17
HETATM   17  N   UNL     1     -39.976  63.256 -61.117  1.00  0.00    -0.077 N 
HETATM   18  H   UNL     1     -40.499  64.154 -61.096  1.00  0.00     0.279 HD
HETATM   19  C   UNL     1     -38.951  63.392 -62.210  1.00  0.00     0.269 C 
HETATM   20  C   UNL     1     -40.970  62.177 -61.449  1.00  0.00     0.269 C 
ENDBRANCH  16  17
ENDBRANCH  15  16
ENDBRANCH  12  15
ENDBRANCH  10  11
ENDBRANCH   4  10
BRANCH   2  21
HETATM   21  C   UNL     1     -42.077  58.623 -54.163  1.00  0.00     0.044 C 
HETATM   22  C   UNL     1     -43.143  58.165 -52.726  1.00  0.00    -0.068 C 
HETATM   23  C   UNL     1     -42.777  57.069 -51.784  1.00  0.00     0.044 C 
HETATM   24  C   UNL     1     -44.539  59.206 -52.422  1.00  0.00     0.004 C 
HETATM   25  C   UNL     1     -44.812  60.675 -53.415  1.00  0.00     0.007 C 
HETATM   26  C   UNL     1     -43.644  61.205 -54.684  1.00  0.00    -0.065 C 
HETATM   27  C   UNL     1     -43.789  62.565 -55.301  1.00  0.00     0.048 C 
HETATM   28  C   UNL     1     -42.201  60.248 -55.032  1.00  0.00    -0.002 C 
ENDBRANCH   2  21
BRANCH   1  29
HETATM   29  C   UNL     1     -41.251  57.483 -52.686  1.00  0.00     0.293 C 
HETATM   30  O   UNL     1     -41.001  56.771 -51.666  1.00  0.00    -0.259 OA
BRANCH  29  31
HETATM   31  O   UNL     1     -40.734  58.798 -52.412  1.00  0.00    -0.318 OA
BRANCH  31  32
HETATM   32  C   UNL     1     -39.929  59.043 -51.237  1.00  0.00     0.174 C 
HETATM   33  C   UNL     1     -40.728  59.838 -50.224  1.00  0.00     0.034 C 
ENDBRANCH  31  32
ENDBRANCH  29  31
ENDBRANCH   1  29
BRANCH   9  34
HETATM   34  C   UNL     1     -42.769  54.191 -55.037  1.00  0.00     0.435 C 
HETATM   35  F   UNL     1     -43.251  53.965 -53.779  1.00  0.00    -0.165 F 
HETATM   36  F   UNL     1     -43.638  53.577 -55.878  1.00  0.00    -0.165 F 
HETATM   37  F   UNL     1     -41.584  53.537 -55.072  1.00  0.00    -0.165 F 
ENDBRANCH   9  34
TORSDOF 10
ENDMDL
MODEL 6
REMARK VINA RESULT:      -7.3      4.161      8.154
REMARK  10 active torsions:
REMARK  status: ('A' for Active; 'I' for Inactive)
REMARK    1  A    between atoms: C_2  and  O_3 
REMARK    2  A    between atoms: O_3  and  C_4 
REMARK    3  A    between atoms: C_4  and  C_5 
REMARK    4  A    between atoms: C_6  and  C_7 
REMARK    5  A    between atoms: C_16  and  C_17 
REMARK    6  A    between atoms: C_17  and  C_18 
REMARK       I    between atoms: C_18  and  N_19 
REMARK    7  A    between atoms: N_19  and  C_20 
REMARK    8  A    between atoms: C_20  and  C_21 
REMARK    9  A    between atoms: C_21  and  N_22 
REMARK   10  A    between atoms: C_31  and  C_32 
ROOT
HETATM    1  C   UNL     1     -44.069  57.559 -57.457  1.00  0.00     0.075 C 
HETATM    2  C   UNL     1     -43.459  57.598 -56.033  1.00  0.00     0.151 C 
HETATM    3  N   UNL     1     -43.494  56.405 -55.243  1.00  0.00    -0.321 N 
HETATM    4  C   UNL     1     -43.570  56.102 -53.992  1.00  0.00     0.011 C 
HETATM    5  C   UNL     1     -42.943  55.291 -56.093  1.00  0.00     0.170 C 
HETATM    6  S   UNL     1     -42.534  53.899 -55.161  1.00  0.00    -0.086 SA
HETATM    7  C   UNL     1     -43.265  54.655 -53.669  1.00  0.00     0.135 C 
HETATM    8  N   UNL     1     -42.730  55.437 -57.346  1.00  0.00    -0.219 NA
HETATM    9  C   UNL     1     -43.287  56.516 -58.092  1.00  0.00     0.157 C 
ENDROOT
BRANCH   4  10
HETATM   10  C   UNL     1     -43.766  57.157 -52.941  1.00  0.00     0.156 C 
BRANCH  10  11
HETATM   11  C   UNL     1     -43.587  56.671 -51.518  1.00  0.00     0.223 C 
HETATM   12  N   UNL     1     -42.284  56.455 -51.144  1.00  0.00    -0.359 N 
HETATM   13  H   UNL     1     -41.547  56.573 -51.836  1.00  0.00     0.162 HD
HETATM   14  O   UNL     1     -44.531  56.517 -50.749  1.00  0.00    -0.273 OA
BRANCH  12  15
HETATM   15  C   UNL     1     -41.880  55.801 -49.897  1.00  0.00     0.150 C 
BRANCH  15  16
HETATM   16  C   UNL     1     -41.946  54.259 -49.901  1.00  0.00     0.253 C 
BRANCH  16  17
HETATM   17  N   UNL     1     -40.608  53.620 -50.213  1.00  0.00    -0.077 N 
HETATM   18  H   UNL     1     -40.653  52.636 -49.880  1.00  0.00     0.279 HD
HETATM   19  C   UNL     1     -40.304  53.551 -51.685  1.00  0.00     0.269 C 
HETATM   20  C   UNL     1     -39.484  54.284 -49.466  1.00  0.00     0.269 C 
ENDBRANCH  16  17
ENDBRANCH  15  16
ENDBRANCH  12  15
ENDBRANCH  10  11
ENDBRANCH   4  10
BRANCH   2  21
HETATM   21  C   UNL     1     -44.583  58.472 -55.982  1.00  0.00     0.044 C 
HETATM   22  C   UNL     1     -43.900  59.865 -56.983  1.00  0.00    -0.068 C 
HETATM   23  C   UNL     1     -44.345  60.130 -58.381  1.00  0.00     0.044 C 
HETATM   24  C   UNL     1     -42.814  60.977 -56.142  1.00  0.00     0.004 C 
HETATM   25  C   UNL     1     -42.498  60.788 -54.387  1.00  0.00     0.007 C 
HETATM   26  C   UNL     1     -43.334  59.536 -53.392  1.00  0.00    -0.065 C 
HETATM   27  C   UNL     1     -43.229  59.587 -51.896  1.00  0.00     0.048 C 
HETATM   28  C   UNL     1     -44.467  58.404 -54.140  1.00  0.00    -0.002 C 
ENDBRANCH   2  21
BRANCH   1  29
HETATM   29  C   UNL     1     -45.613  59.028 -57.653  1.00  0.00     0.293 C 
HETATM   30  O   UNL     1     -46.138  59.699 -56.714  1.00  0.00    -0.259 OA
BRANCH  29  31
HETATM   31  O   UNL     1     -46.260  59.441 -58.871  1.00  0.00    -0.318 OA
BRANCH  31  32
HETATM   32  C   UNL     1     -47.374  58.691 -59.405  1.00  0.00     0.174 C 
HETATM   33  C   UNL     1     -46.863  57.570 -60.287  1.00  0.00     0.034 C 
ENDBRANCH  31  32
ENDBRANCH  29  31
ENDBRANCH   1  29
BRANCH   9  34
HETATM   34  C   UNL     1     -43.039  56.162 -59.610  1.00  0.00     0.435 C 
HETATM   35  F   UNL     1     -43.594  54.949 -59.907  1.00  0.00    -0.165 F 
HETATM   36  F   UNL     1     -43.629  57.048 -60.450  1.00  0.00    -0.165 F 
HETATM   37  F   UNL     1     -41.734  56.033 -59.947  1.00  0.00    -0.165 F 
ENDBRANCH   9  34
TORSDOF 10
ENDMDL
MODEL 7
REMARK VINA RESULT:      -7.3      4.335      6.188
REMARK  10 active torsions:
REMARK  status: ('A' for Active; 'I' for Inactive)
REMARK    1  A    between atoms: C_2  and  O_3 
REMARK    2  A    between atoms: O_3  and  C_4 
REMARK    3  A    between atoms: C_4  and  C_5 
REMARK    4  A    between atoms: C_6  and  C_7 
REMARK    5  A    between atoms: C_16  and  C_17 
REMARK    6  A    between atoms: C_17  and  C_18 
REMARK       I    between atoms: C_18  and  N_19 
REMARK    7  A    between atoms: N_19  and  C_20 
REMARK    8  A    between atoms: C_20  and  C_21 
REMARK    9  A    between atoms: C_21  and  N_22 
REMARK   10  A    between atoms: C_31  and  C_32 
ROOT
HETATM    1  C   UNL     1     -43.411  56.303 -53.584  1.00  0.00     0.075 C 
HETATM    2  C   UNL     1     -44.210  57.630 -53.532  1.00  0.00     0.151 C 
HETATM    3  N   UNL     1     -43.607  58.810 -54.074  1.00  0.00    -0.321 N 
HETATM    4  C   UNL     1     -43.642  60.079 -53.845  1.00  0.00     0.011 C 
HETATM    5  C   UNL     1     -43.118  58.467 -55.456  1.00  0.00     0.170 C 
HETATM    6  S   UNL     1     -42.750  59.872 -56.386  1.00  0.00    -0.086 SA
HETATM    7  C   UNL     1     -43.024  60.937 -54.930  1.00  0.00     0.135 C 
HETATM    8  N   UNL     1     -43.085  57.262 -55.883  1.00  0.00    -0.219 NA
HETATM    9  C   UNL     1     -43.187  56.141 -55.008  1.00  0.00     0.157 C 
ENDROOT
BRANCH   4  10
HETATM   10  C   UNL     1     -44.401  60.645 -52.680  1.00  0.00     0.156 C 
BRANCH  10  11
HETATM   11  C   UNL     1     -45.365  61.758 -53.035  1.00  0.00     0.223 C 
HETATM   12  N   UNL     1     -46.651  61.347 -53.284  1.00  0.00    -0.359 N 
HETATM   13  H   UNL     1     -46.861  60.352 -53.272  1.00  0.00     0.162 HD
HETATM   14  O   UNL     1     -45.029  62.938 -53.063  1.00  0.00    -0.273 OA
BRANCH  12  15
HETATM   15  C   UNL     1     -47.700  62.207 -53.835  1.00  0.00     0.150 C 
BRANCH  15  16
HETATM   16  C   UNL     1     -49.024  62.237 -53.040  1.00  0.00     0.253 C 
BRANCH  16  17
HETATM   17  N   UNL     1     -50.181  61.637 -53.815  1.00  0.00    -0.077 N 
HETATM   18  H   UNL     1     -49.988  60.621 -53.915  1.00  0.00     0.279 HD
HETATM   19  C   UNL     1     -51.501  61.747 -53.101  1.00  0.00     0.269 C 
HETATM   20  C   UNL     1     -50.276  62.205 -55.205  1.00  0.00     0.269 C 
ENDBRANCH  16  17
ENDBRANCH  15  16
ENDBRANCH  12  15
ENDBRANCH  10  11
ENDBRANCH   4  10
BRANCH   2  21
HETATM   21  C   UNL     1     -43.942  57.302 -52.172  1.00  0.00     0.044 C 
HETATM   22  C   UNL     1     -44.694  58.786 -51.372  1.00  0.00    -0.068 C 
HETATM   23  C   UNL     1     -45.994  58.723 -50.646  1.00  0.00     0.044 C 
HETATM   24  C   UNL     1     -43.710  60.254 -51.363  1.00  0.00     0.004 C 
HETATM   25  C   UNL     1     -42.039  60.235 -52.013  1.00  0.00     0.007 C 
HETATM   26  C   UNL     1     -41.260  58.719 -52.608  1.00  0.00    -0.065 C 
HETATM   27  C   UNL     1     -39.788  58.709 -52.898  1.00  0.00     0.048 C 
HETATM   28  C   UNL     1     -42.153  57.195 -52.620  1.00  0.00    -0.002 C 
ENDBRANCH   2  21
BRANCH   1  29
HETATM   29  C   UNL     1     -43.153  55.504 -51.615  1.00  0.00     0.293 C 
HETATM   30  O   UNL     1     -44.053  55.372 -50.732  1.00  0.00    -0.259 OA
BRANCH  29  31
HETATM   31  O   UNL     1     -41.928  55.020 -51.036  1.00  0.00    -0.318 OA
BRANCH  31  32
HETATM   32  C   UNL     1     -41.452  53.687 -51.325  1.00  0.00     0.174 C 
HETATM   33  C   UNL     1     -40.867  53.642 -52.722  1.00  0.00     0.034 C 
ENDBRANCH  31  32
ENDBRANCH  29  31
ENDBRANCH   1  29
BRANCH   9  34
HETATM   34  C   UNL     1     -42.803  54.881 -55.877  1.00  0.00     0.435 C 
HETATM   35  F   UNL     1     -43.401  53.761 -55.372  1.00  0.00    -0.165 F 
HETATM   36  F   UNL     1     -43.242  54.984 -57.156  1.00  0.00    -0.165 F 
HETATM   37  F   UNL     1     -41.481  54.589 -55.885  1.00  0.00    -0.165 F 
ENDBRANCH   9  34
TORSDOF 10
ENDMDL
MODEL 8
REMARK VINA RESULT:      -7.1      4.599      7.410
REMARK  10 active torsions:
REMARK  status: ('A' for Active; 'I' for Inactive)
REMARK    1  A    between atoms: C_2  and  O_3 
REMARK    2  A    between atoms: O_3  and  C_4 
REMARK    3  A    between atoms: C_4  and  C_5 
REMARK    4  A    between atoms: C_6  and  C_7 
REMARK    5  A    between atoms: C_16  and  C_17 
REMARK    6  A    between atoms: C_17  and  C_18 
REMARK       I    between atoms: C_18  and  N_19 
REMARK    7  A    between atoms: N_19  and  C_20 
REMARK    8  A    between atoms: C_20  and  C_21 
REMARK    9  A    between atoms: C_21  and  N_22 
REMARK   10  A    between atoms: C_31  and  C_32 
ROOT
HETATM    1  C   UNL     1     -43.653  56.855 -56.083  1.00  0.00     0.075 C 
HETATM    2  C   UNL     1     -43.564  58.206 -55.330  1.00  0.00     0.151 C 
HETATM    3  N   UNL     1     -44.272  58.345 -54.093  1.00  0.00    -0.321 N 
HETATM    4  C   UNL     1     -44.850  59.293 -53.437  1.00  0.00     0.011 C 
HETATM    5  C   UNL     1     -43.905  57.164 -53.235  1.00  0.00     0.170 C 
HETATM    6  S   UNL     1     -44.338  57.398 -51.582  1.00  0.00    -0.086 SA
HETATM    7  C   UNL     1     -45.196  58.952 -52.002  1.00  0.00     0.135 C 
HETATM    8  N   UNL     1     -43.260  56.162 -53.701  1.00  0.00    -0.219 NA
HETATM    9  C   UNL     1     -43.128  55.927 -55.100  1.00  0.00     0.157 C 
ENDROOT
BRANCH   4  10
HETATM   10  C   UNL     1     -44.992  60.673 -54.013  1.00  0.00     0.156 C 
BRANCH  10  11
HETATM   11  C   UNL     1     -45.924  61.585 -53.243  1.00  0.00     0.223 C 
HETATM   12  N   UNL     1     -47.252  61.450 -53.561  1.00  0.00    -0.359 N 
HETATM   13  H   UNL     1     -47.517  60.811 -54.307  1.00  0.00     0.162 HD
HETATM   14  O   UNL     1     -45.525  62.358 -52.377  1.00  0.00    -0.273 OA
BRANCH  12  15
HETATM   15  C   UNL     1     -48.307  62.353 -53.098  1.00  0.00     0.150 C 
BRANCH  15  16
HETATM   16  C   UNL     1     -49.425  62.652 -54.120  1.00  0.00     0.253 C 
BRANCH  16  17
HETATM   17  N   UNL     1     -50.496  61.580 -54.141  1.00  0.00    -0.077 N 
HETATM   18  H   UNL     1     -50.024  60.672 -53.963  1.00  0.00     0.279 HD
HETATM   19  C   UNL     1     -51.525  61.739 -53.055  1.00  0.00     0.269 C 
HETATM   20  C   UNL     1     -51.155  61.475 -55.490  1.00  0.00     0.269 C 
ENDBRANCH  16  17
ENDBRANCH  15  16
ENDBRANCH  12  15
ENDBRANCH  10  11
ENDBRANCH   4  10
BRANCH   2  21
HETATM   21  C   UNL     1     -44.260  58.497 -56.539  1.00  0.00     0.044 C 
HETATM   22  C   UNL     1     -42.853  58.320 -57.721  1.00  0.00    -0.068 C 
HETATM   23  C   UNL     1     -42.721  57.143 -58.626  1.00  0.00     0.044 C 
HETATM   24  C   UNL     1     -41.757  59.701 -57.849  1.00  0.00     0.004 C 
HETATM   25  C   UNL     1     -42.086  61.211 -56.939  1.00  0.00     0.007 C 
HETATM   26  C   UNL     1     -43.577  61.426 -55.945  1.00  0.00    -0.065 C 
HETATM   27  C   UNL     1     -43.925  62.787 -55.419  1.00  0.00     0.048 C 
HETATM   28  C   UNL     1     -44.749  60.113 -55.789  1.00  0.00    -0.002 C 
ENDBRANCH   2  21
BRANCH   1  29
HETATM   29  C   UNL     1     -44.427  57.145 -58.057  1.00  0.00     0.293 C 
HETATM   30  O   UNL     1     -44.433  56.293 -58.997  1.00  0.00    -0.259 OA
BRANCH  29  31
HETATM   31  O   UNL     1     -45.034  58.342 -58.577  1.00  0.00    -0.318 OA
BRANCH  31  32
HETATM   32  C   UNL     1     -46.139  58.265 -59.505  1.00  0.00     0.174 C 
HETATM   33  C   UNL     1     -47.260  59.175 -59.046  1.00  0.00     0.034 C 
ENDBRANCH  31  32
ENDBRANCH  29  31
ENDBRANCH   1  29
BRANCH   9  34
HETATM   34  C   UNL     1     -42.543  54.467 -55.237  1.00  0.00     0.435 C 
HETATM   35  F   UNL     1     -42.311  53.936 -54.000  1.00  0.00    -0.165 F 
HETATM   36  F   UNL     1     -43.411  53.619 -55.842  1.00  0.00    -0.165 F 
HETATM   37  F   UNL     1     -41.347  54.401 -55.868  1.00  0.00    -0.165 F 
ENDBRANCH   9  34
TORSDOF 10
ENDMDL
MODEL 9
REMARK VINA RESULT:      -7.1      3.628      5.166
REMARK  10 active torsions:
REMARK  status: ('A' for Active; 'I' for Inactive)
REMARK    1  A    between atoms: C_2  and  O_3 
REMARK    2  A    between atoms: O_3  and  C_4 
REMARK    3  A    between atoms: C_4  and  C_5 
REMARK    4  A    between atoms: C_6  and  C_7 
REMARK    5  A    between atoms: C_16  and  C_17 
REMARK    6  A    between atoms: C_17  and  C_18 
REMARK       I    between atoms: C_18  and  N_19 
REMARK    7  A    between atoms: N_19  and  C_20 
REMARK    8  A    between atoms: C_20  and  C_21 
REMARK    9  A    between atoms: C_21  and  N_22 
REMARK   10  A    between atoms: C_31  and  C_32 
ROOT
HETATM    1  C   UNL     1     -41.966  56.227 -53.472  1.00  0.00     0.075 C 
HETATM    2  C   UNL     1     -43.025  57.072 -54.224  1.00  0.00     0.151 C 
HETATM    3  N   UNL     1     -42.873  57.257 -55.636  1.00  0.00    -0.321 N 
HETATM    4  C   UNL     1     -43.158  58.165 -56.506  1.00  0.00     0.011 C 
HETATM    5  C   UNL     1     -42.662  55.896 -56.243  1.00  0.00     0.170 C 
HETATM    6  S   UNL     1     -42.879  55.903 -57.954  1.00  0.00    -0.086 SA
HETATM    7  C   UNL     1     -43.045  57.720 -57.948  1.00  0.00     0.135 C 
HETATM    8  N   UNL     1     -42.442  54.860 -55.525  1.00  0.00    -0.219 NA
HETATM    9  C   UNL     1     -42.056  54.952 -54.155  1.00  0.00     0.157 C 
ENDROOT
BRANCH   4  10
HETATM   10  C   UNL     1     -43.730  59.492 -56.095  1.00  0.00     0.156 C 
BRANCH  10  11
HETATM   11  C   UNL     1     -43.570  60.592 -57.123  1.00  0.00     0.223 C 
HETATM   12  N   UNL     1     -42.332  61.183 -57.146  1.00  0.00    -0.359 N 
HETATM   13  H   UNL     1     -41.638  60.899 -56.458  1.00  0.00     0.162 HD
HETATM   14  O   UNL     1     -44.467  60.906 -57.900  1.00  0.00    -0.273 OA
BRANCH  12  15
HETATM   15  C   UNL     1     -42.006  62.390 -57.909  1.00  0.00     0.150 C 
BRANCH  15  16
HETATM   16  C   UNL     1     -40.991  62.201 -59.056  1.00  0.00     0.253 C 
BRANCH  16  17
HETATM   17  N   UNL     1     -41.662  61.938 -60.390  1.00  0.00    -0.077 N 
HETATM   18  H   UNL     1     -41.010  62.265 -61.129  1.00  0.00     0.279 HD
HETATM   19  C   UNL     1     -41.906  60.478 -60.660  1.00  0.00     0.269 C 
HETATM   20  C   UNL     1     -42.932  62.730 -60.541  1.00  0.00     0.269 C 
ENDBRANCH  16  17
ENDBRANCH  15  16
ENDBRANCH  12  15
ENDBRANCH  10  11
ENDBRANCH   4  10
BRANCH   2  21
HETATM   21  C   UNL     1     -42.368  57.987 -53.351  1.00  0.00     0.044 C 
HETATM   22  C   UNL     1     -43.070  57.398 -51.749  1.00  0.00    -0.068 C 
HETATM   23  C   UNL     1     -42.265  56.611 -50.772  1.00  0.00     0.044 C 
HETATM   24  C   UNL     1     -44.697  57.962 -51.351  1.00  0.00     0.004 C 
HETATM   25  C   UNL     1     -45.546  59.123 -52.422  1.00  0.00     0.007 C 
HETATM   26  C   UNL     1     -44.756  59.834 -53.881  1.00  0.00    -0.065 C 
HETATM   27  C   UNL     1     -45.411  60.983 -54.590  1.00  0.00     0.048 C 
HETATM   28  C   UNL     1     -43.117  59.359 -54.337  1.00  0.00    -0.002 C 
ENDBRANCH   2  21
BRANCH   1  29
HETATM   29  C   UNL     1     -41.059  57.376 -51.911  1.00  0.00     0.293 C 
HETATM   30  O   UNL     1     -40.677  56.944 -50.781  1.00  0.00    -0.259 OA
BRANCH  29  31
HETATM   31  O   UNL     1     -40.770  58.787 -51.936  1.00  0.00    -0.318 OA
BRANCH  31  32
HETATM   32  C   UNL     1     -40.417  59.488 -50.723  1.00  0.00     0.174 C 
HETATM   33  C   UNL     1     -41.574  60.357 -50.276  1.00  0.00     0.034 C 
ENDBRANCH  31  32
ENDBRANCH  29  31
ENDBRANCH   1  29
BRANCH   9  34
HETATM   34  C   UNL     1     -41.600  53.499 -53.740  1.00  0.00     0.435 C 
HETATM   35  F   UNL     1     -40.236  53.417 -53.740  1.00  0.00    -0.165 F 
HETATM   36  F   UNL     1     -41.985  53.178 -52.480  1.00  0.00    -0.165 F 
HETATM   37  F   UNL     1     -42.001  52.523 -54.588  1.00  0.00    -0.165 F 
ENDBRANCH   9  34
TORSDOF 10
ENDMDL
MODEL 10
REMARK VINA RESULT:      -7.1      4.607      7.373
REMARK  10 active torsions:
REMARK  status: ('A' for Active; 'I' for Inactive)
REMARK    1  A    between atoms: C_2  and  O_3 
REMARK    2  A    between atoms: O_3  and  C_4 
REMARK    3  A    between atoms: C_4  and  C_5 
REMARK    4  A    between atoms: C_6  and  C_7 
REMARK    5  A    between atoms: C_16  and  C_17 
REMARK    6  A    between atoms: C_17  and  C_18 
REMARK       I    between atoms: C_18  and  N_19 
REMARK    7  A    between atoms: N_19  and  C_20 
REMARK    8  A    between atoms: C_20  and  C_21 
REMARK    9  A    between atoms: C_21  and  N_22 
REMARK   10  A    between atoms: C_31  and  C_32 
ROOT
HETATM    1  C   UNL     1     -43.581  56.455 -57.123  1.00  0.00     0.075 C 
HETATM    2  C   UNL     1     -43.637  57.997 -56.985  1.00  0.00     0.151 C 
HETATM    3  N   UNL     1     -44.368  58.557 -55.888  1.00  0.00    -0.321 N 
HETATM    4  C   UNL     1     -45.046  59.629 -55.654  1.00  0.00     0.011 C 
HETATM    5  C   UNL     1     -43.892  57.867 -54.638  1.00  0.00     0.170 C 
HETATM    6  S   UNL     1     -44.364  58.709 -53.208  1.00  0.00    -0.086 SA
HETATM    7  C   UNL     1     -45.371  59.867 -54.194  1.00  0.00     0.135 C 
HETATM    8  N   UNL     1     -43.144  56.830 -54.679  1.00  0.00    -0.219 NA
HETATM    9  C   UNL     1     -42.974  56.061 -55.866  1.00  0.00     0.157 C 
ENDROOT
BRANCH   4  10
HETATM   10  C   UNL     1     -45.321  60.635 -56.734  1.00  0.00     0.156 C 
BRANCH  10  11
HETATM   11  C   UNL     1     -46.461  61.585 -56.436  1.00  0.00     0.223 C 
HETATM   12  N   UNL     1     -47.703  61.124 -56.793  1.00  0.00    -0.359 N 
HETATM   13  H   UNL     1     -47.777  60.229 -57.272  1.00  0.00     0.162 HD
HETATM   14  O   UNL     1     -46.291  62.668 -55.883  1.00  0.00    -0.273 OA
BRANCH  12  15
HETATM   15  C   UNL     1     -48.921  61.938 -56.785  1.00  0.00     0.150 C 
BRANCH  15  16
HETATM   16  C   UNL     1     -50.241  61.165 -56.991  1.00  0.00     0.253 C 
BRANCH  16  17
HETATM   17  N   UNL     1     -50.914  60.804 -55.682  1.00  0.00    -0.077 N 
HETATM   18  H   UNL     1     -50.379  60.014 -55.271  1.00  0.00     0.279 HD
HETATM   19  C   UNL     1     -50.878  61.911 -54.664  1.00  0.00     0.269 C 
HETATM   20  C   UNL     1     -52.322  60.318 -55.893  1.00  0.00     0.269 C 
ENDBRANCH  16  17
ENDBRANCH  15  16
ENDBRANCH  12  15
ENDBRANCH  10  11
ENDBRANCH   4  10
BRANCH   2  21
HETATM   21  C   UNL     1     -44.346  57.703 -58.185  1.00  0.00     0.044 C 
HETATM   22  C   UNL     1     -42.913  57.235 -59.250  1.00  0.00    -0.068 C 
HETATM   23  C   UNL     1     -42.630  55.819 -59.621  1.00  0.00     0.044 C 
HETATM   24  C   UNL     1     -41.988  58.568 -59.951  1.00  0.00     0.004 C 
HETATM   25  C   UNL     1     -42.506  60.266 -59.701  1.00  0.00     0.007 C 
HETATM   26  C   UNL     1     -44.025  60.685 -58.821  1.00  0.00    -0.065 C 
HETATM   27  C   UNL     1     -44.540  62.093 -58.863  1.00  0.00     0.048 C 
HETATM   28  C   UNL     1     -45.034  59.417 -58.118  1.00  0.00    -0.002 C 
ENDBRANCH   2  21
BRANCH   1  29
HETATM   29  C   UNL     1     -44.360  55.842 -59.020  1.00  0.00     0.293 C 
HETATM   30  O   UNL     1     -44.111  54.753 -59.621  1.00  0.00    -0.259 OA
BRANCH  29  31
HETATM   31  O   UNL     1     -45.260  56.585 -59.862  1.00  0.00    -0.318 OA
BRANCH  31  32
HETATM   32  C   UNL     1     -46.157  55.902 -60.766  1.00  0.00     0.174 C 
HETATM   33  C   UNL     1     -47.377  56.762 -61.027  1.00  0.00     0.034 C 
ENDBRANCH  31  32
ENDBRANCH  29  31
ENDBRANCH   1  29
BRANCH   9  34
HETATM   34  C   UNL     1     -42.243  54.736 -55.419  1.00  0.00     0.435 C 
HETATM   35  F   UNL     1     -41.962  54.781 -54.083  1.00  0.00    -0.165 F 
HETATM   36  F   UNL     1     -43.017  53.636 -55.592  1.00  0.00    -0.165 F 
HETATM   37  F   UNL     1     -41.044  54.531 -56.014  1.00  0.00    -0.165 F 
ENDBRANCH   9  34
TORSDOF 10
ENDMDL
