MODEL 1
REMARK VINA RESULT:      -8.7      0.000      0.000
REMARK  8 active torsions:
REMARK  status: ('A' for Active; 'I' for Inactive)
REMARK    1  A    between atoms: C_2  and  O_3 
REMARK    2  A    between atoms: O_3  and  C_4 
REMARK    3  A    between atoms: C_4  and  C_5 
REMARK    4  A    between atoms: C_6  and  C_8 
REMARK    5  A    between atoms: C_6  and  O_7 
REMARK    6  A    between atoms: C_16  and  C_17 
REMARK    7  A    between atoms: C_18  and  C_19 
REMARK    8  A    between atoms: N_26  and  C_27 
ROOT
HETATM    1  C   UNL     1     -42.293  57.459 -52.164  1.00  0.00     0.177 C 
HETATM    2  C   UNL     1     -42.109  58.906 -51.687  1.00  0.00     0.250 C 
HETATM    3  N   UNL     1     -40.691  59.214 -51.606  1.00  0.00    -0.303 N 
HETATM    4  C   UNL     1     -39.805  58.846 -52.557  1.00  0.00     0.319 C 
HETATM    5  O   UNL     1     -38.711  59.384 -52.652  1.00  0.00    -0.247 OA
HETATM    6  N   UNL     1     -40.168  57.820 -53.356  1.00  0.00    -0.333 N 
HETATM    7  C   UNL     1     -41.505  57.267 -53.464  1.00  0.00     0.142 C 
HETATM    8  H   UNL     1     -40.426  60.071 -51.131  1.00  0.00     0.167 HD
HETATM    9  H   UNL     1     -39.486  57.599 -54.073  1.00  0.00     0.165 HD
ENDROOT
BRANCH   7  10
HETATM   10  C   UNL     1     -41.327  55.831 -53.875  1.00  0.00     0.015 A 
HETATM   11  C   UNL     1     -41.716  55.205 -55.100  1.00  0.00     0.097 A 
HETATM   12  N   UNL     1     -41.426  53.898 -55.085  1.00  0.00    -0.167 NA
HETATM   13  N   UNL     1     -40.835  53.659 -53.895  1.00  0.00    -0.244 N 
HETATM   14  C   UNL     1     -40.745  54.809 -53.146  1.00  0.00     0.130 A 
BRANCH  11  15
HETATM   15  C   UNL     1     -42.357  55.794 -56.277  1.00  0.00    -0.005 A 
HETATM   16  C   UNL     1     -42.371  57.180 -56.481  1.00  0.00     0.014 A 
HETATM   17  C   UNL     1     -42.992  57.724 -57.610  1.00  0.00     0.001 A 
HETATM   18  C   UNL     1     -43.589  56.886 -58.550  1.00  0.00     0.000 A 
HETATM   19  C   UNL     1     -43.562  55.504 -58.368  1.00  0.00     0.001 A 
HETATM   20  C   UNL     1     -42.947  54.962 -57.238  1.00  0.00     0.014 A 
ENDBRANCH  11  15
BRANCH  13  21
HETATM   21  C   UNL     1     -40.404  52.346 -53.548  1.00  0.00     0.058 A 
HETATM   22  C   UNL     1     -40.509  51.316 -54.495  1.00  0.00     0.031 A 
HETATM   23  C   UNL     1     -40.103  50.019 -54.175  1.00  0.00     0.002 A 
HETATM   24  C   UNL     1     -39.590  49.740 -52.911  1.00  0.00     0.000 A 
HETATM   25  C   UNL     1     -39.483  50.757 -51.964  1.00  0.00     0.002 A 
HETATM   26  C   UNL     1     -39.886  52.059 -52.277  1.00  0.00     0.031 A 
ENDBRANCH  13  21
ENDBRANCH   7  10
BRANCH   1  27
HETATM   27  C   UNL     1     -43.750  57.126 -52.386  1.00  0.00     0.270 C 
HETATM   28  O   UNL     1     -44.328  57.233 -53.457  1.00  0.00    -0.265 OA
BRANCH  27  29
HETATM   29  O   UNL     1     -44.315  56.678 -51.235  1.00  0.00    -0.321 OA
BRANCH  29  30
HETATM   30  C   UNL     1     -43.595  55.656 -50.525  1.00  0.00     0.174 C 
HETATM   31  C   UNL     1     -43.787  54.290 -51.158  1.00  0.00     0.034 C 
ENDBRANCH  29  30
ENDBRANCH  27  29
ENDBRANCH   1  27
BRANCH   2  32
HETATM   32  C   UNL     1     -42.888  59.959 -52.563  1.00  0.00     0.439 C 
HETATM   33  F   UNL     1     -44.204  60.004 -52.262  1.00  0.00    -0.166 F 
HETATM   34  F   UNL     1     -42.389  61.206 -52.364  1.00  0.00    -0.166 F 
HETATM   35  F   UNL     1     -42.779  59.700 -53.883  1.00  0.00    -0.166 F 
ENDBRANCH   2  32
BRANCH   2  36
HETATM   36  O   UNL     1     -42.504  59.000 -50.313  1.00  0.00    -0.363 OA
HETATM   37  H   UNL     1     -43.293  59.568 -50.305  1.00  0.00     0.213 HD
ENDBRANCH   2  36
TORSDOF 8
ENDMDL
MODEL 2
REMARK VINA RESULT:      -8.4      1.994      5.590
REMARK  8 active torsions:
REMARK  status: ('A' for Active; 'I' for Inactive)
REMARK    1  A    between atoms: C_2  and  O_3 
REMARK    2  A    between atoms: O_3  and  C_4 
REMARK    3  A    between atoms: C_4  and  C_5 
REMARK    4  A    between atoms: C_6  and  C_8 
REMARK    5  A    between atoms: C_6  and  O_7 
REMARK    6  A    between atoms: C_16  and  C_17 
REMARK    7  A    between atoms: C_18  and  C_19 
REMARK    8  A    between atoms: N_26  and  C_27 
ROOT
HETATM    1  C   UNL     1     -42.287  58.438 -53.003  1.00  0.00     0.177 C 
HETATM    2  C   UNL     1     -42.523  58.963 -51.580  1.00  0.00     0.250 C 
HETATM    3  N   UNL     1     -43.695  58.316 -51.013  1.00  0.00    -0.303 N 
HETATM    4  C   UNL     1     -43.939  56.993 -51.145  1.00  0.00     0.319 C 
HETATM    5  O   UNL     1     -44.717  56.411 -50.404  1.00  0.00    -0.247 OA
HETATM    6  N   UNL     1     -43.323  56.365 -52.169  1.00  0.00    -0.333 N 
HETATM    7  C   UNL     1     -42.233  56.907 -52.959  1.00  0.00     0.142 C 
HETATM    8  H   UNL     1     -44.071  58.702 -50.153  1.00  0.00     0.167 HD
HETATM    9  H   UNL     1     -43.511  55.370 -52.211  1.00  0.00     0.165 HD
ENDROOT
BRANCH   7  10
HETATM   10  C   UNL     1     -42.329  56.245 -54.306  1.00  0.00     0.015 A 
HETATM   11  C   UNL     1     -41.815  54.973 -54.706  1.00  0.00     0.097 A 
HETATM   12  N   UNL     1     -42.063  54.739 -56.001  1.00  0.00    -0.167 NA
HETATM   13  N   UNL     1     -42.748  55.812 -56.451  1.00  0.00    -0.244 N 
HETATM   14  C   UNL     1     -42.940  56.733 -55.448  1.00  0.00     0.130 A 
BRANCH  11  15
HETATM   15  C   UNL     1     -41.093  53.976 -53.913  1.00  0.00    -0.005 A 
HETATM   16  C   UNL     1     -40.956  54.108 -52.525  1.00  0.00     0.014 A 
HETATM   17  C   UNL     1     -40.259  53.148 -51.787  1.00  0.00     0.001 A 
HETATM   18  C   UNL     1     -39.706  52.040 -52.427  1.00  0.00     0.000 A 
HETATM   19  C   UNL     1     -39.854  51.887 -53.804  1.00  0.00     0.001 A 
HETATM   20  C   UNL     1     -40.545  52.849 -54.543  1.00  0.00     0.014 A 
ENDBRANCH  11  15
BRANCH  13  21
HETATM   21  C   UNL     1     -43.165  55.891 -57.810  1.00  0.00     0.058 A 
HETATM   22  C   UNL     1     -43.819  54.794 -58.393  1.00  0.00     0.031 A 
HETATM   23  C   UNL     1     -44.229  54.844 -59.727  1.00  0.00     0.002 A 
HETATM   24  C   UNL     1     -43.990  55.986 -60.488  1.00  0.00     0.000 A 
HETATM   25  C   UNL     1     -43.342  57.080 -59.917  1.00  0.00     0.002 A 
HETATM   26  C   UNL     1     -42.930  57.038 -58.581  1.00  0.00     0.031 A 
ENDBRANCH  13  21
ENDBRANCH   7  10
BRANCH   1  27
HETATM   27  C   UNL     1     -41.008  58.985 -53.593  1.00  0.00     0.270 C 
HETATM   28  O   UNL     1     -39.931  58.409 -53.564  1.00  0.00    -0.265 OA
BRANCH  27  29
HETATM   29  O   UNL     1     -41.231  60.194 -54.170  1.00  0.00    -0.321 OA
BRANCH  29  30
HETATM   30  C   UNL     1     -42.355  60.278 -55.062  1.00  0.00     0.174 C 
HETATM   31  C   UNL     1     -41.939  60.103 -56.511  1.00  0.00     0.034 C 
ENDBRANCH  29  30
ENDBRANCH  27  29
ENDBRANCH   1  27
BRANCH   2  32
HETATM   32  C   UNL     1     -41.265  58.823 -50.642  1.00  0.00     0.439 C 
HETATM   33  F   UNL     1     -40.280  59.685 -50.972  1.00  0.00    -0.166 F 
HETATM   34  F   UNL     1     -41.603  59.076 -49.352  1.00  0.00    -0.166 F 
HETATM   35  F   UNL     1     -40.746  57.576 -50.673  1.00  0.00    -0.166 F 
ENDBRANCH   2  32
BRANCH   2  36
HETATM   36  O   UNL     1     -42.953  60.328 -51.650  1.00  0.00    -0.363 OA
HETATM   37  H   UNL     1     -42.806  60.695 -50.761  1.00  0.00     0.213 HD
ENDBRANCH   2  36
TORSDOF 8
ENDMDL
MODEL 3
REMARK VINA RESULT:      -7.9      1.917      5.132
REMARK  8 active torsions:
REMARK  status: ('A' for Active; 'I' for Inactive)
REMARK    1  A    between atoms: C_2  and  O_3 
REMARK    2  A    between atoms: O_3  and  C_4 
REMARK    3  A    between atoms: C_4  and  C_5 
REMARK    4  A    between atoms: C_6  and  C_8 
REMARK    5  A    between atoms: C_6  and  O_7 
REMARK    6  A    between atoms: C_16  and  C_17 
REMARK    7  A    between atoms: C_18  and  C_19 
REMARK    8  A    between atoms: N_26  and  C_27 
ROOT
HETATM    1  C   UNL     1     -42.365  57.954 -52.115  1.00  0.00     0.177 C 
HETATM    2  C   UNL     1     -41.602  58.788 -51.077  1.00  0.00     0.250 C 
HETATM    3  N   UNL     1     -40.181  58.757 -51.380  1.00  0.00    -0.303 N 
HETATM    4  C   UNL     1     -39.695  58.886 -52.634  1.00  0.00     0.319 C 
HETATM    5  O   UNL     1     -38.529  59.192 -52.838  1.00  0.00    -0.247 OA
HETATM    6  N   UNL     1     -40.546  58.603 -53.643  1.00  0.00    -0.333 N 
HETATM    7  C   UNL     1     -41.983  58.443 -53.515  1.00  0.00     0.142 C 
HETATM    8  H   UNL     1     -39.545  59.113 -50.673  1.00  0.00     0.167 HD
HETATM    9  H   UNL     1     -40.148  58.742 -54.565  1.00  0.00     0.165 HD
ENDROOT
BRANCH   7  10
HETATM   10  C   UNL     1     -42.397  57.521 -54.629  1.00  0.00     0.015 A 
HETATM   11  C   UNL     1     -42.434  56.092 -54.629  1.00  0.00     0.097 A 
HETATM   12  N   UNL     1     -42.822  55.621 -55.821  1.00  0.00    -0.167 NA
HETATM   13  N   UNL     1     -43.064  56.703 -56.591  1.00  0.00    -0.244 N 
HETATM   14  C   UNL     1     -42.833  57.867 -55.896  1.00  0.00     0.130 A 
BRANCH  11  15
HETATM   15  C   UNL     1     -42.109  55.158 -53.549  1.00  0.00    -0.005 A 
HETATM   16  C   UNL     1     -40.786  54.779 -53.287  1.00  0.00     0.014 A 
HETATM   17  C   UNL     1     -40.498  53.882 -52.255  1.00  0.00     0.001 A 
HETATM   18  C   UNL     1     -41.526  53.370 -51.466  1.00  0.00     0.000 A 
HETATM   19  C   UNL     1     -42.844  53.757 -51.704  1.00  0.00     0.001 A 
HETATM   20  C   UNL     1     -43.133  54.648 -52.738  1.00  0.00     0.014 A 
ENDBRANCH  11  15
BRANCH  13  21
HETATM   21  C   UNL     1     -43.490  56.554 -57.941  1.00  0.00     0.058 A 
HETATM   22  C   UNL     1     -43.859  57.693 -58.675  1.00  0.00     0.031 A 
HETATM   23  C   UNL     1     -44.289  57.572 -59.998  1.00  0.00     0.002 A 
HETATM   24  C   UNL     1     -44.355  56.317 -60.598  1.00  0.00     0.000 A 
HETATM   25  C   UNL     1     -43.991  55.181 -59.877  1.00  0.00     0.002 A 
HETATM   26  C   UNL     1     -43.557  55.295 -58.552  1.00  0.00     0.031 A 
ENDBRANCH  13  21
ENDBRANCH   7  10
BRANCH   1  27
HETATM   27  C   UNL     1     -43.860  58.054 -51.920  1.00  0.00     0.270 C 
HETATM   28  O   UNL     1     -44.468  57.577 -50.974  1.00  0.00    -0.265 OA
BRANCH  27  29
HETATM   29  O   UNL     1     -44.424  58.760 -52.934  1.00  0.00    -0.321 OA
BRANCH  29  30
HETATM   30  C   UNL     1     -45.483  59.662 -52.571  1.00  0.00     0.174 C 
HETATM   31  C   UNL     1     -45.487  60.905 -53.443  1.00  0.00     0.034 C 
ENDBRANCH  29  30
ENDBRANCH  27  29
ENDBRANCH   1  27
BRANCH   2  32
HETATM   32  C   UNL     1     -42.140  60.262 -50.939  1.00  0.00     0.439 C 
HETATM   33  F   UNL     1     -43.292  60.325 -50.238  1.00  0.00    -0.166 F 
HETATM   34  F   UNL     1     -41.234  61.040 -50.292  1.00  0.00    -0.166 F 
HETATM   35  F   UNL     1     -42.360  60.836 -52.141  1.00  0.00    -0.166 F 
ENDBRANCH   2  32
BRANCH   2  36
HETATM   36  O   UNL     1     -41.642  58.114 -49.813  1.00  0.00    -0.363 OA
HETATM   37  H   UNL     1     -40.922  57.462 -49.840  1.00  0.00     0.213 HD
ENDBRANCH   2  36
TORSDOF 8
ENDMDL
MODEL 4
REMARK VINA RESULT:      -7.8      1.970      3.118
REMARK  8 active torsions:
REMARK  status: ('A' for Active; 'I' for Inactive)
REMARK    1  A    between atoms: C_2  and  O_3 
REMARK    2  A    between atoms: O_3  and  C_4 
REMARK    3  A    between atoms: C_4  and  C_5 
REMARK    4  A    between atoms: C_6  and  C_8 
REMARK    5  A    between atoms: C_6  and  O_7 
REMARK    6  A    between atoms: C_16  and  C_17 
REMARK    7  A    between atoms: C_18  and  C_19 
REMARK    8  A    between atoms: N_26  and  C_27 
ROOT
HETATM    1  C   UNL     1     -43.143  58.153 -53.385  1.00  0.00     0.177 C 
HETATM    2  C   UNL     1     -44.216  59.250 -53.382  1.00  0.00     0.250 C 
HETATM    3  N   UNL     1     -44.983  59.182 -54.614  1.00  0.00    -0.303 N 
HETATM    4  C   UNL     1     -45.409  58.017 -55.150  1.00  0.00     0.319 C 
HETATM    5  O   UNL     1     -46.313  57.985 -55.972  1.00  0.00    -0.247 OA
HETATM    6  N   UNL     1     -44.747  56.902 -54.774  1.00  0.00    -0.333 N 
HETATM    7  C   UNL     1     -43.819  56.806 -53.663  1.00  0.00     0.142 C 
HETATM    8  H   UNL     1     -45.600  59.961 -54.823  1.00  0.00     0.167 HD
HETATM    9  H   UNL     1     -45.119  56.050 -55.177  1.00  0.00     0.165 HD
ENDROOT
BRANCH   7  10
HETATM   10  C   UNL     1     -42.867  55.695 -54.012  1.00  0.00     0.015 A 
HETATM   11  C   UNL     1     -42.307  55.377 -55.288  1.00  0.00     0.097 A 
HETATM   12  N   UNL     1     -41.529  54.290 -55.214  1.00  0.00    -0.167 NA
HETATM   13  N   UNL     1     -41.545  53.905 -53.920  1.00  0.00    -0.244 N 
HETATM   14  C   UNL     1     -42.332  54.742 -53.164  1.00  0.00     0.130 A 
BRANCH  11  15
HETATM   15  C   UNL     1     -42.485  56.057 -56.572  1.00  0.00    -0.005 A 
HETATM   16  C   UNL     1     -42.069  57.382 -56.759  1.00  0.00     0.014 A 
HETATM   17  C   UNL     1     -42.252  58.015 -57.991  1.00  0.00     0.001 A 
HETATM   18  C   UNL     1     -42.838  57.325 -59.051  1.00  0.00     0.000 A 
HETATM   19  C   UNL     1     -43.236  56.000 -58.883  1.00  0.00     0.001 A 
HETATM   20  C   UNL     1     -43.058  55.369 -57.651  1.00  0.00     0.014 A 
ENDBRANCH  11  15
BRANCH  13  21
HETATM   21  C   UNL     1     -40.818  52.757 -53.494  1.00  0.00     0.058 A 
HETATM   22  C   UNL     1     -40.637  51.688 -54.386  1.00  0.00     0.031 A 
HETATM   23  C   UNL     1     -39.936  50.548 -53.988  1.00  0.00     0.002 A 
HETATM   24  C   UNL     1     -39.411  50.465 -52.701  1.00  0.00     0.000 A 
HETATM   25  C   UNL     1     -39.585  51.522 -51.809  1.00  0.00     0.002 A 
HETATM   26  C   UNL     1     -40.285  52.668 -52.201  1.00  0.00     0.031 A 
ENDBRANCH  13  21
ENDBRANCH   7  10
BRANCH   1  27
HETATM   27  C   UNL     1     -42.398  58.098 -52.071  1.00  0.00     0.270 C 
HETATM   28  O   UNL     1     -42.619  57.289 -51.184  1.00  0.00    -0.265 OA
BRANCH  27  29
HETATM   29  O   UNL     1     -41.443  59.063 -52.027  1.00  0.00    -0.321 OA
BRANCH  29  30
HETATM   30  C   UNL     1     -41.097  59.560 -50.724  1.00  0.00     0.174 C 
HETATM   31  C   UNL     1     -39.594  59.606 -50.519  1.00  0.00     0.034 C 
ENDBRANCH  29  30
ENDBRANCH  27  29
ENDBRANCH   1  27
BRANCH   2  32
HETATM   32  C   UNL     1     -45.146  59.215 -52.110  1.00  0.00     0.439 C 
HETATM   33  F   UNL     1     -45.470  57.956 -51.746  1.00  0.00    -0.166 F 
HETATM   34  F   UNL     1     -44.524  59.790 -51.050  1.00  0.00    -0.166 F 
HETATM   35  F   UNL     1     -46.297  59.894 -52.304  1.00  0.00    -0.166 F 
ENDBRANCH   2  32
BRANCH   2  36
HETATM   36  O   UNL     1     -43.580  60.528 -53.508  1.00  0.00    -0.363 OA
HETATM   37  H   UNL     1     -43.092  60.661 -52.678  1.00  0.00     0.213 HD
ENDBRANCH   2  36
TORSDOF 8
ENDMDL
MODEL 5
REMARK VINA RESULT:      -7.7      3.128      6.845
REMARK  8 active torsions:
REMARK  status: ('A' for Active; 'I' for Inactive)
REMARK    1  A    between atoms: C_2  and  O_3 
REMARK    2  A    between atoms: O_3  and  C_4 
REMARK    3  A    between atoms: C_4  and  C_5 
REMARK    4  A    between atoms: C_6  and  C_8 
REMARK    5  A    between atoms: C_6  and  O_7 
REMARK    6  A    between atoms: C_16  and  C_17 
REMARK    7  A    between atoms: C_18  and  C_19 
REMARK    8  A    between atoms: N_26  and  C_27 
ROOT
HETATM    1  C   UNL     1     -42.180  56.088 -52.256  1.00  0.00     0.177 C 
HETATM    2  C   UNL     1     -42.931  55.376 -51.122  1.00  0.00     0.250 C 
HETATM    3  N   UNL     1     -43.842  56.311 -50.483  1.00  0.00    -0.303 N 
HETATM    4  C   UNL     1     -44.613  57.176 -51.177  1.00  0.00     0.319 C 
HETATM    5  O   UNL     1     -45.593  57.704 -50.672  1.00  0.00    -0.247 OA
HETATM    6  N   UNL     1     -44.211  57.469 -52.432  1.00  0.00    -0.333 N 
HETATM    7  C   UNL     1     -43.204  56.746 -53.186  1.00  0.00     0.142 C 
HETATM    8  H   UNL     1     -44.264  56.024 -49.605  1.00  0.00     0.167 HD
HETATM    9  H   UNL     1     -44.835  58.098 -52.925  1.00  0.00     0.165 HD
ENDROOT
BRANCH   7  10
HETATM   10  C   UNL     1     -42.616  57.740 -54.151  1.00  0.00     0.015 A 
HETATM   11  C   UNL     1     -41.702  58.804 -53.879  1.00  0.00     0.097 A 
HETATM   12  N   UNL     1     -41.435  59.504 -54.990  1.00  0.00    -0.167 NA
HETATM   13  N   UNL     1     -42.130  58.909 -55.983  1.00  0.00    -0.244 N 
HETATM   14  C   UNL     1     -42.842  57.831 -55.513  1.00  0.00     0.130 A 
BRANCH  11  15
HETATM   15  C   UNL     1     -41.078  59.187 -52.611  1.00  0.00    -0.005 A 
HETATM   16  C   UNL     1     -41.812  59.825 -51.602  1.00  0.00     0.014 A 
HETATM   17  C   UNL     1     -41.198  60.187 -50.400  1.00  0.00     0.001 A 
HETATM   18  C   UNL     1     -39.850  59.902 -50.191  1.00  0.00     0.000 A 
HETATM   19  C   UNL     1     -39.115  59.249 -51.179  1.00  0.00     0.001 A 
HETATM   20  C   UNL     1     -39.727  58.892 -52.382  1.00  0.00     0.014 A 
ENDBRANCH  11  15
BRANCH  13  21
HETATM   21  C   UNL     1     -42.076  59.417 -57.312  1.00  0.00     0.058 A 
HETATM   22  C   UNL     1     -41.786  60.776 -57.518  1.00  0.00     0.031 A 
HETATM   23  C   UNL     1     -41.737  61.299 -58.811  1.00  0.00     0.002 A 
HETATM   24  C   UNL     1     -41.977  60.475 -59.907  1.00  0.00     0.000 A 
HETATM   25  C   UNL     1     -42.265  59.124 -59.713  1.00  0.00     0.002 A 
HETATM   26  C   UNL     1     -42.314  58.592 -58.420  1.00  0.00     0.031 A 
ENDBRANCH  13  21
ENDBRANCH   7  10
BRANCH   1  27
HETATM   27  C   UNL     1     -41.311  55.129 -53.036  1.00  0.00     0.270 C 
HETATM   28  O   UNL     1     -41.433  54.900 -54.230  1.00  0.00    -0.265 OA
BRANCH  27  29
HETATM   29  O   UNL     1     -40.371  54.575 -52.227  1.00  0.00    -0.321 OA
BRANCH  29  30
HETATM   30  C   UNL     1     -39.974  53.229 -52.539  1.00  0.00     0.174 C 
HETATM   31  C   UNL     1     -39.741  52.406 -51.286  1.00  0.00     0.034 C 
ENDBRANCH  29  30
ENDBRANCH  27  29
ENDBRANCH   1  27
BRANCH   2  32
HETATM   32  C   UNL     1     -43.669  54.064 -51.586  1.00  0.00     0.439 C 
HETATM   33  F   UNL     1     -44.058  54.122 -52.878  1.00  0.00    -0.166 F 
HETATM   34  F   UNL     1     -42.850  52.989 -51.463  1.00  0.00    -0.166 F 
HETATM   35  F   UNL     1     -44.766  53.808 -50.840  1.00  0.00    -0.166 F 
ENDBRANCH   2  32
BRANCH   2  36
HETATM   36  O   UNL     1     -42.015  55.092 -50.059  1.00  0.00    -0.363 OA
HETATM   37  H   UNL     1     -42.525  54.594 -49.398  1.00  0.00     0.213 HD
ENDBRANCH   2  36
TORSDOF 8
ENDMDL
MODEL 6
REMARK VINA RESULT:      -7.2      3.820      7.461
REMARK  8 active torsions:
REMARK  status: ('A' for Active; 'I' for Inactive)
REMARK    1  A    between atoms: C_2  and  O_3 
REMARK    2  A    between atoms: O_3  and  C_4 
REMARK    3  A    between atoms: C_4  and  C_5 
REMARK    4  A    between atoms: C_6  and  C_8 
REMARK    5  A    between atoms: C_6  and  O_7 
REMARK    6  A    between atoms: C_16  and  C_17 
REMARK    7  A    between atoms: C_18  and  C_19 
REMARK    8  A    between atoms: N_26  and  C_27 
ROOT
HETATM    1  C   UNL     1     -44.054  57.980 -55.886  1.00  0.00     0.177 C 
HETATM    2  C   UNL     1     -44.164  56.928 -54.773  1.00  0.00     0.250 C 
HETATM    3  N   UNL     1     -43.603  55.671 -55.238  1.00  0.00    -0.303 N 
HETATM    4  C   UNL     1     -42.448  55.595 -55.935  1.00  0.00     0.319 C 
HETATM    5  O   UNL     1     -41.824  54.548 -56.025  1.00  0.00    -0.247 OA
HETATM    6  N   UNL     1     -42.053  56.719 -56.572  1.00  0.00    -0.333 N 
HETATM    7  C   UNL     1     -42.598  58.046 -56.357  1.00  0.00     0.142 C 
HETATM    8  H   UNL     1     -43.776  54.845 -54.672  1.00  0.00     0.167 HD
HETATM    9  H   UNL     1     -41.168  56.624 -57.057  1.00  0.00     0.165 HD
ENDROOT
BRANCH   7  10
HETATM   10  C   UNL     1     -42.398  58.790 -57.649  1.00  0.00     0.015 A 
HETATM   11  C   UNL     1     -42.879  58.450 -58.951  1.00  0.00     0.097 A 
HETATM   12  N   UNL     1     -42.463  59.337 -59.864  1.00  0.00    -0.167 NA
HETATM   13  N   UNL     1     -41.746  60.261 -59.190  1.00  0.00    -0.244 N 
HETATM   14  C   UNL     1     -41.700  59.969 -57.847  1.00  0.00     0.130 A 
BRANCH  11  15
HETATM   15  C   UNL     1     -43.709  57.317 -59.364  1.00  0.00    -0.005 A 
HETATM   16  C   UNL     1     -43.151  56.053 -59.598  1.00  0.00     0.014 A 
HETATM   17  C   UNL     1     -43.960  54.984 -59.996  1.00  0.00     0.001 A 
HETATM   18  C   UNL     1     -45.333  55.166 -60.148  1.00  0.00     0.000 A 
HETATM   19  C   UNL     1     -45.901  56.414 -59.898  1.00  0.00     0.001 A 
HETATM   20  C   UNL     1     -45.094  57.483 -59.506  1.00  0.00     0.014 A 
ENDBRANCH  11  15
BRANCH  13  21
HETATM   21  C   UNL     1     -41.143  61.354 -59.874  1.00  0.00     0.058 A 
HETATM   22  C   UNL     1     -40.293  62.222 -59.168  1.00  0.00     0.031 A 
HETATM   23  C   UNL     1     -39.698  63.307 -59.815  1.00  0.00     0.002 A 
HETATM   24  C   UNL     1     -39.944  63.535 -61.166  1.00  0.00     0.000 A 
HETATM   25  C   UNL     1     -40.786  62.679 -61.874  1.00  0.00     0.002 A 
HETATM   26  C   UNL     1     -41.385  61.589 -61.234  1.00  0.00     0.031 A 
ENDBRANCH  13  21
ENDBRANCH   7  10
BRANCH   1  27
HETATM   27  C   UNL     1     -44.509  59.341 -55.413  1.00  0.00     0.270 C 
HETATM   28  O   UNL     1     -43.776  60.181 -54.914  1.00  0.00    -0.265 OA
BRANCH  27  29
HETATM   29  O   UNL     1     -45.840  59.500 -55.635  1.00  0.00    -0.321 OA
BRANCH  29  30
HETATM   30  C   UNL     1     -46.254  59.573 -57.009  1.00  0.00     0.174 C 
HETATM   31  C   UNL     1     -45.658  60.778 -57.713  1.00  0.00     0.034 C 
ENDBRANCH  29  30
ENDBRANCH  27  29
ENDBRANCH   1  27
BRANCH   2  32
HETATM   32  C   UNL     1     -43.522  57.388 -53.410  1.00  0.00     0.439 C 
HETATM   33  F   UNL     1     -44.329  58.218 -52.716  1.00  0.00    -0.166 F 
HETATM   34  F   UNL     1     -43.273  56.316 -52.616  1.00  0.00    -0.166 F 
HETATM   35  F   UNL     1     -42.343  58.021 -53.592  1.00  0.00    -0.166 F 
ENDBRANCH   2  32
BRANCH   2  36
HETATM   36  O   UNL     1     -45.541  56.580 -54.591  1.00  0.00    -0.363 OA
HETATM   37  H   UNL     1     -46.012  57.422 -54.470  1.00  0.00     0.213 HD
ENDBRANCH   2  36
TORSDOF 8
ENDMDL
MODEL 7
REMARK VINA RESULT:      -6.7      3.892      7.860
REMARK  8 active torsions:
REMARK  status: ('A' for Active; 'I' for Inactive)
REMARK    1  A    between atoms: C_2  and  O_3 
REMARK    2  A    between atoms: O_3  and  C_4 
REMARK    3  A    between atoms: C_4  and  C_5 
REMARK    4  A    between atoms: C_6  and  C_8 
REMARK    5  A    between atoms: C_6  and  O_7 
REMARK    6  A    between atoms: C_16  and  C_17 
REMARK    7  A    between atoms: C_18  and  C_19 
REMARK    8  A    between atoms: N_26  and  C_27 
ROOT
HETATM    1  C   UNL     1     -42.173  56.967 -56.270  1.00  0.00     0.177 C 
HETATM    2  C   UNL     1     -42.045  55.844 -55.232  1.00  0.00     0.250 C 
HETATM    3  N   UNL     1     -41.118  56.251 -54.189  1.00  0.00    -0.303 N 
HETATM    4  C   UNL     1     -41.123  57.488 -53.645  1.00  0.00     0.319 C 
HETATM    5  O   UNL     1     -40.589  57.713 -52.568  1.00  0.00    -0.247 OA
HETATM    6  N   UNL     1     -41.697  58.467 -54.376  1.00  0.00    -0.333 N 
HETATM    7  C   UNL     1     -42.533  58.268 -55.545  1.00  0.00     0.142 C 
HETATM    8  H   UNL     1     -40.801  55.537 -53.541  1.00  0.00     0.167 HD
HETATM    9  H   UNL     1     -41.705  59.370 -53.916  1.00  0.00     0.165 HD
ENDROOT
BRANCH   7  10
HETATM   10  C   UNL     1     -42.377  59.508 -56.382  1.00  0.00     0.015 A 
HETATM   11  C   UNL     1     -42.957  60.797 -56.171  1.00  0.00     0.097 A 
HETATM   12  N   UNL     1     -42.618  61.642 -57.153  1.00  0.00    -0.167 NA
HETATM   13  N   UNL     1     -41.813  60.948 -57.985  1.00  0.00    -0.244 N 
HETATM   14  C   UNL     1     -41.634  59.659 -57.539  1.00  0.00     0.130 A 
BRANCH  11  15
HETATM   15  C   UNL     1     -43.821  61.257 -55.083  1.00  0.00    -0.005 A 
HETATM   16  C   UNL     1     -45.207  61.048 -55.115  1.00  0.00     0.014 A 
HETATM   17  C   UNL     1     -46.016  61.498 -54.068  1.00  0.00     0.001 A 
HETATM   18  C   UNL     1     -45.446  62.146 -52.974  1.00  0.00     0.000 A 
HETATM   19  C   UNL     1     -44.067  62.340 -52.921  1.00  0.00     0.001 A 
HETATM   20  C   UNL     1     -43.259  61.896 -53.969  1.00  0.00     0.014 A 
ENDBRANCH  11  15
BRANCH  13  21
HETATM   21  C   UNL     1     -41.278  61.557 -59.155  1.00  0.00     0.058 A 
HETATM   22  C   UNL     1     -41.816  61.227 -60.409  1.00  0.00     0.031 A 
HETATM   23  C   UNL     1     -41.302  61.804 -61.572  1.00  0.00     0.002 A 
HETATM   24  C   UNL     1     -40.249  62.712 -61.494  1.00  0.00     0.000 A 
HETATM   25  C   UNL     1     -39.708  63.045 -60.253  1.00  0.00     0.002 A 
HETATM   26  C   UNL     1     -40.219  62.473 -59.084  1.00  0.00     0.031 A 
ENDBRANCH  13  21
ENDBRANCH   7  10
BRANCH   1  27
HETATM   27  C   UNL     1     -43.221  56.647 -57.311  1.00  0.00     0.270 C 
HETATM   28  O   UNL     1     -44.297  57.217 -57.408  1.00  0.00    -0.265 OA
BRANCH  27  29
HETATM   29  O   UNL     1     -42.790  55.650 -58.127  1.00  0.00    -0.321 OA
BRANCH  29  30
HETATM   30  C   UNL     1     -42.959  55.862 -59.538  1.00  0.00     0.174 C 
HETATM   31  C   UNL     1     -42.076  56.987 -60.048  1.00  0.00     0.034 C 
ENDBRANCH  29  30
ENDBRANCH  27  29
ENDBRANCH   1  27
BRANCH   2  32
HETATM   32  C   UNL     1     -43.428  55.378 -54.637  1.00  0.00     0.439 C 
HETATM   33  F   UNL     1     -43.967  54.354 -55.333  1.00  0.00    -0.166 F 
HETATM   34  F   UNL     1     -43.276  54.956 -53.356  1.00  0.00    -0.166 F 
HETATM   35  F   UNL     1     -44.333  56.380 -54.615  1.00  0.00    -0.166 F 
ENDBRANCH   2  32
BRANCH   2  36
HETATM   36  O   UNL     1     -41.350  54.739 -55.821  1.00  0.00    -0.363 OA
HETATM   37  H   UNL     1     -41.032  55.057 -56.683  1.00  0.00     0.213 HD
ENDBRANCH   2  36
TORSDOF 8
ENDMDL
MODEL 8
REMARK VINA RESULT:      -6.7      3.123      6.580
REMARK  8 active torsions:
REMARK  status: ('A' for Active; 'I' for Inactive)
REMARK    1  A    between atoms: C_2  and  O_3 
REMARK    2  A    between atoms: O_3  and  C_4 
REMARK    3  A    between atoms: C_4  and  C_5 
REMARK    4  A    between atoms: C_6  and  C_8 
REMARK    5  A    between atoms: C_6  and  O_7 
REMARK    6  A    between atoms: C_16  and  C_17 
REMARK    7  A    between atoms: C_18  and  C_19 
REMARK    8  A    between atoms: N_26  and  C_27 
ROOT
HETATM    1  C   UNL     1     -42.364  56.437 -52.355  1.00  0.00     0.177 C 
HETATM    2  C   UNL     1     -42.951  55.807 -51.084  1.00  0.00     0.250 C 
HETATM    3  N   UNL     1     -43.984  56.675 -50.546  1.00  0.00    -0.303 N 
HETATM    4  C   UNL     1     -44.910  57.283 -51.320  1.00  0.00     0.319 C 
HETATM    5  O   UNL     1     -45.948  57.722 -50.848  1.00  0.00    -0.247 OA
HETATM    6  N   UNL     1     -44.601  57.429 -52.626  1.00  0.00    -0.333 N 
HETATM    7  C   UNL     1     -43.511  56.765 -53.316  1.00  0.00     0.142 C 
HETATM    8  H   UNL     1     -44.325  56.470 -49.612  1.00  0.00     0.167 HD
HETATM    9  H   UNL     1     -45.336  57.863 -53.174  1.00  0.00     0.165 HD
ENDROOT
BRANCH   7  10
HETATM   10  C   UNL     1     -43.128  57.671 -54.454  1.00  0.00     0.015 A 
HETATM   11  C   UNL     1     -42.867  59.076 -54.419  1.00  0.00     0.097 A 
HETATM   12  N   UNL     1     -42.592  59.544 -55.643  1.00  0.00    -0.167 NA
HETATM   13  N   UNL     1     -42.640  58.480 -56.471  1.00  0.00    -0.244 N 
HETATM   14  C   UNL     1     -42.946  57.329 -55.783  1.00  0.00     0.130 A 
BRANCH  11  15
HETATM   15  C   UNL     1     -42.876  59.990 -53.275  1.00  0.00    -0.005 A 
HETATM   16  C   UNL     1     -41.972  59.839 -52.215  1.00  0.00     0.014 A 
HETATM   17  C   UNL     1     -42.000  60.720 -51.130  1.00  0.00     0.001 A 
HETATM   18  C   UNL     1     -42.918  61.767 -51.103  1.00  0.00     0.000 A 
HETATM   19  C   UNL     1     -43.807  61.940 -52.163  1.00  0.00     0.001 A 
HETATM   20  C   UNL     1     -43.784  61.057 -53.244  1.00  0.00     0.014 A 
ENDBRANCH  11  15
BRANCH  13  21
HETATM   21  C   UNL     1     -42.402  58.633 -57.867  1.00  0.00     0.058 A 
HETATM   22  C   UNL     1     -42.327  57.491 -58.681  1.00  0.00     0.031 A 
HETATM   23  C   UNL     1     -42.085  57.615 -60.050  1.00  0.00     0.002 A 
HETATM   24  C   UNL     1     -41.917  58.875 -60.618  1.00  0.00     0.000 A 
HETATM   25  C   UNL     1     -41.990  60.014 -59.817  1.00  0.00     0.002 A 
HETATM   26  C   UNL     1     -42.233  59.898 -58.445  1.00  0.00     0.031 A 
ENDBRANCH  13  21
ENDBRANCH   7  10
BRANCH   1  27
HETATM   27  C   UNL     1     -41.372  55.516 -53.027  1.00  0.00     0.270 C 
HETATM   28  O   UNL     1     -40.249  55.283 -52.605  1.00  0.00    -0.265 OA
BRANCH  27  29
HETATM   29  O   UNL     1     -41.911  54.976 -54.151  1.00  0.00    -0.321 OA
BRANCH  29  30
HETATM   30  C   UNL     1     -41.105  54.009 -54.844  1.00  0.00     0.174 C 
HETATM   31  C   UNL     1     -41.321  52.607 -54.306  1.00  0.00     0.034 C 
ENDBRANCH  29  30
ENDBRANCH  27  29
ENDBRANCH   1  27
BRANCH   2  32
HETATM   32  C   UNL     1     -43.474  54.336 -51.298  1.00  0.00     0.439 C 
HETATM   33  F   UNL     1     -42.501  53.416 -51.131  1.00  0.00    -0.166 F 
HETATM   34  F   UNL     1     -44.456  54.047 -50.406  1.00  0.00    -0.166 F 
HETATM   35  F   UNL     1     -43.999  54.158 -52.529  1.00  0.00    -0.166 F 
ENDBRANCH   2  32
BRANCH   2  36
HETATM   36  O   UNL     1     -41.968  55.848 -50.044  1.00  0.00    -0.363 OA
HETATM   37  H   UNL     1     -42.301  56.489 -49.392  1.00  0.00     0.213 HD
ENDBRANCH   2  36
TORSDOF 8
ENDMDL
MODEL 9
REMARK VINA RESULT:      -6.6      3.474      7.978
REMARK  8 active torsions:
REMARK  status: ('A' for Active; 'I' for Inactive)
REMARK    1  A    between atoms: C_2  and  O_3 
REMARK    2  A    between atoms: O_3  and  C_4 
REMARK    3  A    between atoms: C_4  and  C_5 
REMARK    4  A    between atoms: C_6  and  C_8 
REMARK    5  A    between atoms: C_6  and  O_7 
REMARK    6  A    between atoms: C_16  and  C_17 
REMARK    7  A    between atoms: C_18  and  C_19 
REMARK    8  A    between atoms: N_26  and  C_27 
ROOT
HETATM    1  C   UNL     1     -42.476  56.817 -54.691  1.00  0.00     0.177 C 
HETATM    2  C   UNL     1     -41.907  55.393 -54.621  1.00  0.00     0.250 C 
HETATM    3  N   UNL     1     -41.464  55.114 -53.266  1.00  0.00    -0.303 N 
HETATM    4  C   UNL     1     -42.181  55.459 -52.174  1.00  0.00     0.319 C 
HETATM    5  O   UNL     1     -41.979  54.938 -51.087  1.00  0.00    -0.247 OA
HETATM    6  N   UNL     1     -43.087  56.447 -52.334  1.00  0.00    -0.333 N 
HETATM    7  C   UNL     1     -43.546  56.972 -53.606  1.00  0.00     0.142 C 
HETATM    8  H   UNL     1     -40.903  54.280 -53.121  1.00  0.00     0.167 HD
HETATM    9  H   UNL     1     -43.621  56.652 -51.497  1.00  0.00     0.165 HD
ENDROOT
BRANCH   7  10
HETATM   10  C   UNL     1     -43.961  58.394 -53.342  1.00  0.00     0.015 A 
HETATM   11  C   UNL     1     -43.230  59.418 -52.665  1.00  0.00     0.097 A 
HETATM   12  N   UNL     1     -43.944  60.549 -52.590  1.00  0.00    -0.167 NA
HETATM   13  N   UNL     1     -45.109  60.299 -53.224  1.00  0.00    -0.244 N 
HETATM   14  C   UNL     1     -45.146  59.011 -53.704  1.00  0.00     0.130 A 
BRANCH  11  15
HETATM   15  C   UNL     1     -41.889  59.366 -52.080  1.00  0.00    -0.005 A 
HETATM   16  C   UNL     1     -40.758  59.121 -52.871  1.00  0.00     0.014 A 
HETATM   17  C   UNL     1     -39.487  59.070 -52.293  1.00  0.00     0.001 A 
HETATM   18  C   UNL     1     -39.333  59.279 -50.924  1.00  0.00     0.000 A 
HETATM   19  C   UNL     1     -40.448  59.545 -50.131  1.00  0.00     0.001 A 
HETATM   20  C   UNL     1     -41.718  59.590 -50.707  1.00  0.00     0.014 A 
ENDBRANCH  11  15
BRANCH  13  21
HETATM   21  C   UNL     1     -46.115  61.302 -53.319  1.00  0.00     0.058 A 
HETATM   22  C   UNL     1     -46.078  62.213 -54.387  1.00  0.00     0.031 A 
HETATM   23  C   UNL     1     -47.047  63.212 -54.497  1.00  0.00     0.002 A 
HETATM   24  C   UNL     1     -48.059  63.310 -53.545  1.00  0.00     0.000 A 
HETATM   25  C   UNL     1     -48.104  62.409 -52.482  1.00  0.00     0.002 A 
HETATM   26  C   UNL     1     -47.138  61.405 -52.366  1.00  0.00     0.031 A 
ENDBRANCH  13  21
ENDBRANCH   7  10
BRANCH   1  27
HETATM   27  C   UNL     1     -43.066  57.116 -56.049  1.00  0.00     0.270 C 
HETATM   28  O   UNL     1     -44.263  57.169 -56.287  1.00  0.00    -0.265 OA
BRANCH  27  29
HETATM   29  O   UNL     1     -42.079  57.332 -56.958  1.00  0.00    -0.321 OA
BRANCH  29  30
HETATM   30  C   UNL     1     -42.395  58.220 -58.043  1.00  0.00     0.174 C 
HETATM   31  C   UNL     1     -41.855  59.618 -57.802  1.00  0.00     0.034 C 
ENDBRANCH  29  30
ENDBRANCH  27  29
ENDBRANCH   1  27
BRANCH   2  32
HETATM   32  C   UNL     1     -42.904  54.294 -55.151  1.00  0.00     0.439 C 
HETATM   33  F   UNL     1     -44.140  54.426 -54.626  1.00  0.00    -0.166 F 
HETATM   34  F   UNL     1     -43.030  54.377 -56.500  1.00  0.00    -0.166 F 
HETATM   35  F   UNL     1     -42.474  53.044 -54.874  1.00  0.00    -0.166 F 
ENDBRANCH   2  32
BRANCH   2  36
HETATM   36  O   UNL     1     -40.671  55.346 -55.344  1.00  0.00    -0.363 OA
HETATM   37  H   UNL     1     -40.465  56.269 -55.571  1.00  0.00     0.213 HD
ENDBRANCH   2  36
TORSDOF 8
ENDMDL
MODEL 10
REMARK VINA RESULT:      -6.6      3.887      7.411
REMARK  8 active torsions:
REMARK  status: ('A' for Active; 'I' for Inactive)
REMARK    1  A    between atoms: C_2  and  O_3 
REMARK    2  A    between atoms: O_3  and  C_4 
REMARK    3  A    between atoms: C_4  and  C_5 
REMARK    4  A    between atoms: C_6  and  C_8 
REMARK    5  A    between atoms: C_6  and  O_7 
REMARK    6  A    between atoms: C_16  and  C_17 
REMARK    7  A    between atoms: C_18  and  C_19 
REMARK    8  A    between atoms: N_26  and  C_27 
ROOT
HETATM    1  C   UNL     1     -43.283  58.268 -55.358  1.00  0.00     0.177 C 
HETATM    2  C   UNL     1     -43.414  57.027 -54.463  1.00  0.00     0.250 C 
HETATM    3  N   UNL     1     -43.726  55.869 -55.284  1.00  0.00    -0.303 N 
HETATM    4  C   UNL     1     -43.116  55.619 -56.463  1.00  0.00     0.319 C 
HETATM    5  O   UNL     1     -43.134  54.506 -56.968  1.00  0.00    -0.247 OA
HETATM    6  N   UNL     1     -42.538  56.673 -57.079  1.00  0.00    -0.333 N 
HETATM    7  C   UNL     1     -42.278  57.966 -56.474  1.00  0.00     0.142 C 
HETATM    8  H   UNL     1     -44.020  55.024 -54.805  1.00  0.00     0.167 HD
HETATM    9  H   UNL     1     -42.067  56.433 -57.944  1.00  0.00     0.165 HD
ENDROOT
BRANCH   7  10
HETATM   10  C   UNL     1     -42.287  58.960 -57.602  1.00  0.00     0.015 A 
HETATM   11  C   UNL     1     -43.268  59.128 -58.627  1.00  0.00     0.097 A 
HETATM   12  N   UNL     1     -42.909  60.096 -59.482  1.00  0.00    -0.167 NA
HETATM   13  N   UNL     1     -41.735  60.581 -59.027  1.00  0.00    -0.244 N 
HETATM   14  C   UNL     1     -41.338  59.928 -57.884  1.00  0.00     0.130 A 
BRANCH  11  15
HETATM   15  C   UNL     1     -44.525  58.406 -58.833  1.00  0.00    -0.005 A 
HETATM   16  C   UNL     1     -45.657  58.677 -58.054  1.00  0.00     0.014 A 
HETATM   17  C   UNL     1     -46.846  57.973 -58.263  1.00  0.00     0.001 A 
HETATM   18  C   UNL     1     -46.918  57.004 -59.262  1.00  0.00     0.000 A 
HETATM   19  C   UNL     1     -45.804  56.741 -60.057  1.00  0.00     0.001 A 
HETATM   20  C   UNL     1     -44.615  57.440 -59.845  1.00  0.00     0.014 A 
ENDBRANCH  11  15
BRANCH  13  21
HETATM   21  C   UNL     1     -41.063  61.628 -59.720  1.00  0.00     0.058 A 
HETATM   22  C   UNL     1     -40.158  62.444 -59.023  1.00  0.00     0.031 A 
HETATM   23  C   UNL     1     -39.495  63.483 -59.678  1.00  0.00     0.002 A 
HETATM   24  C   UNL     1     -39.729  63.717 -61.031  1.00  0.00     0.000 A 
HETATM   25  C   UNL     1     -40.626  62.911 -61.732  1.00  0.00     0.002 A 
HETATM   26  C   UNL     1     -41.292  61.868 -61.082  1.00  0.00     0.031 A 
ENDBRANCH  13  21
ENDBRANCH   7  10
BRANCH   1  27
HETATM   27  C   UNL     1     -42.836  59.478 -54.570  1.00  0.00     0.270 C 
HETATM   28  O   UNL     1     -41.693  59.910 -54.556  1.00  0.00    -0.265 OA
BRANCH  27  29
HETATM   29  O   UNL     1     -43.884  60.021 -53.897  1.00  0.00    -0.321 OA
BRANCH  29  30
HETATM   30  C   UNL     1     -43.580  60.646 -52.639  1.00  0.00     0.174 C 
HETATM   31  C   UNL     1     -44.279  59.954 -51.483  1.00  0.00     0.034 C 
ENDBRANCH  29  30
ENDBRANCH  27  29
ENDBRANCH   1  27
BRANCH   2  32
HETATM   32  C   UNL     1     -42.155  56.776 -53.551  1.00  0.00     0.439 C 
HETATM   33  F   UNL     1     -40.995  57.007 -54.202  1.00  0.00    -0.166 F 
HETATM   34  F   UNL     1     -42.178  57.599 -52.471  1.00  0.00    -0.166 F 
HETATM   35  F   UNL     1     -42.115  55.512 -53.078  1.00  0.00    -0.166 F 
ENDBRANCH   2  32
BRANCH   2  36
HETATM   36  O   UNL     1     -44.600  57.146 -53.668  1.00  0.00    -0.363 OA
HETATM   37  H   UNL     1     -45.342  57.039 -54.287  1.00  0.00     0.213 HD
ENDBRANCH   2  36
TORSDOF 8
ENDMDL
