MODEL 1
REMARK VINA RESULT:      -7.6      0.000      0.000
REMARK  5 active torsions:
REMARK  status: ('A' for Active; 'I' for Inactive)
REMARK    1  A    between atoms: C_3  and  C_4 
REMARK    2  A    between atoms: C_4  and  C_5 
REMARK    3  A    between atoms: C_5  and  N_6 
REMARK       I    between atoms: N_6  and  C_7 
REMARK       I    between atoms: C_7  and  N_8 
REMARK    4  A    between atoms: N_8  and  C_9 
REMARK    5  A    between atoms: N_11  and  C_12 
ROOT
HETATM    1  C   UNL     1     -42.359  56.291 -55.264  1.00  0.00     0.159 A 
HETATM    2  N   UNL     1     -41.388  55.408 -55.035  1.00  0.00    -0.149 NA
HETATM    3  N   UNL     1     -41.830  54.602 -54.046  1.00  0.00    -0.241 N 
HETATM    4  C   UNL     1     -43.083  55.009 -53.624  1.00  0.00     0.129 A 
HETATM    5  C   UNL     1     -43.455  56.090 -54.393  1.00  0.00     0.003 A 
HETATM    6  C   UNL     1     -44.720  56.858 -54.312  1.00  0.00     0.054 C 
ENDROOT
BRANCH   1   7
HETATM    7  N   UNL     1     -42.306  57.275 -56.226  1.00  0.00    -0.291 N 
HETATM    8  C   UNL     1     -42.530  57.182 -57.566  1.00  0.00     0.321 C 
HETATM    9  N   UNL     1     -42.809  55.953 -58.069  1.00  0.00    -0.343 N 
HETATM   10  O   UNL     1     -42.469  58.197 -58.257  1.00  0.00    -0.247 OA
HETATM   11  H   UNL     1     -42.812  55.181 -57.404  1.00  0.00     0.164 HD
HETATM   12  H   UNL     1     -42.094  58.214 -55.924  1.00  0.00     0.172 HD
BRANCH   9  13
HETATM   13  C   UNL     1     -43.086  55.708 -59.468  1.00  0.00     0.128 C 
BRANCH  13  14
HETATM   14  C   UNL     1     -44.237  54.720 -59.674  1.00  0.00     0.046 C 
BRANCH  14  15
HETATM   15  C   UNL     1     -45.278  55.271 -60.612  1.00  0.00    -0.029 C 
HETATM   16  C   UNL     1     -46.357  55.963 -60.218  1.00  0.00    -0.035 C 
HETATM   17  C   UNL     1     -47.391  56.500 -61.154  1.00  0.00     0.036 C 
ENDBRANCH  14  15
ENDBRANCH  13  14
ENDBRANCH   9  13
ENDBRANCH   1   7
BRANCH   3  18
HETATM   18  C   UNL     1     -41.077  53.482 -53.568  1.00  0.00     0.079 A 
HETATM   19  C   UNL     1     -40.539  53.404 -52.266  1.00  0.00     0.062 A 
HETATM   20 CL   UNL     1     -40.743  54.578 -51.010  1.00  0.00    -0.082 Cl
HETATM   21  C   UNL     1     -39.790  52.276 -51.886  1.00  0.00     0.026 A 
HETATM   22  C   UNL     1     -39.569  51.224 -52.771  1.00  0.00     0.002 A 
HETATM   23  C   UNL     1     -40.097  51.287 -54.052  1.00  0.00     0.002 A 
HETATM   24  C   UNL     1     -40.843  52.401 -54.448  1.00  0.00     0.033 A 
ENDBRANCH   3  18
TORSDOF 5
ENDMDL
MODEL 2
REMARK VINA RESULT:      -7.4      1.759      2.256
REMARK  5 active torsions:
REMARK  status: ('A' for Active; 'I' for Inactive)
REMARK    1  A    between atoms: C_3  and  C_4 
REMARK    2  A    between atoms: C_4  and  C_5 
REMARK    3  A    between atoms: C_5  and  N_6 
REMARK       I    between atoms: N_6  and  C_7 
REMARK       I    between atoms: C_7  and  N_8 
REMARK    4  A    between atoms: N_8  and  C_9 
REMARK    5  A    between atoms: N_11  and  C_12 
ROOT
HETATM    1  C   UNL     1     -41.734  56.902 -53.394  1.00  0.00     0.159 A 
HETATM    2  N   UNL     1     -40.892  55.891 -53.603  1.00  0.00    -0.149 NA
HETATM    3  N   UNL     1     -41.425  54.815 -52.983  1.00  0.00    -0.241 N 
HETATM    4  C   UNL     1     -42.600  55.169 -52.344  1.00  0.00     0.129 A 
HETATM    5  C   UNL     1     -42.831  56.503 -52.595  1.00  0.00     0.003 A 
HETATM    6  C   UNL     1     -43.974  57.322 -52.126  1.00  0.00     0.054 C 
ENDROOT
BRANCH   1   7
HETATM    7  N   UNL     1     -41.560  58.174 -53.891  1.00  0.00    -0.291 N 
HETATM    8  C   UNL     1     -41.908  58.679 -55.106  1.00  0.00     0.321 C 
HETATM    9  N   UNL     1     -42.473  57.826 -55.999  1.00  0.00    -0.343 N 
HETATM   10  O   UNL     1     -41.699  59.867 -55.346  1.00  0.00    -0.247 OA
HETATM   11  H   UNL     1     -42.578  56.858 -55.696  1.00  0.00     0.164 HD
HETATM   12  H   UNL     1     -41.137  58.860 -53.283  1.00  0.00     0.172 HD
BRANCH   9  13
HETATM   13  C   UNL     1     -42.908  58.226 -57.318  1.00  0.00     0.128 C 
BRANCH  13  14
HETATM   14  C   UNL     1     -42.450  57.253 -58.408  1.00  0.00     0.046 C 
BRANCH  14  15
HETATM   15  C   UNL     1     -43.372  56.067 -58.514  1.00  0.00    -0.029 C 
HETATM   16  C   UNL     1     -43.681  55.453 -59.666  1.00  0.00    -0.035 C 
HETATM   17  C   UNL     1     -44.604  54.282 -59.764  1.00  0.00     0.036 C 
ENDBRANCH  14  15
ENDBRANCH  13  14
ENDBRANCH   9  13
ENDBRANCH   1   7
BRANCH   3  18
HETATM   18  C   UNL     1     -40.828  53.515 -53.042  1.00  0.00     0.079 A 
HETATM   19  C   UNL     1     -40.072  52.957 -51.990  1.00  0.00     0.062 A 
HETATM   20 CL   UNL     1     -39.793  53.682 -50.443  1.00  0.00    -0.082 Cl
HETATM   21  C   UNL     1     -39.500  51.682 -52.141  1.00  0.00     0.026 A 
HETATM   22  C   UNL     1     -39.667  50.949 -53.314  1.00  0.00     0.002 A 
HETATM   23  C   UNL     1     -40.413  51.485 -54.353  1.00  0.00     0.002 A 
HETATM   24  C   UNL     1     -40.987  52.753 -54.221  1.00  0.00     0.033 A 
ENDBRANCH   3  18
TORSDOF 5
ENDMDL
MODEL 3
REMARK VINA RESULT:      -7.4      3.517      5.706
REMARK  5 active torsions:
REMARK  status: ('A' for Active; 'I' for Inactive)
REMARK    1  A    between atoms: C_3  and  C_4 
REMARK    2  A    between atoms: C_4  and  C_5 
REMARK    3  A    between atoms: C_5  and  N_6 
REMARK       I    between atoms: N_6  and  C_7 
REMARK       I    between atoms: C_7  and  N_8 
REMARK    4  A    between atoms: N_8  and  C_9 
REMARK    5  A    between atoms: N_11  and  C_12 
ROOT
HETATM    1  C   UNL     1     -41.784  56.310 -54.024  1.00  0.00     0.159 A 
HETATM    2  N   UNL     1     -40.853  55.395 -53.760  1.00  0.00    -0.149 NA
HETATM    3  N   UNL     1     -41.505  54.223 -53.593  1.00  0.00    -0.241 N 
HETATM    4  C   UNL     1     -42.869  54.417 -53.719  1.00  0.00     0.129 A 
HETATM    5  C   UNL     1     -43.082  55.747 -54.004  1.00  0.00     0.003 A 
HETATM    6  C   UNL     1     -44.381  56.421 -54.233  1.00  0.00     0.054 C 
ENDROOT
BRANCH   1   7
HETATM    7  N   UNL     1     -41.520  57.636 -54.285  1.00  0.00    -0.291 N 
HETATM    8  C   UNL     1     -40.958  58.577 -53.479  1.00  0.00     0.321 C 
HETATM    9  N   UNL     1     -40.634  58.205 -52.214  1.00  0.00    -0.343 N 
HETATM   10  O   UNL     1     -40.769  59.711 -53.917  1.00  0.00    -0.247 OA
HETATM   11  H   UNL     1     -40.856  57.244 -51.954  1.00  0.00     0.164 HD
HETATM   12  H   UNL     1     -41.743  57.985 -55.206  1.00  0.00     0.172 HD
BRANCH   9  13
HETATM   13  C   UNL     1     -40.016  59.092 -51.254  1.00  0.00     0.128 C 
BRANCH  13  14
HETATM   14  C   UNL     1     -40.899  59.338 -50.028  1.00  0.00     0.046 C 
BRANCH  14  15
HETATM   15  C   UNL     1     -41.879  60.455 -50.266  1.00  0.00    -0.029 C 
HETATM   16  C   UNL     1     -43.075  60.298 -50.854  1.00  0.00    -0.035 C 
HETATM   17  C   UNL     1     -44.039  61.414 -51.094  1.00  0.00     0.036 C 
ENDBRANCH  14  15
ENDBRANCH  13  14
ENDBRANCH   9  13
ENDBRANCH   1   7
BRANCH   3  18
HETATM   18  C   UNL     1     -40.823  52.987 -53.354  1.00  0.00     0.079 A 
HETATM   19  C   UNL     1     -40.134  52.697 -52.159  1.00  0.00     0.062 A 
HETATM   20 CL   UNL     1     -40.045  53.717 -50.763  1.00  0.00    -0.082 Cl
HETATM   21  C   UNL     1     -39.470  51.465 -52.016  1.00  0.00     0.026 A 
HETATM   22  C   UNL     1     -39.481  50.517 -53.036  1.00  0.00     0.002 A 
HETATM   23  C   UNL     1     -40.161  50.789 -54.214  1.00  0.00     0.002 A 
HETATM   24  C   UNL     1     -40.825  52.009 -54.373  1.00  0.00     0.033 A 
ENDBRANCH   3  18
TORSDOF 5
ENDMDL
MODEL 4
REMARK VINA RESULT:      -7.3      1.797      2.407
REMARK  5 active torsions:
REMARK  status: ('A' for Active; 'I' for Inactive)
REMARK    1  A    between atoms: C_3  and  C_4 
REMARK    2  A    between atoms: C_4  and  C_5 
REMARK    3  A    between atoms: C_5  and  N_6 
REMARK       I    between atoms: N_6  and  C_7 
REMARK       I    between atoms: C_7  and  N_8 
REMARK    4  A    between atoms: N_8  and  C_9 
REMARK    5  A    between atoms: N_11  and  C_12 
ROOT
HETATM    1  C   UNL     1     -43.111  55.970 -53.055  1.00  0.00     0.159 A 
HETATM    2  N   UNL     1     -42.696  54.771 -53.462  1.00  0.00    -0.149 NA
HETATM    3  N   UNL     1     -41.600  54.476 -52.729  1.00  0.00    -0.241 N 
HETATM    4  C   UNL     1     -41.304  55.524 -51.875  1.00  0.00     0.129 A 
HETATM    5  C   UNL     1     -42.260  56.498 -52.055  1.00  0.00     0.003 A 
HETATM    6  C   UNL     1     -42.362  57.799 -51.354  1.00  0.00     0.054 C 
ENDROOT
BRANCH   1   7
HETATM    7  N   UNL     1     -44.225  56.615 -53.543  1.00  0.00    -0.291 N 
HETATM    8  C   UNL     1     -44.541  56.933 -54.828  1.00  0.00     0.321 C 
HETATM    9  N   UNL     1     -43.636  56.623 -55.791  1.00  0.00    -0.343 N 
HETATM   10  O   UNL     1     -45.616  57.483 -55.064  1.00  0.00    -0.247 OA
HETATM   11  H   UNL     1     -42.770  56.187 -55.475  1.00  0.00     0.164 HD
HETATM   12  H   UNL     1     -44.937  56.884 -52.881  1.00  0.00     0.172 HD
BRANCH   9  13
HETATM   13  C   UNL     1     -43.846  56.885 -57.197  1.00  0.00     0.128 C 
BRANCH  13  14
HETATM   14  C   UNL     1     -42.901  56.078 -58.092  1.00  0.00     0.046 C 
BRANCH  14  15
HETATM   15  C   UNL     1     -43.458  55.919 -59.482  1.00  0.00    -0.029 C 
HETATM   16  C   UNL     1     -44.471  55.099 -59.800  1.00  0.00    -0.035 C 
HETATM   17  C   UNL     1     -45.012  54.941 -61.183  1.00  0.00     0.036 C 
ENDBRANCH  14  15
ENDBRANCH  13  14
ENDBRANCH   9  13
ENDBRANCH   1   7
BRANCH   3  18
HETATM   18  C   UNL     1     -40.908  53.229 -52.842  1.00  0.00     0.079 A 
HETATM   19  C   UNL     1     -40.228  52.615 -51.769  1.00  0.00     0.062 A 
HETATM   20 CL   UNL     1     -40.164  53.197 -50.140  1.00  0.00    -0.082 Cl
HETATM   21  C   UNL     1     -39.552  51.399 -51.974  1.00  0.00     0.026 A 
HETATM   22  C   UNL     1     -39.542  50.780 -53.221  1.00  0.00     0.002 A 
HETATM   23  C   UNL     1     -40.212  51.370 -54.283  1.00  0.00     0.002 A 
HETATM   24  C   UNL     1     -40.888  52.580 -54.097  1.00  0.00     0.033 A 
ENDBRANCH   3  18
TORSDOF 5
ENDMDL
MODEL 5
REMARK VINA RESULT:      -7.2      1.756      2.138
REMARK  5 active torsions:
REMARK  status: ('A' for Active; 'I' for Inactive)
REMARK    1  A    between atoms: C_3  and  C_4 
REMARK    2  A    between atoms: C_4  and  C_5 
REMARK    3  A    between atoms: C_5  and  N_6 
REMARK       I    between atoms: N_6  and  C_7 
REMARK       I    between atoms: C_7  and  N_8 
REMARK    4  A    between atoms: N_8  and  C_9 
REMARK    5  A    between atoms: N_11  and  C_12 
ROOT
HETATM    1  C   UNL     1     -42.004  56.373 -54.230  1.00  0.00     0.159 A 
HETATM    2  N   UNL     1     -41.153  55.356 -54.354  1.00  0.00    -0.149 NA
HETATM    3  N   UNL     1     -41.504  54.447 -53.418  1.00  0.00    -0.241 N 
HETATM    4  C   UNL     1     -42.569  54.920 -52.673  1.00  0.00     0.129 A 
HETATM    5  C   UNL     1     -42.920  56.154 -53.174  1.00  0.00     0.003 A 
HETATM    6  C   UNL     1     -44.011  57.039 -52.704  1.00  0.00     0.054 C 
ENDROOT
BRANCH   1   7
HETATM    7  N   UNL     1     -41.997  57.496 -55.027  1.00  0.00    -0.291 N 
HETATM    8  C   UNL     1     -42.496  57.664 -56.282  1.00  0.00     0.321 C 
HETATM    9  N   UNL     1     -43.054  56.583 -56.883  1.00  0.00    -0.343 N 
HETATM   10  O   UNL     1     -42.423  58.770 -56.816  1.00  0.00    -0.247 OA
HETATM   11  H   UNL     1     -43.041  55.712 -56.353  1.00  0.00     0.164 HD
HETATM   12  H   UNL     1     -41.588  58.337 -54.647  1.00  0.00     0.172 HD
BRANCH   9  13
HETATM   13  C   UNL     1     -43.640  56.618 -58.205  1.00  0.00     0.128 C 
BRANCH  13  14
HETATM   14  C   UNL     1     -42.693  56.081 -59.281  1.00  0.00     0.046 C 
BRANCH  14  15
HETATM   15  C   UNL     1     -42.014  57.198 -60.029  1.00  0.00    -0.029 C 
HETATM   16  C   UNL     1     -42.587  58.380 -60.302  1.00  0.00    -0.035 C 
HETATM   17  C   UNL     1     -41.910  59.481 -61.052  1.00  0.00     0.036 C 
ENDBRANCH  14  15
ENDBRANCH  13  14
ENDBRANCH   9  13
ENDBRANCH   1   7
BRANCH   3  18
HETATM   18  C   UNL     1     -40.849  53.181 -53.286  1.00  0.00     0.079 A 
HETATM   19  C   UNL     1     -40.111  52.801 -52.147  1.00  0.00     0.062 A 
HETATM   20 CL   UNL     1     -39.922  53.733 -50.700  1.00  0.00    -0.082 Cl
HETATM   21  C   UNL     1     -39.478  51.545 -52.111  1.00  0.00     0.026 A 
HETATM   22  C   UNL     1     -39.568  50.660 -53.182  1.00  0.00     0.002 A 
HETATM   23  C   UNL     1     -40.297  51.021 -54.306  1.00  0.00     0.002 A 
HETATM   24  C   UNL     1     -40.931  52.266 -54.360  1.00  0.00     0.033 A 
ENDBRANCH   3  18
TORSDOF 5
ENDMDL
MODEL 6
REMARK VINA RESULT:      -6.9      3.075      6.942
REMARK  5 active torsions:
REMARK  status: ('A' for Active; 'I' for Inactive)
REMARK    1  A    between atoms: C_3  and  C_4 
REMARK    2  A    between atoms: C_4  and  C_5 
REMARK    3  A    between atoms: C_5  and  N_6 
REMARK       I    between atoms: N_6  and  C_7 
REMARK       I    between atoms: C_7  and  N_8 
REMARK    4  A    between atoms: N_8  and  C_9 
REMARK    5  A    between atoms: N_11  and  C_12 
ROOT
HETATM    1  C   UNL     1     -44.133  57.249 -54.166  1.00  0.00     0.159 A 
HETATM    2  N   UNL     1     -43.593  56.668 -55.236  1.00  0.00    -0.149 NA
HETATM    3  N   UNL     1     -43.695  57.559 -56.247  1.00  0.00    -0.241 N 
HETATM    4  C   UNL     1     -44.342  58.701 -55.810  1.00  0.00     0.129 A 
HETATM    5  C   UNL     1     -44.630  58.537 -54.473  1.00  0.00     0.003 A 
HETATM    6  C   UNL     1     -45.310  59.500 -53.575  1.00  0.00     0.054 C 
ENDROOT
BRANCH   1   7
HETATM    7  N   UNL     1     -44.198  56.672 -52.917  1.00  0.00    -0.291 N 
HETATM    8  C   UNL     1     -43.403  55.713 -52.370  1.00  0.00     0.321 C 
HETATM    9  N   UNL     1     -42.417  55.198 -53.148  1.00  0.00    -0.343 N 
HETATM   10  O   UNL     1     -43.605  55.354 -51.211  1.00  0.00    -0.247 OA
HETATM   11  H   UNL     1     -42.358  55.557 -54.100  1.00  0.00     0.164 HD
HETATM   12  H   UNL     1     -44.914  57.001 -52.287  1.00  0.00     0.172 HD
BRANCH   9  13
HETATM   13  C   UNL     1     -41.487  54.188 -52.694  1.00  0.00     0.128 C 
BRANCH  13  14
HETATM   14  C   UNL     1     -40.514  53.749 -53.791  1.00  0.00     0.046 C 
BRANCH  14  15
HETATM   15  C   UNL     1     -40.704  52.300 -54.152  1.00  0.00    -0.029 C 
HETATM   16  C   UNL     1     -39.766  51.355 -53.996  1.00  0.00    -0.035 C 
HETATM   17  C   UNL     1     -39.959  49.919 -54.365  1.00  0.00     0.036 C 
ENDBRANCH  14  15
ENDBRANCH  13  14
ENDBRANCH   9  13
ENDBRANCH   1   7
BRANCH   3  18
HETATM   18  C   UNL     1     -43.162  57.311 -57.552  1.00  0.00     0.079 A 
HETATM   19  C   UNL     1     -42.332  58.220 -58.240  1.00  0.00     0.062 A 
HETATM   20 CL   UNL     1     -41.754  59.733 -57.627  1.00  0.00    -0.082 Cl
HETATM   21  C   UNL     1     -41.871  57.907 -59.531  1.00  0.00     0.026 A 
HETATM   22  C   UNL     1     -42.215  56.708 -60.150  1.00  0.00     0.002 A 
HETATM   23  C   UNL     1     -43.026  55.803 -59.481  1.00  0.00     0.002 A 
HETATM   24  C   UNL     1     -43.495  56.099 -58.197  1.00  0.00     0.033 A 
ENDBRANCH   3  18
TORSDOF 5
ENDMDL
MODEL 7
REMARK VINA RESULT:      -6.5     15.652     17.760
REMARK  5 active torsions:
REMARK  status: ('A' for Active; 'I' for Inactive)
REMARK    1  A    between atoms: C_3  and  C_4 
REMARK    2  A    between atoms: C_4  and  C_5 
REMARK    3  A    between atoms: C_5  and  N_6 
REMARK       I    between atoms: N_6  and  C_7 
REMARK       I    between atoms: C_7  and  N_8 
REMARK    4  A    between atoms: N_8  and  C_9 
REMARK    5  A    between atoms: N_11  and  C_12 
ROOT
HETATM    1  C   UNL     1     -32.588  40.168 -54.775  1.00  0.00     0.159 A 
HETATM    2  N   UNL     1     -33.882  40.448 -54.926  1.00  0.00    -0.149 NA
HETATM    3  N   UNL     1     -34.144  40.341 -56.247  1.00  0.00    -0.241 N 
HETATM    4  C   UNL     1     -32.988  40.023 -56.937  1.00  0.00     0.129 A 
HETATM    5  C   UNL     1     -31.969  39.898 -56.018  1.00  0.00     0.003 A 
HETATM    6  C   UNL     1     -30.552  39.558 -56.286  1.00  0.00     0.054 C 
ENDROOT
BRANCH   1   7
HETATM    7  N   UNL     1     -31.934  40.142 -53.563  1.00  0.00    -0.291 N 
HETATM    8  C   UNL     1     -32.363  40.571 -52.345  1.00  0.00     0.321 C 
HETATM    9  N   UNL     1     -33.589  41.149 -52.280  1.00  0.00    -0.343 N 
HETATM   10  O   UNL     1     -31.634  40.423 -51.365  1.00  0.00    -0.247 OA
HETATM   11  H   UNL     1     -34.095  41.237 -53.161  1.00  0.00     0.164 HD
HETATM   12  H   UNL     1     -31.012  39.734 -53.538  1.00  0.00     0.172 HD
BRANCH   9  13
HETATM   13  C   UNL     1     -34.179  41.633 -51.052  1.00  0.00     0.128 C 
BRANCH  13  14
HETATM   14  C   UNL     1     -35.412  40.827 -50.635  1.00  0.00     0.046 C 
BRANCH  14  15
HETATM   15  C   UNL     1     -36.282  40.494 -51.818  1.00  0.00    -0.029 C 
HETATM   16  C   UNL     1     -36.957  41.403 -52.537  1.00  0.00    -0.035 C 
HETATM   17  C   UNL     1     -37.825  41.064 -53.705  1.00  0.00     0.036 C 
ENDBRANCH  14  15
ENDBRANCH  13  14
ENDBRANCH   9  13
ENDBRANCH   1   7
BRANCH   3  18
HETATM   18  C   UNL     1     -35.458  40.511 -56.790  1.00  0.00     0.079 A 
HETATM   19  C   UNL     1     -36.469  39.532 -56.702  1.00  0.00     0.062 A 
HETATM   20 CL   UNL     1     -36.345  38.013 -55.881  1.00  0.00    -0.082 Cl
HETATM   21  C   UNL     1     -37.726  39.771 -57.285  1.00  0.00     0.026 A 
HETATM   22  C   UNL     1     -37.998  40.965 -57.950  1.00  0.00     0.002 A 
HETATM   23  C   UNL     1     -37.013  41.937 -58.038  1.00  0.00     0.002 A 
HETATM   24  C   UNL     1     -35.757  41.715 -57.466  1.00  0.00     0.033 A 
ENDBRANCH   3  18
TORSDOF 5
ENDMDL
MODEL 8
REMARK VINA RESULT:      -6.5      3.606      7.217
REMARK  5 active torsions:
REMARK  status: ('A' for Active; 'I' for Inactive)
REMARK    1  A    between atoms: C_3  and  C_4 
REMARK    2  A    between atoms: C_4  and  C_5 
REMARK    3  A    between atoms: C_5  and  N_6 
REMARK       I    between atoms: N_6  and  C_7 
REMARK       I    between atoms: C_7  and  N_8 
REMARK    4  A    between atoms: N_8  and  C_9 
REMARK    5  A    between atoms: N_11  and  C_12 
ROOT
HETATM    1  C   UNL     1     -43.911  55.998 -53.042  1.00  0.00     0.159 A 
HETATM    2  N   UNL     1     -44.006  57.326 -52.978  1.00  0.00    -0.149 NA
HETATM    3  N   UNL     1     -43.786  57.663 -51.688  1.00  0.00    -0.241 N 
HETATM    4  C   UNL     1     -43.587  56.526 -50.927  1.00  0.00     0.129 A 
HETATM    5  C   UNL     1     -43.654  55.438 -51.769  1.00  0.00     0.003 A 
HETATM    6  C   UNL     1     -43.492  54.010 -51.408  1.00  0.00     0.054 C 
ENDROOT
BRANCH   1   7
HETATM    7  N   UNL     1     -44.045  55.263 -54.199  1.00  0.00    -0.291 N 
HETATM    8  C   UNL     1     -43.085  54.661 -54.952  1.00  0.00     0.321 C 
HETATM    9  N   UNL     1     -41.794  54.817 -54.562  1.00  0.00    -0.343 N 
HETATM   10  O   UNL     1     -43.417  54.010 -55.941  1.00  0.00    -0.247 OA
HETATM   11  H   UNL     1     -41.637  55.396 -53.737  1.00  0.00     0.164 HD
HETATM   12  H   UNL     1     -44.978  55.114 -54.552  1.00  0.00     0.172 HD
BRANCH   9  13
HETATM   13  C   UNL     1     -40.674  54.221 -55.254  1.00  0.00     0.128 C 
BRANCH  13  14
HETATM   14  C   UNL     1     -40.155  52.961 -54.556  1.00  0.00     0.046 C 
BRANCH  14  15
HETATM   15  C   UNL     1     -40.355  53.033 -53.065  1.00  0.00    -0.029 C 
HETATM   16  C   UNL     1     -39.936  52.095 -52.202  1.00  0.00    -0.035 C 
HETATM   17  C   UNL     1     -40.146  52.170 -50.724  1.00  0.00     0.036 C 
ENDBRANCH  14  15
ENDBRANCH  13  14
ENDBRANCH   9  13
ENDBRANCH   1   7
BRANCH   3  18
HETATM   18  C   UNL     1     -43.746  59.023 -51.242  1.00  0.00     0.079 A 
HETATM   19  C   UNL     1     -42.591  59.829 -51.303  1.00  0.00     0.062 A 
HETATM   20 CL   UNL     1     -41.065  59.368 -51.979  1.00  0.00    -0.082 Cl
HETATM   21  C   UNL     1     -42.632  61.148 -50.820  1.00  0.00     0.026 A 
HETATM   22  C   UNL     1     -43.800  61.683 -50.280  1.00  0.00     0.002 A 
HETATM   23  C   UNL     1     -44.944  60.902 -50.219  1.00  0.00     0.002 A 
HETATM   24  C   UNL     1     -44.920  59.587 -50.694  1.00  0.00     0.033 A 
ENDBRANCH   3  18
TORSDOF 5
ENDMDL
MODEL 9
REMARK VINA RESULT:      -6.5      2.849      3.500
REMARK  5 active torsions:
REMARK  status: ('A' for Active; 'I' for Inactive)
REMARK    1  A    between atoms: C_3  and  C_4 
REMARK    2  A    between atoms: C_4  and  C_5 
REMARK    3  A    between atoms: C_5  and  N_6 
REMARK       I    between atoms: N_6  and  C_7 
REMARK       I    between atoms: C_7  and  N_8 
REMARK    4  A    between atoms: N_8  and  C_9 
REMARK    5  A    between atoms: N_11  and  C_12 
ROOT
HETATM    1  C   UNL     1     -42.036  57.238 -52.265  1.00  0.00     0.159 A 
HETATM    2  N   UNL     1     -41.111  56.361 -52.650  1.00  0.00    -0.149 NA
HETATM    3  N   UNL     1     -41.612  55.135 -52.386  1.00  0.00    -0.241 N 
HETATM    4  C   UNL     1     -42.857  55.249 -51.792  1.00  0.00     0.129 A 
HETATM    5  C   UNL     1     -43.162  56.589 -51.706  1.00  0.00     0.003 A 
HETATM    6  C   UNL     1     -44.394  57.197 -51.151  1.00  0.00     0.054 C 
ENDROOT
BRANCH   1   7
HETATM    7  N   UNL     1     -41.915  58.604 -52.394  1.00  0.00    -0.291 N 
HETATM    8  C   UNL     1     -41.960  59.370 -53.518  1.00  0.00     0.321 C 
HETATM    9  N   UNL     1     -42.103  58.730 -54.706  1.00  0.00    -0.343 N 
HETATM   10  O   UNL     1     -41.869  60.593 -53.416  1.00  0.00    -0.247 OA
HETATM   11  H   UNL     1     -42.148  57.712 -54.669  1.00  0.00     0.164 HD
HETATM   12  H   UNL     1     -41.798  59.145 -51.550  1.00  0.00     0.172 HD
BRANCH   9  13
HETATM   13  C   UNL     1     -42.184  59.415 -55.977  1.00  0.00     0.128 C 
BRANCH  13  14
HETATM   14  C   UNL     1     -42.584  58.481 -57.122  1.00  0.00     0.046 C 
BRANCH  14  15
HETATM   15  C   UNL     1     -43.960  58.802 -57.643  1.00  0.00    -0.029 C 
HETATM   16  C   UNL     1     -44.946  57.902 -57.773  1.00  0.00    -0.035 C 
HETATM   17  C   UNL     1     -46.307  58.226 -58.298  1.00  0.00     0.036 C 
ENDBRANCH  14  15
ENDBRANCH  13  14
ENDBRANCH   9  13
ENDBRANCH   1   7
BRANCH   3  18
HETATM   18  C   UNL     1     -40.921  53.928 -52.725  1.00  0.00     0.079 A 
HETATM   19  C   UNL     1     -40.773  53.461 -54.047  1.00  0.00     0.062 A 
HETATM   20 CL   UNL     1     -41.315  54.270 -55.478  1.00  0.00    -0.082 Cl
HETATM   21  C   UNL     1     -40.099  52.251 -54.289  1.00  0.00     0.026 A 
HETATM   22  C   UNL     1     -39.567  51.498 -53.244  1.00  0.00     0.002 A 
HETATM   23  C   UNL     1     -39.702  51.951 -51.940  1.00  0.00     0.002 A 
HETATM   24  C   UNL     1     -40.370  53.151 -51.681  1.00  0.00     0.033 A 
ENDBRANCH   3  18
TORSDOF 5
ENDMDL
MODEL 10
REMARK VINA RESULT:      -6.5      4.572      7.154
REMARK  5 active torsions:
REMARK  status: ('A' for Active; 'I' for Inactive)
REMARK    1  A    between atoms: C_3  and  C_4 
REMARK    2  A    between atoms: C_4  and  C_5 
REMARK    3  A    between atoms: C_5  and  N_6 
REMARK       I    between atoms: N_6  and  C_7 
REMARK       I    between atoms: C_7  and  N_8 
REMARK    4  A    between atoms: N_8  and  C_9 
REMARK    5  A    between atoms: N_11  and  C_12 
ROOT
HETATM    1  C   UNL     1     -42.074  55.609 -50.720  1.00  0.00     0.159 A 
HETATM    2  N   UNL     1     -41.563  56.578 -51.476  1.00  0.00    -0.149 NA
HETATM    3  N   UNL     1     -42.579  57.052 -52.231  1.00  0.00    -0.241 N 
HETATM    4  C   UNL     1     -43.736  56.341 -51.967  1.00  0.00     0.129 A 
HETATM    5  C   UNL     1     -43.448  55.410 -50.994  1.00  0.00     0.003 A 
HETATM    6  C   UNL     1     -44.376  54.429 -50.385  1.00  0.00     0.054 C 
ENDROOT
BRANCH   1   7
HETATM    7  N   UNL     1     -41.359  54.890 -49.788  1.00  0.00    -0.291 N 
HETATM    8  C   UNL     1     -40.590  53.781 -49.961  1.00  0.00     0.321 C 
HETATM    9  N   UNL     1     -40.525  53.254 -51.210  1.00  0.00    -0.343 N 
HETATM   10  O   UNL     1     -39.995  53.305 -48.995  1.00  0.00    -0.247 OA
HETATM   11  H   UNL     1     -41.077  53.721 -51.928  1.00  0.00     0.164 HD
HETATM   12  H   UNL     1     -41.370  55.221 -48.834  1.00  0.00     0.172 HD
BRANCH   9  13
HETATM   13  C   UNL     1     -39.734  52.090 -51.544  1.00  0.00     0.128 C 
BRANCH  13  14
HETATM   14  C   UNL     1     -39.731  51.794 -53.046  1.00  0.00     0.046 C 
BRANCH  14  15
HETATM   15  C   UNL     1     -40.673  52.703 -53.791  1.00  0.00    -0.029 C 
HETATM   16  C   UNL     1     -40.287  53.593 -54.719  1.00  0.00    -0.035 C 
HETATM   17  C   UNL     1     -41.227  54.497 -55.448  1.00  0.00     0.036 C 
ENDBRANCH  14  15
ENDBRANCH  13  14
ENDBRANCH   9  13
ENDBRANCH   1   7
BRANCH   3  18
HETATM   18  C   UNL     1     -42.424  58.154 -53.131  1.00  0.00     0.079 A 
HETATM   19  C   UNL     1     -42.351  59.498 -52.712  1.00  0.00     0.062 A 
HETATM   20 CL   UNL     1     -42.357  60.053 -51.072  1.00  0.00    -0.082 Cl
HETATM   21  C   UNL     1     -42.223  60.522 -53.667  1.00  0.00     0.026 A 
HETATM   22  C   UNL     1     -42.164  60.236 -55.028  1.00  0.00     0.002 A 
HETATM   23  C   UNL     1     -42.230  58.918 -55.453  1.00  0.00     0.002 A 
HETATM   24  C   UNL     1     -42.358  57.887 -54.517  1.00  0.00     0.033 A 
ENDBRANCH   3  18
TORSDOF 5
ENDMDL
