MODEL 1
REMARK VINA RESULT:      -8.9      0.000      0.000
REMARK  7 active torsions:
REMARK  status: ('A' for Active; 'I' for Inactive)
REMARK    1  A    between atoms: O_2  and  C_3 
REMARK    2  A    between atoms: C_5  and  C_6 
REMARK    3  A    between atoms: C_6  and  O_7 
REMARK    4  A    between atoms: C_6  and  C_8 
REMARK    5  A    between atoms: C_8  and  N_9 
REMARK       I    between atoms: N_9  and  C_10 
REMARK    6  A    between atoms: C_10  and  C_11 
REMARK    7  A    between atoms: C_12  and  C_13 
ROOT
HETATM    1  C   UNL     1     -43.904  56.650 -55.130  1.00  0.00     0.089 C 
HETATM    2  C   UNL     1     -43.524  56.241 -53.687  1.00  0.00     0.068 C 
HETATM    3  C   UNL     1     -43.102  57.464 -52.863  1.00  0.00     0.013 C 
HETATM    4  C   UNL     1     -44.244  58.481 -52.796  1.00  0.00     0.001 C 
HETATM    5  C   UNL     1     -44.797  58.843 -54.174  1.00  0.00     0.001 C 
HETATM    6  C   UNL     1     -45.113  57.609 -55.029  1.00  0.00     0.015 C 
ENDROOT
BRANCH   1   7
HETATM    7  C   UNL     1     -42.821  57.317 -56.009  1.00  0.00     0.222 C 
HETATM    8  N   UNL     1     -42.954  57.194 -57.367  1.00  0.00    -0.358 N 
HETATM    9  H   UNL     1     -43.891  56.957 -57.701  1.00  0.00     0.162 HD
HETATM   10  O   UNL     1     -41.905  57.981 -55.524  1.00  0.00    -0.273 OA
BRANCH   8  11
HETATM   11  C   UNL     1     -42.120  57.940 -58.303  1.00  0.00     0.159 C 
BRANCH  11  12
HETATM   12  C   UNL     1     -42.334  57.553 -59.785  1.00  0.00     0.169 C 
BRANCH  12  13
HETATM   13  C   UNL     1     -43.609  56.748 -59.967  1.00  0.00    -0.025 A 
HETATM   14  C   UNL     1     -44.823  57.420 -60.220  1.00  0.00     0.046 A 
HETATM   15  C   UNL     1     -46.018  56.712 -60.369  1.00  0.00     0.068 A 
HETATM   16  C   UNL     1     -46.003  55.320 -60.282  1.00  0.00     0.037 A 
HETATM   17  C   UNL     1     -44.810  54.638 -60.045  1.00  0.00     0.003 A 
HETATM   18  C   UNL     1     -43.622  55.349 -59.885  1.00  0.00     0.010 A 
BRANCH  15  19
HETATM   19  O   UNL     1     -47.253  57.257 -60.599  1.00  0.00    -0.356 OA
HETATM   20  C   UNL     1     -47.979  56.758 -61.715  1.00  0.00     0.210 C 
ENDBRANCH  15  19
ENDBRANCH  12  13
BRANCH  12  21
HETATM   21  O   UNL     1     -41.192  56.811 -60.236  1.00  0.00    -0.389 OA
HETATM   22  H   UNL     1     -40.445  57.198 -59.747  1.00  0.00     0.210 HD
ENDBRANCH  12  21
ENDBRANCH  11  12
ENDBRANCH   8  11
ENDBRANCH   1   7
BRANCH   2  23
HETATM   23  C   UNL     1     -42.559  55.094 -53.585  1.00  0.00     0.110 A 
HETATM   24  N   UNL     1     -42.348  54.150 -54.482  1.00  0.00    -0.233 NA
HETATM   25  C   UNL     1     -41.447  53.281 -53.913  1.00  0.00     0.087 A 
HETATM   26  C   UNL     1     -41.089  53.708 -52.641  1.00  0.00     0.062 A 
HETATM   27  C   UNL     1     -40.898  52.102 -54.430  1.00  0.00     0.057 A 
HETATM   28  N   UNL     1     -41.807  54.862 -52.455  1.00  0.00    -0.342 N 
HETATM   29  C   UNL     1     -40.191  53.019 -51.825  1.00  0.00     0.034 A 
HETATM   30  H   UNL     1     -41.799  55.433 -51.623  1.00  0.00     0.167 HD
HETATM   31  C   UNL     1     -39.648  51.839 -52.352  1.00  0.00     0.026 A 
HETATM   32  C   UNL     1     -39.998  51.392 -53.628  1.00  0.00     0.036 A 
HETATM   33 CL   UNL     1     -39.307  49.932 -54.229  1.00  0.00    -0.084 Cl
ENDBRANCH   2  23
TORSDOF 7
ENDMDL
MODEL 2
REMARK VINA RESULT:      -8.8      1.808      2.705
REMARK  7 active torsions:
REMARK  status: ('A' for Active; 'I' for Inactive)
REMARK    1  A    between atoms: O_2  and  C_3 
REMARK    2  A    between atoms: C_5  and  C_6 
REMARK    3  A    between atoms: C_6  and  O_7 
REMARK    4  A    between atoms: C_6  and  C_8 
REMARK    5  A    between atoms: C_8  and  N_9 
REMARK       I    between atoms: N_9  and  C_10 
REMARK    6  A    between atoms: C_10  and  C_11 
REMARK    7  A    between atoms: C_12  and  C_13 
ROOT
HETATM    1  C   UNL     1     -43.653  56.652 -52.154  1.00  0.00     0.089 C 
HETATM    2  C   UNL     1     -42.231  56.414 -51.591  1.00  0.00     0.068 C 
HETATM    3  C   UNL     1     -41.347  57.652 -51.790  1.00  0.00     0.013 C 
HETATM    4  C   UNL     1     -41.956  58.861 -51.078  1.00  0.00     0.001 C 
HETATM    5  C   UNL     1     -43.418  59.097 -51.454  1.00  0.00     0.001 C 
HETATM    6  C   UNL     1     -44.269  57.824 -51.354  1.00  0.00     0.015 C 
ENDROOT
BRANCH   1   7
HETATM    7  C   UNL     1     -43.799  56.957 -53.662  1.00  0.00     0.222 C 
HETATM    8  N   UNL     1     -42.647  57.027 -54.400  1.00  0.00    -0.358 N 
HETATM    9  H   UNL     1     -41.829  56.573 -53.989  1.00  0.00     0.162 HD
HETATM   10  O   UNL     1     -44.899  57.081 -54.200  1.00  0.00    -0.273 OA
BRANCH   8  11
HETATM   11  C   UNL     1     -42.658  57.108 -55.857  1.00  0.00     0.159 C 
BRANCH  11  12
HETATM   12  C   UNL     1     -42.672  55.734 -56.565  1.00  0.00     0.169 C 
BRANCH  12  13
HETATM   13  C   UNL     1     -43.190  55.851 -57.988  1.00  0.00    -0.025 A 
HETATM   14  C   UNL     1     -43.045  57.070 -58.680  1.00  0.00     0.046 A 
HETATM   15  C   UNL     1     -43.532  57.220 -59.981  1.00  0.00     0.068 A 
HETATM   16  C   UNL     1     -44.154  56.140 -60.607  1.00  0.00     0.037 A 
HETATM   17  C   UNL     1     -44.294  54.922 -59.943  1.00  0.00     0.003 A 
HETATM   18  C   UNL     1     -43.818  54.780 -58.640  1.00  0.00     0.010 A 
BRANCH  15  19
HETATM   19  O   UNL     1     -43.463  58.357 -60.740  1.00  0.00    -0.356 OA
HETATM   20  C   UNL     1     -42.250  59.096 -60.686  1.00  0.00     0.210 C 
ENDBRANCH  15  19
ENDBRANCH  12  13
BRANCH  12  21
HETATM   21  O   UNL     1     -43.482  54.830 -55.799  1.00  0.00    -0.389 OA
HETATM   22  H   UNL     1     -42.852  54.168 -55.462  1.00  0.00     0.210 HD
ENDBRANCH  12  21
ENDBRANCH  11  12
ENDBRANCH   8  11
ENDBRANCH   1   7
BRANCH   2  23
HETATM   23  C   UNL     1     -41.576  55.138 -52.038  1.00  0.00     0.110 A 
HETATM   24  N   UNL     1     -41.704  54.547 -53.211  1.00  0.00    -0.233 NA
HETATM   25  C   UNL     1     -40.992  53.374 -53.123  1.00  0.00     0.087 A 
HETATM   26  C   UNL     1     -40.405  53.247 -51.871  1.00  0.00     0.062 A 
HETATM   27  C   UNL     1     -40.813  52.367 -54.079  1.00  0.00     0.057 A 
HETATM   28  N   UNL     1     -40.789  54.381 -51.200  1.00  0.00    -0.342 N 
HETATM   29  C   UNL     1     -39.624  52.153 -51.497  1.00  0.00     0.034 A 
HETATM   30  H   UNL     1     -40.549  54.611 -50.247  1.00  0.00     0.167 HD
HETATM   31  C   UNL     1     -39.452  51.151 -52.461  1.00  0.00     0.026 A 
HETATM   32  C   UNL     1     -40.037  51.258 -53.725  1.00  0.00     0.036 A 
HETATM   33 CL   UNL     1     -39.800  49.996 -54.874  1.00  0.00    -0.084 Cl
ENDBRANCH   2  23
TORSDOF 7
ENDMDL
MODEL 3
REMARK VINA RESULT:      -8.4      3.021      5.130
REMARK  7 active torsions:
REMARK  status: ('A' for Active; 'I' for Inactive)
REMARK    1  A    between atoms: O_2  and  C_3 
REMARK    2  A    between atoms: C_5  and  C_6 
REMARK    3  A    between atoms: C_6  and  O_7 
REMARK    4  A    between atoms: C_6  and  C_8 
REMARK    5  A    between atoms: C_8  and  N_9 
REMARK       I    between atoms: N_9  and  C_10 
REMARK    6  A    between atoms: C_10  and  C_11 
REMARK    7  A    between atoms: C_12  and  C_13 
ROOT
HETATM    1  C   UNL     1     -40.942  55.348 -54.616  1.00  0.00     0.089 C 
HETATM    2  C   UNL     1     -41.119  55.249 -53.081  1.00  0.00     0.068 C 
HETATM    3  C   UNL     1     -41.687  53.882 -52.682  1.00  0.00     0.013 C 
HETATM    4  C   UNL     1     -40.750  52.761 -53.137  1.00  0.00     0.001 C 
HETATM    5  C   UNL     1     -40.389  52.854 -54.618  1.00  0.00     0.001 C 
HETATM    6  C   UNL     1     -39.924  54.258 -55.028  1.00  0.00     0.015 C 
ENDROOT
BRANCH   1   7
HETATM    7  C   UNL     1     -42.197  55.208 -55.506  1.00  0.00     0.222 C 
HETATM    8  N   UNL     1     -42.155  55.794 -56.744  1.00  0.00    -0.358 N 
HETATM    9  H   UNL     1     -41.220  55.996 -57.106  1.00  0.00     0.162 HD
HETATM   10  O   UNL     1     -43.179  54.556 -55.152  1.00  0.00    -0.273 OA
BRANCH   8  11
HETATM   11  C   UNL     1     -43.186  55.566 -57.751  1.00  0.00     0.159 C 
BRANCH  11  12
HETATM   12  C   UNL     1     -43.147  56.564 -58.931  1.00  0.00     0.169 C 
BRANCH  12  13
HETATM   13  C   UNL     1     -44.545  56.998 -59.334  1.00  0.00    -0.025 A 
HETATM   14  C   UNL     1     -45.238  56.271 -60.323  1.00  0.00     0.046 A 
HETATM   15  C   UNL     1     -46.516  56.657 -60.735  1.00  0.00     0.068 A 
HETATM   16  C   UNL     1     -47.118  57.768 -60.144  1.00  0.00     0.037 A 
HETATM   17  C   UNL     1     -46.453  58.491 -59.154  1.00  0.00     0.003 A 
HETATM   18  C   UNL     1     -45.173  58.110 -58.755  1.00  0.00     0.010 A 
BRANCH  15  19
HETATM   19  O   UNL     1     -47.274  56.040 -61.694  1.00  0.00    -0.356 OA
HETATM   20  C   UNL     1     -48.381  56.769 -62.207  1.00  0.00     0.210 C 
ENDBRANCH  15  19
ENDBRANCH  12  13
BRANCH  12  21
HETATM   21  O   UNL     1     -42.465  55.946 -60.032  1.00  0.00    -0.389 OA
HETATM   22  H   UNL     1     -43.026  56.142 -60.804  1.00  0.00     0.210 HD
ENDBRANCH  12  21
ENDBRANCH  11  12
ENDBRANCH   8  11
ENDBRANCH   1   7
BRANCH   2  23
HETATM   23  C   UNL     1     -41.846  56.402 -52.450  1.00  0.00     0.110 A 
HETATM   24  N   UNL     1     -43.150  56.538 -52.306  1.00  0.00    -0.233 NA
HETATM   25  C   UNL     1     -43.343  57.784 -51.757  1.00  0.00     0.087 A 
HETATM   26  C   UNL     1     -42.128  58.423 -51.550  1.00  0.00     0.062 A 
HETATM   27  C   UNL     1     -44.536  58.433 -51.416  1.00  0.00     0.057 A 
HETATM   28  N   UNL     1     -41.191  57.526 -51.997  1.00  0.00    -0.342 N 
HETATM   29  C   UNL     1     -42.017  59.704 -51.007  1.00  0.00     0.034 A 
HETATM   30  H   UNL     1     -40.193  57.673 -52.008  1.00  0.00     0.167 HD
HETATM   31  C   UNL     1     -43.218  60.344 -50.671  1.00  0.00     0.026 A 
HETATM   32  C   UNL     1     -44.450  59.719 -50.874  1.00  0.00     0.036 A 
HETATM   33 CL   UNL     1     -45.898  60.551 -50.448  1.00  0.00    -0.084 Cl
ENDBRANCH   2  23
TORSDOF 7
ENDMDL
MODEL 4
REMARK VINA RESULT:      -8.4      3.021      7.717
REMARK  7 active torsions:
REMARK  status: ('A' for Active; 'I' for Inactive)
REMARK    1  A    between atoms: O_2  and  C_3 
REMARK    2  A    between atoms: C_5  and  C_6 
REMARK    3  A    between atoms: C_6  and  O_7 
REMARK    4  A    between atoms: C_6  and  C_8 
REMARK    5  A    between atoms: C_8  and  N_9 
REMARK       I    between atoms: N_9  and  C_10 
REMARK    6  A    between atoms: C_10  and  C_11 
REMARK    7  A    between atoms: C_12  and  C_13 
ROOT
HETATM    1  C   UNL     1     -42.077  58.503 -54.723  1.00  0.00     0.089 C 
HETATM    2  C   UNL     1     -43.373  59.106 -55.317  1.00  0.00     0.068 C 
HETATM    3  C   UNL     1     -44.391  59.416 -54.212  1.00  0.00     0.013 C 
HETATM    4  C   UNL     1     -43.804  60.415 -53.212  1.00  0.00     0.001 C 
HETATM    5  C   UNL     1     -42.441  59.983 -52.673  1.00  0.00     0.001 C 
HETATM    6  C   UNL     1     -41.467  59.571 -53.784  1.00  0.00     0.015 C 
ENDROOT
BRANCH   1   7
HETATM    7  C   UNL     1     -42.181  57.170 -53.947  1.00  0.00     0.222 C 
HETATM    8  N   UNL     1     -42.764  56.114 -54.595  1.00  0.00    -0.358 N 
HETATM    9  H   UNL     1     -42.797  56.182 -55.614  1.00  0.00     0.162 HD
HETATM   10  O   UNL     1     -41.714  57.036 -52.816  1.00  0.00    -0.273 OA
BRANCH   8  11
HETATM   11  C   UNL     1     -42.742  54.759 -54.054  1.00  0.00     0.159 C 
BRANCH  11  12
HETATM   12  C   UNL     1     -41.808  53.790 -54.815  1.00  0.00     0.169 C 
BRANCH  12  13
HETATM   13  C   UNL     1     -40.997  52.937 -53.856  1.00  0.00    -0.025 A 
HETATM   14  C   UNL     1     -40.902  53.316 -52.502  1.00  0.00     0.046 A 
HETATM   15  C   UNL     1     -40.145  52.567 -51.597  1.00  0.00     0.068 A 
HETATM   16  C   UNL     1     -39.489  51.419 -52.042  1.00  0.00     0.037 A 
HETATM   17  C   UNL     1     -39.582  51.021 -53.375  1.00  0.00     0.003 A 
HETATM   18  C   UNL     1     -40.329  51.778 -54.277  1.00  0.00     0.010 A 
BRANCH  15  19
HETATM   19  O   UNL     1     -39.967  52.848 -50.269  1.00  0.00    -0.356 OA
HETATM   20  C   UNL     1     -39.949  54.220 -49.898  1.00  0.00     0.210 C 
ENDBRANCH  15  19
ENDBRANCH  12  13
BRANCH  12  21
HETATM   21  O   UNL     1     -40.948  54.558 -55.670  1.00  0.00    -0.389 OA
HETATM   22  H   UNL     1     -40.994  54.104 -56.530  1.00  0.00     0.210 HD
ENDBRANCH  12  21
ENDBRANCH  11  12
ENDBRANCH   8  11
ENDBRANCH   1   7
BRANCH   2  23
HETATM   23  C   UNL     1     -43.960  58.339 -56.468  1.00  0.00     0.110 A 
HETATM   24  N   UNL     1     -43.333  57.494 -57.263  1.00  0.00    -0.233 NA
HETATM   25  C   UNL     1     -44.253  57.112 -58.211  1.00  0.00     0.087 A 
HETATM   26  C   UNL     1     -45.476  57.730 -57.986  1.00  0.00     0.062 A 
HETATM   27  C   UNL     1     -44.103  56.243 -59.299  1.00  0.00     0.057 A 
HETATM   28  N   UNL     1     -45.266  58.503 -56.872  1.00  0.00    -0.342 N 
HETATM   29  C   UNL     1     -46.596  57.532 -58.795  1.00  0.00     0.034 A 
HETATM   30  H   UNL     1     -45.949  59.105 -56.436  1.00  0.00     0.167 HD
HETATM   31  C   UNL     1     -46.435  56.661 -59.880  1.00  0.00     0.026 A 
HETATM   32  C   UNL     1     -45.211  56.032 -60.125  1.00  0.00     0.036 A 
HETATM   33 CL   UNL     1     -45.063  54.974 -61.477  1.00  0.00    -0.084 Cl
ENDBRANCH   2  23
TORSDOF 7
ENDMDL
MODEL 5
REMARK VINA RESULT:      -8.4      2.042      3.361
REMARK  7 active torsions:
REMARK  status: ('A' for Active; 'I' for Inactive)
REMARK    1  A    between atoms: O_2  and  C_3 
REMARK    2  A    between atoms: C_5  and  C_6 
REMARK    3  A    between atoms: C_6  and  O_7 
REMARK    4  A    between atoms: C_6  and  C_8 
REMARK    5  A    between atoms: C_8  and  N_9 
REMARK       I    between atoms: N_9  and  C_10 
REMARK    6  A    between atoms: C_10  and  C_11 
REMARK    7  A    between atoms: C_12  and  C_13 
ROOT
HETATM    1  C   UNL     1     -42.873  57.623 -51.623  1.00  0.00     0.089 C 
HETATM    2  C   UNL     1     -41.666  57.117 -50.797  1.00  0.00     0.068 C 
HETATM    3  C   UNL     1     -40.486  58.091 -50.895  1.00  0.00     0.013 C 
HETATM    4  C   UNL     1     -40.890  59.471 -50.371  1.00  0.00     0.001 C 
HETATM    5  C   UNL     1     -42.166  60.002 -51.021  1.00  0.00     0.001 C 
HETATM    6  C   UNL     1     -43.307  58.976 -51.012  1.00  0.00     0.015 C 
ENDROOT
BRANCH   1   7
HETATM    7  C   UNL     1     -42.688  57.809 -53.146  1.00  0.00     0.222 C 
HETATM    8  N   UNL     1     -43.615  57.220 -53.966  1.00  0.00    -0.358 N 
HETATM    9  H   UNL     1     -44.506  56.980 -53.526  1.00  0.00     0.162 HD
HETATM   10  O   UNL     1     -41.784  58.501 -53.614  1.00  0.00    -0.273 OA
BRANCH   8  11
HETATM   11  C   UNL     1     -43.669  57.485 -55.399  1.00  0.00     0.159 C 
BRANCH  11  12
HETATM   12  C   UNL     1     -42.880  56.470 -56.259  1.00  0.00     0.169 C 
BRANCH  12  13
HETATM   13  C   UNL     1     -42.826  56.902 -57.713  1.00  0.00    -0.025 A 
HETATM   14  C   UNL     1     -43.460  56.114 -58.695  1.00  0.00     0.046 A 
HETATM   15  C   UNL     1     -43.410  56.469 -60.045  1.00  0.00     0.068 A 
HETATM   16  C   UNL     1     -42.737  57.632 -60.421  1.00  0.00     0.037 A 
HETATM   17  C   UNL     1     -42.115  58.432 -59.462  1.00  0.00     0.003 A 
HETATM   18  C   UNL     1     -42.158  58.066 -58.118  1.00  0.00     0.010 A 
BRANCH  15  19
HETATM   19  O   UNL     1     -43.971  55.774 -61.083  1.00  0.00    -0.356 OA
HETATM   20  C   UNL     1     -45.314  55.341 -60.916  1.00  0.00     0.210 C 
ENDBRANCH  15  19
ENDBRANCH  12  13
BRANCH  12  21
HETATM   21  O   UNL     1     -43.499  55.181 -56.131  1.00  0.00    -0.389 OA
HETATM   22  H   UNL     1     -44.430  55.335 -56.370  1.00  0.00     0.210 HD
ENDBRANCH  12  21
ENDBRANCH  11  12
ENDBRANCH   8  11
ENDBRANCH   1   7
BRANCH   2  23
HETATM   23  C   UNL     1     -41.280  55.687 -51.049  1.00  0.00     0.110 A 
HETATM   24  N   UNL     1     -41.084  54.744 -50.147  1.00  0.00    -0.233 NA
HETATM   25  C   UNL     1     -40.666  53.635 -50.843  1.00  0.00     0.087 A 
HETATM   26  C   UNL     1     -40.613  53.900 -52.205  1.00  0.00     0.062 A 
HETATM   27  C   UNL     1     -40.307  52.367 -50.368  1.00  0.00     0.057 A 
HETATM   28  N   UNL     1     -41.009  55.209 -52.312  1.00  0.00    -0.342 N 
HETATM   29  C   UNL     1     -40.219  52.957 -53.155  1.00  0.00     0.034 A 
HETATM   30  H   UNL     1     -41.073  55.737 -53.170  1.00  0.00     0.167 HD
HETATM   31  C   UNL     1     -39.862  51.692 -52.668  1.00  0.00     0.026 A 
HETATM   32  C   UNL     1     -39.905  51.408 -51.301  1.00  0.00     0.036 A 
HETATM   33 CL   UNL     1     -39.450  49.839 -50.752  1.00  0.00    -0.084 Cl
ENDBRANCH   2  23
TORSDOF 7
ENDMDL
MODEL 6
REMARK VINA RESULT:      -8.4      2.660      4.046
REMARK  7 active torsions:
REMARK  status: ('A' for Active; 'I' for Inactive)
REMARK    1  A    between atoms: O_2  and  C_3 
REMARK    2  A    between atoms: C_5  and  C_6 
REMARK    3  A    between atoms: C_6  and  O_7 
REMARK    4  A    between atoms: C_6  and  C_8 
REMARK    5  A    between atoms: C_8  and  N_9 
REMARK       I    between atoms: N_9  and  C_10 
REMARK    6  A    between atoms: C_10  and  C_11 
REMARK    7  A    between atoms: C_12  and  C_13 
ROOT
HETATM    1  C   UNL     1     -43.210  57.099 -52.550  1.00  0.00     0.089 C 
HETATM    2  C   UNL     1     -41.679  56.881 -52.486  1.00  0.00     0.068 C 
HETATM    3  C   UNL     1     -40.960  57.717 -53.553  1.00  0.00     0.013 C 
HETATM    4  C   UNL     1     -41.249  59.206 -53.346  1.00  0.00     0.001 C 
HETATM    5  C   UNL     1     -42.742  59.512 -53.245  1.00  0.00     0.001 C 
HETATM    6  C   UNL     1     -43.470  58.595 -52.253  1.00  0.00     0.015 C 
ENDROOT
BRANCH   1   7
HETATM    7  C   UNL     1     -43.947  56.723 -53.856  1.00  0.00     0.222 C 
HETATM    8  N   UNL     1     -45.090  57.418 -54.151  1.00  0.00    -0.358 N 
HETATM    9  H   UNL     1     -45.197  58.317 -53.676  1.00  0.00     0.162 HD
HETATM   10  O   UNL     1     -43.507  55.876 -54.633  1.00  0.00    -0.273 OA
BRANCH   8  11
HETATM   11  C   UNL     1     -45.763  57.302 -55.440  1.00  0.00     0.159 C 
BRANCH  11  12
HETATM   12  C   UNL     1     -45.604  58.542 -56.349  1.00  0.00     0.169 C 
BRANCH  12  13
HETATM   13  C   UNL     1     -44.236  58.573 -57.008  1.00  0.00    -0.025 A 
HETATM   14  C   UNL     1     -43.380  59.669 -56.778  1.00  0.00     0.046 A 
HETATM   15  C   UNL     1     -42.125  59.741 -57.387  1.00  0.00     0.068 A 
HETATM   16  C   UNL     1     -41.710  58.702 -58.220  1.00  0.00     0.037 A 
HETATM   17  C   UNL     1     -42.537  57.603 -58.448  1.00  0.00     0.003 A 
HETATM   18  C   UNL     1     -43.794  57.542 -57.848  1.00  0.00     0.010 A 
BRANCH  15  19
HETATM   19  O   UNL     1     -41.222  60.760 -57.252  1.00  0.00    -0.356 OA
HETATM   20  C   UNL     1     -40.986  61.568 -58.397  1.00  0.00     0.210 C 
ENDBRANCH  15  19
ENDBRANCH  12  13
BRANCH  12  21
HETATM   21  O   UNL     1     -45.818  59.721 -55.559  1.00  0.00    -0.389 OA
HETATM   22  H   UNL     1     -45.625  59.439 -54.648  1.00  0.00     0.210 HD
ENDBRANCH  12  21
ENDBRANCH  11  12
ENDBRANCH   8  11
ENDBRANCH   1   7
BRANCH   2  23
HETATM   23  C   UNL     1     -41.243  55.444 -52.464  1.00  0.00     0.110 A 
HETATM   24  N   UNL     1     -40.998  54.703 -51.400  1.00  0.00    -0.233 NA
HETATM   25  C   UNL     1     -40.549  53.494 -51.875  1.00  0.00     0.087 A 
HETATM   26  C   UNL     1     -40.527  53.489 -53.264  1.00  0.00     0.062 A 
HETATM   27  C   UNL     1     -40.136  52.356 -51.170  1.00  0.00     0.057 A 
HETATM   28  N   UNL     1     -40.974  54.738 -53.614  1.00  0.00    -0.342 N 
HETATM   29  C   UNL     1     -40.112  52.392 -54.021  1.00  0.00     0.034 A 
HETATM   30  H   UNL     1     -41.070  55.085 -54.557  1.00  0.00     0.167 HD
HETATM   31  C   UNL     1     -39.701  51.260 -53.305  1.00  0.00     0.026 A 
HETATM   32  C   UNL     1     -39.713  51.247 -51.908  1.00  0.00     0.036 A 
HETATM   33 CL   UNL     1     -39.191  49.832 -51.073  1.00  0.00    -0.084 Cl
ENDBRANCH   2  23
TORSDOF 7
ENDMDL
MODEL 7
REMARK VINA RESULT:      -8.4      2.816      6.665
REMARK  7 active torsions:
REMARK  status: ('A' for Active; 'I' for Inactive)
REMARK    1  A    between atoms: O_2  and  C_3 
REMARK    2  A    between atoms: C_5  and  C_6 
REMARK    3  A    between atoms: C_6  and  O_7 
REMARK    4  A    between atoms: C_6  and  C_8 
REMARK    5  A    between atoms: C_8  and  N_9 
REMARK       I    between atoms: N_9  and  C_10 
REMARK    6  A    between atoms: C_10  and  C_11 
REMARK    7  A    between atoms: C_12  and  C_13 
ROOT
HETATM    1  C   UNL     1     -41.936  58.021 -58.403  1.00  0.00     0.089 C 
HETATM    2  C   UNL     1     -42.999  56.909 -58.225  1.00  0.00     0.068 C 
HETATM    3  C   UNL     1     -44.408  57.446 -58.507  1.00  0.00     0.013 C 
HETATM    4  C   UNL     1     -44.498  57.980 -59.938  1.00  0.00     0.001 C 
HETATM    5  C   UNL     1     -43.394  58.984 -60.267  1.00  0.00     0.001 C 
HETATM    6  C   UNL     1     -41.998  58.477 -59.880  1.00  0.00     0.015 C 
ENDROOT
BRANCH   1   7
HETATM    7  C   UNL     1     -42.031  59.271 -57.500  1.00  0.00     0.222 C 
HETATM    8  N   UNL     1     -42.886  59.208 -56.432  1.00  0.00    -0.358 N 
HETATM    9  H   UNL     1     -43.149  58.268 -56.130  1.00  0.00     0.162 HD
HETATM   10  O   UNL     1     -41.332  60.267 -57.689  1.00  0.00    -0.273 OA
BRANCH   8  11
HETATM   11  C   UNL     1     -42.918  60.235 -55.396  1.00  0.00     0.159 C 
BRANCH  11  12
HETATM   12  C   UNL     1     -43.721  59.836 -54.136  1.00  0.00     0.169 C 
BRANCH  12  13
HETATM   13  C   UNL     1     -42.821  59.219 -53.080  1.00  0.00    -0.025 A 
HETATM   14  C   UNL     1     -41.467  59.607 -53.010  1.00  0.00     0.046 A 
HETATM   15  C   UNL     1     -40.605  59.043 -52.067  1.00  0.00     0.068 A 
HETATM   16  C   UNL     1     -41.100  58.094 -51.171  1.00  0.00     0.037 A 
HETATM   17  C   UNL     1     -42.439  57.708 -51.216  1.00  0.00     0.003 A 
HETATM   18  C   UNL     1     -43.292  58.265 -52.167  1.00  0.00     0.010 A 
BRANCH  15  19
HETATM   19  O   UNL     1     -39.275  59.328 -51.919  1.00  0.00    -0.356 OA
HETATM   20  C   UNL     1     -38.797  59.504 -50.592  1.00  0.00     0.210 C 
ENDBRANCH  15  19
ENDBRANCH  12  13
BRANCH  12  21
HETATM   21  O   UNL     1     -44.757  58.922 -54.522  1.00  0.00    -0.389 OA
HETATM   22  H   UNL     1     -45.567  59.462 -54.523  1.00  0.00     0.210 HD
ENDBRANCH  12  21
ENDBRANCH  11  12
ENDBRANCH   8  11
ENDBRANCH   1   7
BRANCH   2  23
HETATM   23  C   UNL     1     -42.901  56.139 -56.939  1.00  0.00     0.110 A 
HETATM   24  N   UNL     1     -43.660  56.278 -55.869  1.00  0.00    -0.233 NA
HETATM   25  C   UNL     1     -43.142  55.424 -54.924  1.00  0.00     0.087 A 
HETATM   26  C   UNL     1     -42.046  54.738 -55.430  1.00  0.00     0.062 A 
HETATM   27  C   UNL     1     -43.559  55.192 -53.608  1.00  0.00     0.057 A 
HETATM   28  N   UNL     1     -41.913  55.207 -56.712  1.00  0.00    -0.342 N 
HETATM   29  C   UNL     1     -41.317  53.805 -54.690  1.00  0.00     0.034 A 
HETATM   30  H   UNL     1     -41.200  54.930 -57.370  1.00  0.00     0.167 HD
HETATM   31  C   UNL     1     -41.743  53.582 -53.374  1.00  0.00     0.026 A 
HETATM   32  C   UNL     1     -42.842  54.265 -52.847  1.00  0.00     0.036 A 
HETATM   33 CL   UNL     1     -43.322  53.960 -51.220  1.00  0.00    -0.084 Cl
ENDBRANCH   2  23
TORSDOF 7
ENDMDL
MODEL 8
REMARK VINA RESULT:      -8.3      3.365      7.633
REMARK  7 active torsions:
REMARK  status: ('A' for Active; 'I' for Inactive)
REMARK    1  A    between atoms: O_2  and  C_3 
REMARK    2  A    between atoms: C_5  and  C_6 
REMARK    3  A    between atoms: C_6  and  O_7 
REMARK    4  A    between atoms: C_6  and  C_8 
REMARK    5  A    between atoms: C_8  and  N_9 
REMARK       I    between atoms: N_9  and  C_10 
REMARK    6  A    between atoms: C_10  and  C_11 
REMARK    7  A    between atoms: C_12  and  C_13 
ROOT
HETATM    1  C   UNL     1     -40.971  58.566 -52.236  1.00  0.00     0.089 C 
HETATM    2  C   UNL     1     -41.893  59.519 -53.034  1.00  0.00     0.068 C 
HETATM    3  C   UNL     1     -43.031  60.047 -52.153  1.00  0.00     0.013 C 
HETATM    4  C   UNL     1     -42.466  60.809 -50.953  1.00  0.00     0.001 C 
HETATM    5  C   UNL     1     -41.426  60.005 -50.175  1.00  0.00     0.001 C 
HETATM    6  C   UNL     1     -40.352  59.391 -51.082  1.00  0.00     0.015 C 
ENDROOT
BRANCH   1   7
HETATM    7  C   UNL     1     -41.590  57.280 -51.641  1.00  0.00     0.222 C 
HETATM    8  N   UNL     1     -42.637  56.717 -52.322  1.00  0.00    -0.358 N 
HETATM    9  H   UNL     1     -42.724  56.989 -53.303  1.00  0.00     0.162 HD
HETATM   10  O   UNL     1     -41.136  56.744 -50.630  1.00  0.00    -0.273 OA
BRANCH   8  11
HETATM   11  C   UNL     1     -43.174  55.404 -51.980  1.00  0.00     0.159 C 
BRANCH  11  12
HETATM   12  C   UNL     1     -42.829  54.296 -53.002  1.00  0.00     0.169 C 
BRANCH  12  13
HETATM   13  C   UNL     1     -41.644  53.468 -52.537  1.00  0.00    -0.025 A 
HETATM   14  C   UNL     1     -40.970  52.643 -53.461  1.00  0.00     0.046 A 
HETATM   15  C   UNL     1     -39.892  51.849 -53.062  1.00  0.00     0.068 A 
HETATM   16  C   UNL     1     -39.467  51.891 -51.734  1.00  0.00     0.037 A 
HETATM   17  C   UNL     1     -40.112  52.711 -50.810  1.00  0.00     0.003 A 
HETATM   18  C   UNL     1     -41.196  53.492 -51.209  1.00  0.00     0.010 A 
BRANCH  15  19
HETATM   19  O   UNL     1     -39.177  51.001 -53.864  1.00  0.00    -0.356 OA
HETATM   20  C   UNL     1     -39.904  49.976 -54.527  1.00  0.00     0.210 C 
ENDBRANCH  15  19
ENDBRANCH  12  13
BRANCH  12  21
HETATM   21  O   UNL     1     -42.559  54.909 -54.271  1.00  0.00    -0.389 OA
HETATM   22  H   UNL     1     -43.345  54.707 -54.808  1.00  0.00     0.210 HD
ENDBRANCH  12  21
ENDBRANCH  11  12
ENDBRANCH   8  11
ENDBRANCH   1   7
BRANCH   2  23
HETATM   23  C   UNL     1     -42.363  58.986 -54.357  1.00  0.00     0.110 A 
HETATM   24  N   UNL     1     -41.957  57.886 -54.962  1.00  0.00    -0.233 NA
HETATM   25  C   UNL     1     -42.602  57.860 -56.176  1.00  0.00     0.087 A 
HETATM   26  C   UNL     1     -43.431  58.965 -56.315  1.00  0.00     0.062 A 
HETATM   27  C   UNL     1     -42.517  56.921 -57.211  1.00  0.00     0.057 A 
HETATM   28  N   UNL     1     -43.264  59.664 -55.147  1.00  0.00    -0.342 N 
HETATM   29  C   UNL     1     -44.209  59.203 -57.449  1.00  0.00     0.034 A 
HETATM   30  H   UNL     1     -43.712  60.539 -54.914  1.00  0.00     0.167 HD
HETATM   31  C   UNL     1     -44.116  58.257 -58.479  1.00  0.00     0.026 A 
HETATM   32  C   UNL     1     -43.285  57.140 -58.359  1.00  0.00     0.036 A 
HETATM   33 CL   UNL     1     -43.200  56.008 -59.656  1.00  0.00    -0.084 Cl
ENDBRANCH   2  23
TORSDOF 7
ENDMDL
MODEL 9
REMARK VINA RESULT:      -8.2      6.188      9.440
REMARK  7 active torsions:
REMARK  status: ('A' for Active; 'I' for Inactive)
REMARK    1  A    between atoms: O_2  and  C_3 
REMARK    2  A    between atoms: C_5  and  C_6 
REMARK    3  A    between atoms: C_6  and  O_7 
REMARK    4  A    between atoms: C_6  and  C_8 
REMARK    5  A    between atoms: C_8  and  N_9 
REMARK       I    between atoms: N_9  and  C_10 
REMARK    6  A    between atoms: C_10  and  C_11 
REMARK    7  A    between atoms: C_12  and  C_13 
ROOT
HETATM    1  C   UNL     1     -42.568  59.486 -52.337  1.00  0.00     0.089 C 
HETATM    2  C   UNL     1     -42.289  60.405 -51.124  1.00  0.00     0.068 C 
HETATM    3  C   UNL     1     -41.275  59.761 -50.170  1.00  0.00     0.013 C 
HETATM    4  C   UNL     1     -39.954  59.498 -50.895  1.00  0.00     0.001 C 
HETATM    5  C   UNL     1     -40.136  58.719 -52.196  1.00  0.00     0.001 C 
HETATM    6  C   UNL     1     -41.230  59.312 -53.094  1.00  0.00     0.015 C 
ENDROOT
BRANCH   1   7
HETATM    7  C   UNL     1     -43.166  58.086 -52.071  1.00  0.00     0.222 C 
HETATM    8  N   UNL     1     -42.812  57.080 -52.931  1.00  0.00    -0.358 N 
HETATM    9  H   UNL     1     -41.961  57.241 -53.474  1.00  0.00     0.162 HD
HETATM   10  O   UNL     1     -43.887  57.858 -51.099  1.00  0.00    -0.273 OA
BRANCH   8  11
HETATM   11  C   UNL     1     -43.143  55.682 -52.675  1.00  0.00     0.159 C 
BRANCH  11  12
HETATM   12  C   UNL     1     -42.190  54.980 -51.681  1.00  0.00     0.169 C 
BRANCH  12  13
HETATM   13  C   UNL     1     -41.409  53.867 -52.357  1.00  0.00    -0.025 A 
HETATM   14  C   UNL     1     -40.602  53.013 -51.577  1.00  0.00     0.046 A 
HETATM   15  C   UNL     1     -39.852  51.994 -52.170  1.00  0.00     0.068 A 
HETATM   16  C   UNL     1     -39.920  51.811 -53.551  1.00  0.00     0.037 A 
HETATM   17  C   UNL     1     -40.724  52.636 -54.336  1.00  0.00     0.003 A 
HETATM   18  C   UNL     1     -41.461  53.660 -53.743  1.00  0.00     0.010 A 
BRANCH  15  19
HETATM   19  O   UNL     1     -39.024  51.121 -51.518  1.00  0.00    -0.356 OA
HETATM   20  C   UNL     1     -39.610  49.924 -51.025  1.00  0.00     0.210 C 
ENDBRANCH  15  19
ENDBRANCH  12  13
BRANCH  12  21
HETATM   21  O   UNL     1     -42.963  54.470 -50.585  1.00  0.00    -0.389 OA
HETATM   22  H   UNL     1     -43.144  53.545 -50.827  1.00  0.00     0.210 HD
ENDBRANCH  12  21
ENDBRANCH  11  12
ENDBRANCH   8  11
ENDBRANCH   1   7
BRANCH   2  23
HETATM   23  C   UNL     1     -43.514  60.926 -50.427  1.00  0.00     0.110 A 
HETATM   24  N   UNL     1     -44.417  61.752 -50.918  1.00  0.00    -0.233 NA
HETATM   25  C   UNL     1     -45.296  62.006 -49.891  1.00  0.00     0.087 A 
HETATM   26  C   UNL     1     -44.928  61.311 -48.746  1.00  0.00     0.062 A 
HETATM   27  C   UNL     1     -46.428  62.829 -49.870  1.00  0.00     0.057 A 
HETATM   28  N   UNL     1     -43.794  60.631 -49.112  1.00  0.00    -0.342 N 
HETATM   29  C   UNL     1     -45.636  61.381 -47.545  1.00  0.00     0.034 A 
HETATM   30  H   UNL     1     -43.248  60.031 -48.511  1.00  0.00     0.167 HD
HETATM   31  C   UNL     1     -46.767  62.208 -47.536  1.00  0.00     0.026 A 
HETATM   32  C   UNL     1     -47.152  62.917 -48.676  1.00  0.00     0.036 A 
HETATM   33 CL   UNL     1     -48.547  63.926 -48.611  1.00  0.00    -0.084 Cl
ENDBRANCH   2  23
TORSDOF 7
ENDMDL
MODEL 10
REMARK VINA RESULT:      -8.2      3.826      7.162
REMARK  7 active torsions:
REMARK  status: ('A' for Active; 'I' for Inactive)
REMARK    1  A    between atoms: O_2  and  C_3 
REMARK    2  A    between atoms: C_5  and  C_6 
REMARK    3  A    between atoms: C_6  and  O_7 
REMARK    4  A    between atoms: C_6  and  C_8 
REMARK    5  A    between atoms: C_8  and  N_9 
REMARK       I    between atoms: N_9  and  C_10 
REMARK    6  A    between atoms: C_10  and  C_11 
REMARK    7  A    between atoms: C_12  and  C_13 
ROOT
HETATM    1  C   UNL     1     -42.483  60.520 -51.648  1.00  0.00     0.089 C 
HETATM    2  C   UNL     1     -43.730  60.433 -52.560  1.00  0.00     0.068 C 
HETATM    3  C   UNL     1     -44.950  59.932 -51.776  1.00  0.00     0.013 C 
HETATM    4  C   UNL     1     -45.261  60.878 -50.615  1.00  0.00     0.001 C 
HETATM    5  C   UNL     1     -44.047  61.151 -49.729  1.00  0.00     0.001 C 
HETATM    6  C   UNL     1     -42.803  61.547 -50.536  1.00  0.00     0.015 C 
ENDROOT
BRANCH   1   7
HETATM    7  C   UNL     1     -41.973  59.221 -50.983  1.00  0.00     0.222 C 
HETATM    8  N   UNL     1     -42.435  58.035 -51.490  1.00  0.00    -0.358 N 
HETATM    9  H   UNL     1     -42.815  58.077 -52.438  1.00  0.00     0.162 HD
HETATM   10  O   UNL     1     -41.145  59.236 -50.072  1.00  0.00    -0.273 OA
BRANCH   8  11
HETATM   11  C   UNL     1     -41.881  56.746 -51.089  1.00  0.00     0.159 C 
BRANCH  11  12
HETATM   12  C   UNL     1     -42.602  55.529 -51.713  1.00  0.00     0.169 C 
BRANCH  12  13
HETATM   13  C   UNL     1     -41.789  54.927 -52.845  1.00  0.00    -0.025 A 
HETATM   14  C   UNL     1     -41.729  53.525 -52.988  1.00  0.00     0.046 A 
HETATM   15  C   UNL     1     -40.971  52.937 -54.003  1.00  0.00     0.068 A 
HETATM   16  C   UNL     1     -40.279  53.753 -54.898  1.00  0.00     0.037 A 
HETATM   17  C   UNL     1     -40.337  55.141 -54.781  1.00  0.00     0.003 A 
HETATM   18  C   UNL     1     -41.085  55.723 -53.759  1.00  0.00     0.010 A 
BRANCH  15  19
HETATM   19  O   UNL     1     -40.827  51.595 -54.225  1.00  0.00    -0.356 OA
HETATM   20  C   UNL     1     -39.578  51.015 -53.873  1.00  0.00     0.210 C 
ENDBRANCH  15  19
ENDBRANCH  12  13
BRANCH  12  21
HETATM   21  O   UNL     1     -43.894  55.947 -52.177  1.00  0.00    -0.389 OA
HETATM   22  H   UNL     1     -43.751  56.181 -53.111  1.00  0.00     0.210 HD
ENDBRANCH  12  21
ENDBRANCH  11  12
ENDBRANCH   8  11
ENDBRANCH   1   7
BRANCH   2  23
HETATM   23  C   UNL     1     -43.518  59.706 -53.857  1.00  0.00     0.110 A 
HETATM   24  N   UNL     1     -43.911  58.483 -54.158  1.00  0.00    -0.233 NA
HETATM   25  C   UNL     1     -43.418  58.225 -55.415  1.00  0.00     0.087 A 
HETATM   26  C   UNL     1     -42.713  59.319 -55.901  1.00  0.00     0.062 A 
HETATM   27  C   UNL     1     -43.530  57.069 -56.197  1.00  0.00     0.057 A 
HETATM   28  N   UNL     1     -42.793  60.248 -54.895  1.00  0.00    -0.342 N 
HETATM   29  C   UNL     1     -42.098  59.341 -57.154  1.00  0.00     0.034 A 
HETATM   30  H   UNL     1     -42.373  61.166 -54.906  1.00  0.00     0.167 HD
HETATM   31  C   UNL     1     -42.217  58.178 -57.927  1.00  0.00     0.026 A 
HETATM   32  C   UNL     1     -42.918  57.066 -57.454  1.00  0.00     0.036 A 
HETATM   33 CL   UNL     1     -43.030  55.658 -58.441  1.00  0.00    -0.084 Cl
ENDBRANCH   2  23
TORSDOF 7
ENDMDL
