MODEL 1
REMARK VINA RESULT:      -9.4      0.000      0.000
REMARK  7 active torsions:
REMARK  status: ('A' for Active; 'I' for Inactive)
REMARK    1  A    between atoms: C_7  and  C_8 
REMARK    2  A    between atoms: C_8  and  C_9 
REMARK       I    between atoms: C_9  and  N_10 
REMARK    3  A    between atoms: N_10  and  N_11 
REMARK       I    between atoms: N_11  and  C_12 
REMARK    4  A    between atoms: C_12  and  C_13 
REMARK    5  A    between atoms: C_23  and  O_24 
REMARK    6  A    between atoms: O_24  and  C_25 
REMARK    7  A    between atoms: C_25  and  C_26 
ROOT
HETATM    1  C   UNL     1     -45.409  59.325 -51.112  1.00  0.00     0.068 C 
HETATM    2  C   UNL     1     -44.451  58.189 -51.144  1.00  0.00     0.013 A 
HETATM    3  N   UNL     1     -44.815  56.932 -50.731  1.00  0.00    -0.359 N 
HETATM    4  H   UNL     1     -45.728  56.676 -50.381  1.00  0.00     0.166 HD
HETATM    5  C   UNL     1     -43.766  56.056 -50.867  1.00  0.00     0.043 A 
HETATM    6  C   UNL     1     -42.690  56.778 -51.376  1.00  0.00     0.002 A 
HETATM    7  C   UNL     1     -43.123  58.135 -51.541  1.00  0.00    -0.015 A 
HETATM    8  C   UNL     1     -43.690  54.689 -50.580  1.00  0.00     0.033 A 
HETATM    9  C   UNL     1     -42.478  54.033 -50.831  1.00  0.00     0.039 A 
HETATM   10  C   UNL     1     -41.381  54.720 -51.350  1.00  0.00     0.070 A 
HETATM   11  C   UNL     1     -41.480  56.094 -51.615  1.00  0.00     0.051 A 
ENDROOT
BRANCH   7  12
HETATM   12  C   UNL     1     -42.296  59.275 -52.055  1.00  0.00     0.146 C 
BRANCH  12  13
HETATM   13  C   UNL     1     -42.042  59.225 -53.550  1.00  0.00     0.240 C 
HETATM   14  N   UNL     1     -43.108  58.828 -54.335  1.00  0.00    -0.267 N 
HETATM   15  H   UNL     1     -43.871  58.266 -53.951  1.00  0.00     0.190 HD
HETATM   16  O   UNL     1     -40.978  59.601 -54.049  1.00  0.00    -0.272 OA
BRANCH  14  17
HETATM   17  N   UNL     1     -42.865  58.674 -55.711  1.00  0.00    -0.263 N 
HETATM   18  C   UNL     1     -43.203  57.470 -56.297  1.00  0.00     0.270 C 
HETATM   19  O   UNL     1     -43.798  56.581 -55.694  1.00  0.00    -0.266 OA
HETATM   20  H   UNL     1     -42.146  59.287 -56.088  1.00  0.00     0.190 HD
BRANCH  18  21
HETATM   21  C   UNL     1     -42.788  57.276 -57.714  1.00  0.00     0.036 A 
HETATM   22  C   UNL     1     -43.128  56.076 -58.340  1.00  0.00     0.036 A 
HETATM   23  C   UNL     1     -42.748  55.895 -59.656  1.00  0.00     0.117 A 
HETATM   24  N   UNL     1     -42.072  56.817 -60.373  1.00  0.00    -0.273 NA
HETATM   25  C   UNL     1     -41.769  57.976 -59.751  1.00  0.00     0.117 A 
HETATM   26  C   UNL     1     -42.104  58.255 -58.437  1.00  0.00     0.036 A 
ENDBRANCH  18  21
ENDBRANCH  14  17
ENDBRANCH  12  13
ENDBRANCH   7  12
BRANCH  10  27
HETATM   27  O   UNL     1     -40.159  54.178 -51.646  1.00  0.00    -0.347 OA
BRANCH  27  28
HETATM   28  C   UNL     1     -39.851  52.909 -51.066  1.00  0.00     0.214 C 
BRANCH  28  29
HETATM   29  C   UNL     1     -39.832  51.821 -52.120  1.00  0.00    -0.034 A 
HETATM   30  C   UNL     1     -39.554  50.483 -51.803  1.00  0.00     0.009 A 
HETATM   31  C   UNL     1     -39.574  49.498 -52.795  1.00  0.00     0.001 A 
HETATM   32  C   UNL     1     -39.885  49.836 -54.109  1.00  0.00     0.000 A 
HETATM   33  C   UNL     1     -40.177  51.158 -54.436  1.00  0.00     0.001 A 
HETATM   34  C   UNL     1     -40.155  52.144 -53.447  1.00  0.00     0.009 A 
ENDBRANCH  28  29
ENDBRANCH  27  28
ENDBRANCH  10  27
TORSDOF 7
ENDMDL
MODEL 2
REMARK VINA RESULT:      -8.7      1.808      2.489
REMARK  7 active torsions:
REMARK  status: ('A' for Active; 'I' for Inactive)
REMARK    1  A    between atoms: C_7  and  C_8 
REMARK    2  A    between atoms: C_8  and  C_9 
REMARK       I    between atoms: C_9  and  N_10 
REMARK    3  A    between atoms: N_10  and  N_11 
REMARK       I    between atoms: N_11  and  C_12 
REMARK    4  A    between atoms: C_12  and  C_13 
REMARK    5  A    between atoms: C_23  and  O_24 
REMARK    6  A    between atoms: O_24  and  C_25 
REMARK    7  A    between atoms: C_25  and  C_26 
ROOT
HETATM    1  C   UNL     1     -42.640  60.764 -51.428  1.00  0.00     0.068 C 
HETATM    2  C   UNL     1     -42.465  59.322 -51.741  1.00  0.00     0.013 A 
HETATM    3  N   UNL     1     -42.517  58.364 -50.759  1.00  0.00    -0.359 N 
HETATM    4  H   UNL     1     -42.670  58.545 -49.776  1.00  0.00     0.166 HD
HETATM    5  C   UNL     1     -42.339  57.112 -51.296  1.00  0.00     0.043 A 
HETATM    6  C   UNL     1     -42.159  57.274 -52.667  1.00  0.00     0.002 A 
HETATM    7  C   UNL     1     -42.227  58.678 -52.946  1.00  0.00    -0.015 A 
HETATM    8  C   UNL     1     -42.327  55.858 -50.675  1.00  0.00     0.033 A 
HETATM    9  C   UNL     1     -42.133  54.730 -51.482  1.00  0.00     0.039 A 
HETATM   10  C   UNL     1     -41.958  54.851 -52.860  1.00  0.00     0.070 A 
HETATM   11  C   UNL     1     -41.961  56.121 -53.455  1.00  0.00     0.051 A 
ENDROOT
BRANCH   7  12
HETATM   12  C   UNL     1     -42.080  59.325 -54.290  1.00  0.00     0.146 C 
BRANCH  12  13
HETATM   13  C   UNL     1     -43.101  58.860 -55.312  1.00  0.00     0.240 C 
HETATM   14  N   UNL     1     -42.595  58.246 -56.442  1.00  0.00    -0.267 N 
HETATM   15  H   UNL     1     -41.635  58.411 -56.752  1.00  0.00     0.190 HD
HETATM   16  O   UNL     1     -44.316  58.942 -55.111  1.00  0.00    -0.272 OA
BRANCH  14  17
HETATM   17  N   UNL     1     -43.514  57.901 -57.448  1.00  0.00    -0.263 N 
HETATM   18  C   UNL     1     -43.567  56.581 -57.851  1.00  0.00     0.270 C 
HETATM   19  O   UNL     1     -42.928  55.691 -57.298  1.00  0.00    -0.266 OA
HETATM   20  H   UNL     1     -43.797  58.673 -58.049  1.00  0.00     0.190 HD
BRANCH  18  21
HETATM   21  C   UNL     1     -44.429  56.276 -59.026  1.00  0.00     0.036 A 
HETATM   22  C   UNL     1     -44.071  55.202 -59.843  1.00  0.00     0.036 A 
HETATM   23  C   UNL     1     -44.871  54.912 -60.931  1.00  0.00     0.117 A 
HETATM   24  N   UNL     1     -45.985  55.606 -61.246  1.00  0.00    -0.273 NA
HETATM   25  C   UNL     1     -46.320  56.629 -60.431  1.00  0.00     0.117 A 
HETATM   26  C   UNL     1     -45.587  57.000 -59.317  1.00  0.00     0.036 A 
ENDBRANCH  18  21
ENDBRANCH  14  17
ENDBRANCH  12  13
ENDBRANCH   7  12
BRANCH  10  27
HETATM   27  O   UNL     1     -41.777  53.819 -53.741  1.00  0.00    -0.347 OA
BRANCH  27  28
HETATM   28  C   UNL     1     -40.431  53.436 -54.030  1.00  0.00     0.214 C 
BRANCH  28  29
HETATM   29  C   UNL     1     -40.135  52.048 -53.502  1.00  0.00    -0.034 A 
HETATM   30  C   UNL     1     -40.109  50.922 -54.338  1.00  0.00     0.009 A 
HETATM   31  C   UNL     1     -39.802  49.660 -53.823  1.00  0.00     0.001 A 
HETATM   32  C   UNL     1     -39.506  49.510 -52.471  1.00  0.00     0.000 A 
HETATM   33  C   UNL     1     -39.513  50.620 -51.631  1.00  0.00     0.001 A 
HETATM   34  C   UNL     1     -39.822  51.882 -52.143  1.00  0.00     0.009 A 
ENDBRANCH  28  29
ENDBRANCH  27  28
ENDBRANCH  10  27
TORSDOF 7
ENDMDL
MODEL 3
REMARK VINA RESULT:      -8.7      1.557      2.292
REMARK  7 active torsions:
REMARK  status: ('A' for Active; 'I' for Inactive)
REMARK    1  A    between atoms: C_7  and  C_8 
REMARK    2  A    between atoms: C_8  and  C_9 
REMARK       I    between atoms: C_9  and  N_10 
REMARK    3  A    between atoms: N_10  and  N_11 
REMARK       I    between atoms: N_11  and  C_12 
REMARK    4  A    between atoms: C_12  and  C_13 
REMARK    5  A    between atoms: C_23  and  O_24 
REMARK    6  A    between atoms: O_24  and  C_25 
REMARK    7  A    between atoms: C_25  and  C_26 
ROOT
HETATM    1  C   UNL     1     -44.097  61.067 -51.030  1.00  0.00     0.068 C 
HETATM    2  C   UNL     1     -43.438  59.738 -51.137  1.00  0.00     0.013 A 
HETATM    3  N   UNL     1     -42.216  59.496 -50.562  1.00  0.00    -0.359 N 
HETATM    4  H   UNL     1     -41.675  60.170 -50.038  1.00  0.00     0.166 HD
HETATM    5  C   UNL     1     -41.824  58.198 -50.787  1.00  0.00     0.043 A 
HETATM    6  C   UNL     1     -42.827  57.592 -51.539  1.00  0.00     0.002 A 
HETATM    7  C   UNL     1     -43.845  58.573 -51.771  1.00  0.00    -0.015 A 
HETATM    8  C   UNL     1     -40.668  57.523 -50.383  1.00  0.00     0.033 A 
HETATM    9  C   UNL     1     -40.534  56.177 -50.751  1.00  0.00     0.039 A 
HETATM   10  C   UNL     1     -41.520  55.533 -51.496  1.00  0.00     0.070 A 
HETATM   11  C   UNL     1     -42.663  56.237 -51.900  1.00  0.00     0.051 A 
ENDROOT
BRANCH   7  12
HETATM   12  C   UNL     1     -45.113  58.373 -52.544  1.00  0.00     0.146 C 
BRANCH  12  13
HETATM   13  C   UNL     1     -44.911  58.287 -54.046  1.00  0.00     0.240 C 
HETATM   14  N   UNL     1     -44.870  57.014 -54.582  1.00  0.00    -0.267 N 
HETATM   15  H   UNL     1     -44.624  56.203 -54.009  1.00  0.00     0.190 HD
HETATM   16  O   UNL     1     -44.874  59.291 -54.762  1.00  0.00    -0.272 OA
BRANCH  14  17
HETATM   17  N   UNL     1     -44.580  56.907 -55.953  1.00  0.00    -0.263 N 
HETATM   18  C   UNL     1     -43.273  56.655 -56.320  1.00  0.00     0.270 C 
HETATM   19  O   UNL     1     -42.387  56.416 -55.503  1.00  0.00    -0.266 OA
HETATM   20  H   UNL     1     -45.244  57.375 -56.566  1.00  0.00     0.190 HD
BRANCH  18  21
HETATM   21  C   UNL     1     -42.965  56.709 -57.775  1.00  0.00     0.036 A 
HETATM   22  C   UNL     1     -42.204  57.780 -58.247  1.00  0.00     0.036 A 
HETATM   23  C   UNL     1     -41.912  57.831 -59.597  1.00  0.00     0.117 A 
HETATM   24  N   UNL     1     -42.317  56.898 -60.485  1.00  0.00    -0.273 NA
HETATM   25  C   UNL     1     -43.037  55.864 -60.002  1.00  0.00     0.117 A 
HETATM   26  C   UNL     1     -43.382  55.720 -58.669  1.00  0.00     0.036 A 
ENDBRANCH  18  21
ENDBRANCH  14  17
ENDBRANCH  12  13
ENDBRANCH   7  12
BRANCH  10  27
HETATM   27  O   UNL     1     -41.498  54.223 -51.896  1.00  0.00    -0.347 OA
BRANCH  27  28
HETATM   28  C   UNL     1     -40.704  53.903 -53.039  1.00  0.00     0.214 C 
BRANCH  28  29
HETATM   29  C   UNL     1     -40.337  52.433 -53.053  1.00  0.00    -0.034 A 
HETATM   30  C   UNL     1     -40.361  51.670 -54.229  1.00  0.00     0.009 A 
HETATM   31  C   UNL     1     -39.987  50.324 -54.212  1.00  0.00     0.001 A 
HETATM   32  C   UNL     1     -39.573  49.729 -53.024  1.00  0.00     0.000 A 
HETATM   33  C   UNL     1     -39.530  50.477 -51.850  1.00  0.00     0.001 A 
HETATM   34  C   UNL     1     -39.906  51.822 -51.865  1.00  0.00     0.009 A 
ENDBRANCH  28  29
ENDBRANCH  27  28
ENDBRANCH  10  27
TORSDOF 7
ENDMDL
MODEL 4
REMARK VINA RESULT:      -8.4      3.079      6.656
REMARK  7 active torsions:
REMARK  status: ('A' for Active; 'I' for Inactive)
REMARK    1  A    between atoms: C_7  and  C_8 
REMARK    2  A    between atoms: C_8  and  C_9 
REMARK       I    between atoms: C_9  and  N_10 
REMARK    3  A    between atoms: N_10  and  N_11 
REMARK       I    between atoms: N_11  and  C_12 
REMARK    4  A    between atoms: C_12  and  C_13 
REMARK    5  A    between atoms: C_23  and  O_24 
REMARK    6  A    between atoms: O_24  and  C_25 
REMARK    7  A    between atoms: C_25  and  C_26 
ROOT
HETATM    1  C   UNL     1     -42.327  59.773 -55.373  1.00  0.00     0.068 C 
HETATM    2  C   UNL     1     -42.257  58.498 -54.612  1.00  0.00     0.013 A 
HETATM    3  N   UNL     1     -42.936  57.379 -55.024  1.00  0.00    -0.359 N 
HETATM    4  H   UNL     1     -43.521  57.322 -55.846  1.00  0.00     0.166 HD
HETATM    5  C   UNL     1     -42.704  56.330 -54.166  1.00  0.00     0.043 A 
HETATM    6  C   UNL     1     -41.855  56.797 -53.166  1.00  0.00     0.002 A 
HETATM    7  C   UNL     1     -41.582  58.176 -53.444  1.00  0.00    -0.015 A 
HETATM    8  C   UNL     1     -43.178  55.014 -54.203  1.00  0.00     0.033 A 
HETATM    9  C   UNL     1     -42.764  54.141 -53.188  1.00  0.00     0.039 A 
HETATM   10  C   UNL     1     -41.907  54.569 -52.175  1.00  0.00     0.070 A 
HETATM   11  C   UNL     1     -41.458  55.897 -52.154  1.00  0.00     0.051 A 
ENDROOT
BRANCH   7  12
HETATM   12  C   UNL     1     -40.720  59.092 -52.628  1.00  0.00     0.146 C 
BRANCH  12  13
HETATM   13  C   UNL     1     -41.297  59.429 -51.266  1.00  0.00     0.240 C 
HETATM   14  N   UNL     1     -42.557  59.999 -51.263  1.00  0.00    -0.267 N 
HETATM   15  H   UNL     1     -42.919  60.492 -52.083  1.00  0.00     0.190 HD
HETATM   16  O   UNL     1     -40.721  59.133 -50.216  1.00  0.00    -0.272 OA
BRANCH  14  17
HETATM   17  N   UNL     1     -43.067  60.415 -50.022  1.00  0.00    -0.263 N 
HETATM   18  C   UNL     1     -44.027  61.408 -50.016  1.00  0.00     0.270 C 
HETATM   19  O   UNL     1     -44.522  61.859 -51.045  1.00  0.00    -0.266 OA
HETATM   20  H   UNL     1     -42.455  60.235 -49.228  1.00  0.00     0.190 HD
BRANCH  18  21
HETATM   21  C   UNL     1     -44.430  61.941 -48.686  1.00  0.00     0.036 A 
HETATM   22  C   UNL     1     -44.578  63.322 -48.548  1.00  0.00     0.036 A 
HETATM   23  C   UNL     1     -44.956  63.820 -47.316  1.00  0.00     0.117 A 
HETATM   24  N   UNL     1     -45.197  63.044 -46.238  1.00  0.00    -0.273 NA
HETATM   25  C   UNL     1     -45.064  61.711 -46.401  1.00  0.00     0.117 A 
HETATM   26  C   UNL     1     -44.690  61.113 -47.592  1.00  0.00     0.036 A 
ENDBRANCH  18  21
ENDBRANCH  14  17
ENDBRANCH  12  13
ENDBRANCH   7  12
BRANCH  10  27
HETATM   27  O   UNL     1     -41.430  53.799 -51.148  1.00  0.00    -0.347 OA
BRANCH  27  28
HETATM   28  C   UNL     1     -40.062  53.394 -51.218  1.00  0.00     0.214 C 
BRANCH  28  29
HETATM   29  C   UNL     1     -39.927  52.048 -51.900  1.00  0.00    -0.034 A 
HETATM   30  C   UNL     1     -39.914  51.920 -53.297  1.00  0.00     0.009 A 
HETATM   31  C   UNL     1     -39.758  50.667 -53.894  1.00  0.00     0.001 A 
HETATM   32  C   UNL     1     -39.600  49.531 -53.105  1.00  0.00     0.000 A 
HETATM   33  C   UNL     1     -39.596  49.644 -51.717  1.00  0.00     0.001 A 
HETATM   34  C   UNL     1     -39.755  50.896 -51.118  1.00  0.00     0.009 A 
ENDBRANCH  28  29
ENDBRANCH  27  28
ENDBRANCH  10  27
TORSDOF 7
ENDMDL
MODEL 5
REMARK VINA RESULT:      -8.3      2.660      7.365
REMARK  7 active torsions:
REMARK  status: ('A' for Active; 'I' for Inactive)
REMARK    1  A    between atoms: C_7  and  C_8 
REMARK    2  A    between atoms: C_8  and  C_9 
REMARK       I    between atoms: C_9  and  N_10 
REMARK    3  A    between atoms: N_10  and  N_11 
REMARK       I    between atoms: N_11  and  C_12 
REMARK    4  A    between atoms: C_12  and  C_13 
REMARK    5  A    between atoms: C_23  and  O_24 
REMARK    6  A    between atoms: O_24  and  C_25 
REMARK    7  A    between atoms: C_25  and  C_26 
ROOT
HETATM    1  C   UNL     1     -40.851  58.802 -50.307  1.00  0.00     0.068 C 
HETATM    2  C   UNL     1     -41.543  58.713 -51.620  1.00  0.00     0.013 A 
HETATM    3  N   UNL     1     -41.157  59.484 -52.687  1.00  0.00    -0.359 N 
HETATM    4  H   UNL     1     -40.400  60.154 -52.679  1.00  0.00     0.166 HD
HETATM    5  C   UNL     1     -41.937  59.213 -53.786  1.00  0.00     0.043 A 
HETATM    6  C   UNL     1     -42.859  58.242 -53.406  1.00  0.00     0.002 A 
HETATM    7  C   UNL     1     -42.616  57.934 -52.027  1.00  0.00    -0.015 A 
HETATM    8  C   UNL     1     -41.893  59.750 -55.077  1.00  0.00     0.033 A 
HETATM    9  C   UNL     1     -42.817  59.274 -56.016  1.00  0.00     0.039 A 
HETATM   10  C   UNL     1     -43.750  58.296 -55.676  1.00  0.00     0.070 A 
HETATM   11  C   UNL     1     -43.781  57.784 -54.370  1.00  0.00     0.051 A 
ENDROOT
BRANCH   7  12
HETATM   12  C   UNL     1     -43.374  56.948 -51.190  1.00  0.00     0.146 C 
BRANCH  12  13
HETATM   13  C   UNL     1     -42.706  55.589 -51.085  1.00  0.00     0.240 C 
HETATM   14  N   UNL     1     -42.035  55.152 -52.212  1.00  0.00    -0.267 N 
HETATM   15  H   UNL     1     -42.266  55.513 -53.141  1.00  0.00     0.190 HD
HETATM   16  O   UNL     1     -42.684  54.947 -50.032  1.00  0.00    -0.272 OA
BRANCH  14  17
HETATM   17  N   UNL     1     -41.499  53.854 -52.174  1.00  0.00    -0.263 N 
HETATM   18  C   UNL     1     -40.665  53.467 -53.204  1.00  0.00     0.270 C 
HETATM   19  O   UNL     1     -40.294  54.240 -54.084  1.00  0.00    -0.266 OA
HETATM   20  H   UNL     1     -42.033  53.189 -51.618  1.00  0.00     0.190 HD
BRANCH  18  21
HETATM   21  C   UNL     1     -40.244  52.040 -53.223  1.00  0.00     0.036 A 
HETATM   22  C   UNL     1     -39.785  51.474 -52.032  1.00  0.00     0.036 A 
HETATM   23  C   UNL     1     -39.398  50.148 -52.045  1.00  0.00     0.117 A 
HETATM   24  N   UNL     1     -39.445  49.365 -53.144  1.00  0.00    -0.273 NA
HETATM   25  C   UNL     1     -39.909  49.930 -54.279  1.00  0.00     0.117 A 
HETATM   26  C   UNL     1     -40.321  51.248 -54.371  1.00  0.00     0.036 A 
ENDBRANCH  18  21
ENDBRANCH  14  17
ENDBRANCH  12  13
ENDBRANCH   7  12
BRANCH  10  27
HETATM   27  O   UNL     1     -44.685  57.749 -56.515  1.00  0.00    -0.347 OA
BRANCH  27  28
HETATM   28  C   UNL     1     -44.701  58.216 -57.865  1.00  0.00     0.214 C 
BRANCH  28  29
HETATM   29  C   UNL     1     -44.858  57.064 -58.836  1.00  0.00    -0.034 A 
HETATM   30  C   UNL     1     -45.992  56.926 -59.650  1.00  0.00     0.009 A 
HETATM   31  C   UNL     1     -46.091  55.868 -60.558  1.00  0.00     0.001 A 
HETATM   32  C   UNL     1     -45.055  54.946 -60.672  1.00  0.00     0.000 A 
HETATM   33  C   UNL     1     -43.916  55.078 -59.882  1.00  0.00     0.001 A 
HETATM   34  C   UNL     1     -43.816  56.134 -58.972  1.00  0.00     0.009 A 
ENDBRANCH  28  29
ENDBRANCH  27  28
ENDBRANCH  10  27
TORSDOF 7
ENDMDL
MODEL 6
REMARK VINA RESULT:      -8.2      2.648      6.405
REMARK  7 active torsions:
REMARK  status: ('A' for Active; 'I' for Inactive)
REMARK    1  A    between atoms: C_7  and  C_8 
REMARK    2  A    between atoms: C_8  and  C_9 
REMARK       I    between atoms: C_9  and  N_10 
REMARK    3  A    between atoms: N_10  and  N_11 
REMARK       I    between atoms: N_11  and  C_12 
REMARK    4  A    between atoms: C_12  and  C_13 
REMARK    5  A    between atoms: C_23  and  O_24 
REMARK    6  A    between atoms: O_24  and  C_25 
REMARK    7  A    between atoms: C_25  and  C_26 
ROOT
HETATM    1  C   UNL     1     -40.385  53.732 -48.359  1.00  0.00     0.068 C 
HETATM    2  C   UNL     1     -40.673  53.642 -49.814  1.00  0.00     0.013 A 
HETATM    3  N   UNL     1     -39.825  52.991 -50.674  1.00  0.00    -0.359 N 
HETATM    4  H   UNL     1     -38.963  52.534 -50.408  1.00  0.00     0.166 HD
HETATM    5  C   UNL     1     -40.312  53.033 -51.958  1.00  0.00     0.043 A 
HETATM    6  C   UNL     1     -41.509  53.744 -51.920  1.00  0.00     0.002 A 
HETATM    7  C   UNL     1     -41.731  54.140 -50.561  1.00  0.00    -0.015 A 
HETATM    8  C   UNL     1     -39.786  52.499 -53.139  1.00  0.00     0.033 A 
HETATM    9  C   UNL     1     -40.513  52.688 -54.323  1.00  0.00     0.039 A 
HETATM   10  C   UNL     1     -41.719  53.385 -54.324  1.00  0.00     0.070 A 
HETATM   11  C   UNL     1     -42.217  53.923 -53.128  1.00  0.00     0.051 A 
ENDROOT
BRANCH   7  12
HETATM   12  C   UNL     1     -42.894  54.933 -50.046  1.00  0.00     0.146 C 
BRANCH  12  13
HETATM   13  C   UNL     1     -43.115  56.245 -50.776  1.00  0.00     0.240 C 
HETATM   14  N   UNL     1     -44.418  56.528 -51.137  1.00  0.00    -0.267 N 
HETATM   15  H   UNL     1     -45.113  55.785 -51.247  1.00  0.00     0.190 HD
HETATM   16  O   UNL     1     -42.203  57.057 -50.960  1.00  0.00    -0.272 OA
BRANCH  14  17
HETATM   17  N   UNL     1     -44.632  57.686 -51.905  1.00  0.00    -0.263 N 
HETATM   18  C   UNL     1     -45.451  58.667 -51.382  1.00  0.00     0.270 C 
HETATM   19  O   UNL     1     -45.906  58.615 -50.242  1.00  0.00    -0.266 OA
HETATM   20  H   UNL     1     -44.483  57.567 -52.905  1.00  0.00     0.190 HD
BRANCH  18  21
HETATM   21  C   UNL     1     -45.789  59.804 -52.281  1.00  0.00     0.036 A 
HETATM   22  C   UNL     1     -46.684  60.768 -51.813  1.00  0.00     0.036 A 
HETATM   23  C   UNL     1     -46.997  61.828 -52.643  1.00  0.00     0.117 A 
HETATM   24  N   UNL     1     -46.479  61.987 -53.879  1.00  0.00    -0.273 NA
HETATM   25  C   UNL     1     -45.603  61.052 -54.302  1.00  0.00     0.117 A 
HETATM   26  C   UNL     1     -45.224  59.954 -53.549  1.00  0.00     0.036 A 
ENDBRANCH  18  21
ENDBRANCH  14  17
ENDBRANCH  12  13
ENDBRANCH   7  12
BRANCH  10  27
HETATM   27  O   UNL     1     -42.515  53.614 -55.415  1.00  0.00    -0.347 OA
BRANCH  27  28
HETATM   28  C   UNL     1     -43.385  54.746 -55.362  1.00  0.00     0.214 C 
BRANCH  28  29
HETATM   29  C   UNL     1     -43.049  55.742 -56.452  1.00  0.00    -0.034 A 
HETATM   30  C   UNL     1     -43.214  55.441 -57.812  1.00  0.00     0.009 A 
HETATM   31  C   UNL     1     -42.923  56.394 -58.792  1.00  0.00     0.001 A 
HETATM   32  C   UNL     1     -42.478  57.661 -58.424  1.00  0.00     0.000 A 
HETATM   33  C   UNL     1     -42.323  57.980 -57.077  1.00  0.00     0.001 A 
HETATM   34  C   UNL     1     -42.611  57.028 -56.097  1.00  0.00     0.009 A 
ENDBRANCH  28  29
ENDBRANCH  27  28
ENDBRANCH  10  27
TORSDOF 7
ENDMDL
MODEL 7
REMARK VINA RESULT:      -8.0      2.525      6.698
REMARK  7 active torsions:
REMARK  status: ('A' for Active; 'I' for Inactive)
REMARK    1  A    between atoms: C_7  and  C_8 
REMARK    2  A    between atoms: C_8  and  C_9 
REMARK       I    between atoms: C_9  and  N_10 
REMARK    3  A    between atoms: N_10  and  N_11 
REMARK       I    between atoms: N_11  and  C_12 
REMARK    4  A    between atoms: C_12  and  C_13 
REMARK    5  A    between atoms: C_23  and  O_24 
REMARK    6  A    between atoms: O_24  and  C_25 
REMARK    7  A    between atoms: C_25  and  C_26 
ROOT
HETATM    1  C   UNL     1     -45.565  57.237 -59.177  1.00  0.00     0.068 C 
HETATM    2  C   UNL     1     -45.011  57.690 -57.874  1.00  0.00     0.013 A 
HETATM    3  N   UNL     1     -45.642  58.647 -57.121  1.00  0.00    -0.359 N 
HETATM    4  H   UNL     1     -46.504  59.112 -57.372  1.00  0.00     0.166 HD
HETATM    5  C   UNL     1     -44.946  58.885 -55.960  1.00  0.00     0.043 A 
HETATM    6  C   UNL     1     -43.826  58.059 -55.976  1.00  0.00     0.002 A 
HETATM    7  C   UNL     1     -43.862  57.309 -57.197  1.00  0.00    -0.015 A 
HETATM    8  C   UNL     1     -45.223  59.763 -54.906  1.00  0.00     0.033 A 
HETATM    9  C   UNL     1     -44.331  59.791 -53.826  1.00  0.00     0.039 A 
HETATM   10  C   UNL     1     -43.204  58.972 -53.801  1.00  0.00     0.070 A 
HETATM   11  C   UNL     1     -42.942  58.111 -54.877  1.00  0.00     0.051 A 
ENDROOT
BRANCH   7  12
HETATM   12  C   UNL     1     -42.852  56.298 -57.648  1.00  0.00     0.146 C 
BRANCH  12  13
HETATM   13  C   UNL     1     -42.653  55.150 -56.675  1.00  0.00     0.240 C 
HETATM   14  N   UNL     1     -41.375  54.996 -56.170  1.00  0.00    -0.267 N 
HETATM   15  H   UNL     1     -40.560  55.363 -56.666  1.00  0.00     0.190 HD
HETATM   16  O   UNL     1     -43.590  54.449 -56.284  1.00  0.00    -0.272 OA
BRANCH  14  17
HETATM   17  N   UNL     1     -41.144  53.880 -55.349  1.00  0.00    -0.263 N 
HETATM   18  C   UNL     1     -40.698  54.104 -54.061  1.00  0.00     0.270 C 
HETATM   19  O   UNL     1     -40.602  55.229 -53.578  1.00  0.00    -0.266 OA
HETATM   20  H   UNL     1     -40.964  53.012 -55.850  1.00  0.00     0.190 HD
BRANCH  18  21
HETATM   21  C   UNL     1     -40.307  52.905 -53.270  1.00  0.00     0.036 A 
HETATM   22  C   UNL     1     -40.038  51.722 -53.961  1.00  0.00     0.036 A 
HETATM   23  C   UNL     1     -39.670  50.608 -53.230  1.00  0.00     0.117 A 
HETATM   24  N   UNL     1     -39.548  50.602 -51.886  1.00  0.00    -0.273 NA
HETATM   25  C   UNL     1     -39.796  51.763 -51.243  1.00  0.00     0.117 A 
HETATM   26  C   UNL     1     -40.171  52.932 -51.881  1.00  0.00     0.036 A 
ENDBRANCH  18  21
ENDBRANCH  14  17
ENDBRANCH  12  13
ENDBRANCH   7  12
BRANCH  10  27
HETATM   27  O   UNL     1     -42.279  58.908 -52.794  1.00  0.00    -0.347 OA
BRANCH  27  28
HETATM   28  C   UNL     1     -42.774  58.762 -51.462  1.00  0.00     0.214 C 
BRANCH  28  29
HETATM   29  C   UNL     1     -42.537  57.359 -50.944  1.00  0.00    -0.034 A 
HETATM   30  C   UNL     1     -41.338  56.988 -50.318  1.00  0.00     0.009 A 
HETATM   31  C   UNL     1     -41.164  55.692 -49.825  1.00  0.00     0.001 A 
HETATM   32  C   UNL     1     -42.189  54.757 -49.939  1.00  0.00     0.000 A 
HETATM   33  C   UNL     1     -43.391  55.115 -50.544  1.00  0.00     0.001 A 
HETATM   34  C   UNL     1     -43.566  56.409 -51.040  1.00  0.00     0.009 A 
ENDBRANCH  28  29
ENDBRANCH  27  28
ENDBRANCH  10  27
TORSDOF 7
ENDMDL
MODEL 8
REMARK VINA RESULT:      -7.9      1.725      2.212
REMARK  7 active torsions:
REMARK  status: ('A' for Active; 'I' for Inactive)
REMARK    1  A    between atoms: C_7  and  C_8 
REMARK    2  A    between atoms: C_8  and  C_9 
REMARK       I    between atoms: C_9  and  N_10 
REMARK    3  A    between atoms: N_10  and  N_11 
REMARK       I    between atoms: N_11  and  C_12 
REMARK    4  A    between atoms: C_12  and  C_13 
REMARK    5  A    between atoms: C_23  and  O_24 
REMARK    6  A    between atoms: O_24  and  C_25 
REMARK    7  A    between atoms: C_25  and  C_26 
ROOT
HETATM    1  C   UNL     1     -45.663  59.322 -51.365  1.00  0.00     0.068 C 
HETATM    2  C   UNL     1     -44.681  58.208 -51.432  1.00  0.00     0.013 A 
HETATM    3  N   UNL     1     -44.896  57.023 -50.774  1.00  0.00    -0.359 N 
HETATM    4  H   UNL     1     -45.705  56.810 -50.207  1.00  0.00     0.166 HD
HETATM    5  C   UNL     1     -43.858  56.150 -50.999  1.00  0.00     0.043 A 
HETATM    6  C   UNL     1     -42.944  56.803 -51.822  1.00  0.00     0.002 A 
HETATM    7  C   UNL     1     -43.462  58.113 -52.087  1.00  0.00    -0.015 A 
HETATM    8  C   UNL     1     -43.664  54.844 -50.539  1.00  0.00     0.033 A 
HETATM    9  C   UNL     1     -42.500  54.175 -50.942  1.00  0.00     0.039 A 
HETATM   10  C   UNL     1     -41.566  54.791 -51.772  1.00  0.00     0.070 A 
HETATM   11  C   UNL     1     -41.778  56.107 -52.208  1.00  0.00     0.051 A 
ENDROOT
BRANCH   7  12
HETATM   12  C   UNL     1     -42.811  59.173 -52.922  1.00  0.00     0.146 C 
BRANCH  12  13
HETATM   13  C   UNL     1     -43.277  59.191 -54.367  1.00  0.00     0.240 C 
HETATM   14  N   UNL     1     -42.462  58.544 -55.276  1.00  0.00    -0.267 N 
HETATM   15  H   UNL     1     -41.469  58.390 -55.085  1.00  0.00     0.190 HD
HETATM   16  O   UNL     1     -44.362  59.674 -54.701  1.00  0.00    -0.272 OA
BRANCH  14  17
HETATM   17  N   UNL     1     -42.818  58.636 -56.632  1.00  0.00    -0.263 N 
HETATM   18  C   UNL     1     -42.297  59.682 -57.369  1.00  0.00     0.270 C 
HETATM   19  O   UNL     1     -41.460  60.460 -56.919  1.00  0.00    -0.266 OA
HETATM   20  H   UNL     1     -43.692  58.172 -56.876  1.00  0.00     0.190 HD
BRANCH  18  21
HETATM   21  C   UNL     1     -42.818  59.849 -58.753  1.00  0.00     0.036 A 
HETATM   22  C   UNL     1     -41.902  59.834 -59.807  1.00  0.00     0.036 A 
HETATM   23  C   UNL     1     -42.382  59.984 -61.094  1.00  0.00     0.117 A 
HETATM   24  N   UNL     1     -43.690  60.137 -61.390  1.00  0.00    -0.273 NA
HETATM   25  C   UNL     1     -44.558  60.130 -60.357  1.00  0.00     0.117 A 
HETATM   26  C   UNL     1     -44.179  59.987 -59.033  1.00  0.00     0.036 A 
ENDBRANCH  18  21
ENDBRANCH  14  17
ENDBRANCH  12  13
ENDBRANCH   7  12
BRANCH  10  27
HETATM   27  O   UNL     1     -40.407  54.227 -52.237  1.00  0.00    -0.347 OA
BRANCH  27  28
HETATM   28  C   UNL     1     -39.847  53.161 -51.468  1.00  0.00     0.214 C 
BRANCH  28  29
HETATM   29  C   UNL     1     -39.809  51.875 -52.268  1.00  0.00    -0.034 A 
HETATM   30  C   UNL     1     -39.953  51.862 -53.663  1.00  0.00     0.009 A 
HETATM   31  C   UNL     1     -39.883  50.661 -54.373  1.00  0.00     0.001 A 
HETATM   32  C   UNL     1     -39.654  49.463 -53.701  1.00  0.00     0.000 A 
HETATM   33  C   UNL     1     -39.493  49.462 -52.318  1.00  0.00     0.001 A 
HETATM   34  C   UNL     1     -39.566  50.662 -51.606  1.00  0.00     0.009 A 
ENDBRANCH  28  29
ENDBRANCH  27  28
ENDBRANCH  10  27
TORSDOF 7
ENDMDL
MODEL 9
REMARK VINA RESULT:      -7.9      1.452      1.738
REMARK  7 active torsions:
REMARK  status: ('A' for Active; 'I' for Inactive)
REMARK    1  A    between atoms: C_7  and  C_8 
REMARK    2  A    between atoms: C_8  and  C_9 
REMARK       I    between atoms: C_9  and  N_10 
REMARK    3  A    between atoms: N_10  and  N_11 
REMARK       I    between atoms: N_11  and  C_12 
REMARK    4  A    between atoms: C_12  and  C_13 
REMARK    5  A    between atoms: C_23  and  O_24 
REMARK    6  A    between atoms: O_24  and  C_25 
REMARK    7  A    between atoms: C_25  and  C_26 
ROOT
HETATM    1  C   UNL     1     -44.559  60.125 -50.857  1.00  0.00     0.068 C 
HETATM    2  C   UNL     1     -44.068  58.772 -51.228  1.00  0.00     0.013 A 
HETATM    3  N   UNL     1     -44.470  57.651 -50.546  1.00  0.00    -0.359 N 
HETATM    4  H   UNL     1     -45.109  57.644 -49.762  1.00  0.00     0.166 HD
HETATM    5  C   UNL     1     -43.892  56.525 -51.083  1.00  0.00     0.043 A 
HETATM    6  C   UNL     1     -43.085  56.941 -52.138  1.00  0.00     0.002 A 
HETATM    7  C   UNL     1     -43.188  58.368 -52.222  1.00  0.00    -0.015 A 
HETATM    8  C   UNL     1     -44.024  55.182 -50.715  1.00  0.00     0.033 A 
HETATM    9  C   UNL     1     -43.315  54.228 -51.456  1.00  0.00     0.039 A 
HETATM   10  C   UNL     1     -42.504  54.604 -52.526  1.00  0.00     0.070 A 
HETATM   11  C   UNL     1     -42.378  55.960 -52.865  1.00  0.00     0.051 A 
ENDROOT
BRANCH   7  12
HETATM   12  C   UNL     1     -42.484  59.254 -53.206  1.00  0.00     0.146 C 
BRANCH  12  13
HETATM   13  C   UNL     1     -42.451  58.698 -54.618  1.00  0.00     0.240 C 
HETATM   14  N   UNL     1     -43.388  59.210 -55.495  1.00  0.00    -0.267 N 
HETATM   15  H   UNL     1     -44.255  59.635 -55.158  1.00  0.00     0.190 HD
HETATM   16  O   UNL     1     -41.584  57.903 -54.991  1.00  0.00    -0.272 OA
BRANCH  14  17
HETATM   17  N   UNL     1     -43.444  58.636 -56.777  1.00  0.00    -0.263 N 
HETATM   18  C   UNL     1     -44.588  57.946 -57.128  1.00  0.00     0.270 C 
HETATM   19  O   UNL     1     -45.586  57.907 -56.414  1.00  0.00    -0.266 OA
HETATM   20  H   UNL     1     -42.537  58.451 -57.201  1.00  0.00     0.190 HD
BRANCH  18  21
HETATM   21  C   UNL     1     -44.555  57.214 -58.424  1.00  0.00     0.036 A 
HETATM   22  C   UNL     1     -43.417  56.461 -58.725  1.00  0.00     0.036 A 
HETATM   23  C   UNL     1     -43.386  55.776 -59.924  1.00  0.00     0.117 A 
HETATM   24  N   UNL     1     -44.396  55.788 -60.819  1.00  0.00    -0.273 NA
HETATM   25  C   UNL     1     -45.491  56.508 -60.498  1.00  0.00     0.117 A 
HETATM   26  C   UNL     1     -45.622  57.229 -59.323  1.00  0.00     0.036 A 
ENDBRANCH  18  21
ENDBRANCH  14  17
ENDBRANCH  12  13
ENDBRANCH   7  12
BRANCH  10  27
HETATM   27  O   UNL     1     -41.782  53.758 -53.324  1.00  0.00    -0.347 OA
BRANCH  27  28
HETATM   28  C   UNL     1     -40.394  53.602 -53.022  1.00  0.00     0.214 C 
BRANCH  28  29
HETATM   29  C   UNL     1     -40.056  52.151 -52.750  1.00  0.00    -0.034 A 
HETATM   30  C   UNL     1     -39.812  51.674 -51.454  1.00  0.00     0.009 A 
HETATM   31  C   UNL     1     -39.532  50.323 -51.234  1.00  0.00     0.001 A 
HETATM   32  C   UNL     1     -39.507  49.431 -52.303  1.00  0.00     0.000 A 
HETATM   33  C   UNL     1     -39.762  49.887 -53.594  1.00  0.00     0.001 A 
HETATM   34  C   UNL     1     -40.039  51.238 -53.816  1.00  0.00     0.009 A 
ENDBRANCH  28  29
ENDBRANCH  27  28
ENDBRANCH  10  27
TORSDOF 7
ENDMDL
MODEL 10
REMARK VINA RESULT:      -7.9      2.745      3.467
REMARK  7 active torsions:
REMARK  status: ('A' for Active; 'I' for Inactive)
REMARK    1  A    between atoms: C_7  and  C_8 
REMARK    2  A    between atoms: C_8  and  C_9 
REMARK       I    between atoms: C_9  and  N_10 
REMARK    3  A    between atoms: N_10  and  N_11 
REMARK       I    between atoms: N_11  and  C_12 
REMARK    4  A    between atoms: C_12  and  C_13 
REMARK    5  A    between atoms: C_23  and  O_24 
REMARK    6  A    between atoms: O_24  and  C_25 
REMARK    7  A    between atoms: C_25  and  C_26 
ROOT
HETATM    1  C   UNL     1     -43.184  60.778 -51.211  1.00  0.00     0.068 C 
HETATM    2  C   UNL     1     -42.808  59.375 -51.526  1.00  0.00     0.013 A 
HETATM    3  N   UNL     1     -42.198  58.570 -50.597  1.00  0.00    -0.359 N 
HETATM    4  H   UNL     1     -41.958  58.846 -49.655  1.00  0.00     0.166 HD
HETATM    5  C   UNL     1     -41.963  57.321 -51.120  1.00  0.00     0.043 A 
HETATM    6  C   UNL     1     -42.430  57.330 -52.432  1.00  0.00     0.002 A 
HETATM    7  C   UNL     1     -42.956  58.638 -52.692  1.00  0.00    -0.015 A 
HETATM    8  C   UNL     1     -41.377  56.194 -50.534  1.00  0.00     0.033 A 
HETATM    9  C   UNL     1     -41.273  55.032 -51.309  1.00  0.00     0.039 A 
HETATM   10  C   UNL     1     -41.738  54.999 -52.623  1.00  0.00     0.070 A 
HETATM   11  C   UNL     1     -42.309  56.147 -53.191  1.00  0.00     0.051 A 
ENDROOT
BRANCH   7  12
HETATM   12  C   UNL     1     -43.560  59.112 -53.979  1.00  0.00     0.146 C 
BRANCH  12  13
HETATM   13  C   UNL     1     -42.547  59.651 -54.972  1.00  0.00     0.240 C 
HETATM   14  N   UNL     1     -43.061  60.171 -56.145  1.00  0.00    -0.267 N 
HETATM   15  H   UNL     1     -43.983  59.895 -56.489  1.00  0.00     0.190 HD
HETATM   16  O   UNL     1     -41.341  59.705 -54.717  1.00  0.00    -0.272 OA
BRANCH  14  17
HETATM   17  N   UNL     1     -42.138  60.580 -57.122  1.00  0.00    -0.263 N 
HETATM   18  C   UNL     1     -42.285  61.841 -57.665  1.00  0.00     0.270 C 
HETATM   19  O   UNL     1     -43.116  62.648 -57.256  1.00  0.00    -0.266 OA
HETATM   20  H   UNL     1     -41.673  59.819 -57.614  1.00  0.00     0.190 HD
BRANCH  18  21
HETATM   21  C   UNL     1     -41.397  62.184 -58.809  1.00  0.00     0.036 A 
HETATM   22  C   UNL     1     -41.880  61.973 -60.103  1.00  0.00     0.036 A 
HETATM   23  C   UNL     1     -41.059  62.295 -61.167  1.00  0.00     0.117 A 
HETATM   24  N   UNL     1     -39.819  62.808 -61.027  1.00  0.00    -0.273 NA
HETATM   25  C   UNL     1     -39.382  63.019 -59.767  1.00  0.00     0.117 A 
HETATM   26  C   UNL     1     -40.124  62.731 -58.635  1.00  0.00     0.036 A 
ENDBRANCH  18  21
ENDBRANCH  14  17
ENDBRANCH  12  13
ENDBRANCH   7  12
BRANCH  10  27
HETATM   27  O   UNL     1     -41.701  53.917 -53.462  1.00  0.00    -0.347 OA
BRANCH  27  28
HETATM   28  C   UNL     1     -40.415  53.480 -53.906  1.00  0.00     0.214 C 
BRANCH  28  29
HETATM   29  C   UNL     1     -40.129  52.069 -53.436  1.00  0.00    -0.034 A 
HETATM   30  C   UNL     1     -40.132  50.976 -54.316  1.00  0.00     0.009 A 
HETATM   31  C   UNL     1     -39.834  49.691 -53.855  1.00  0.00     0.001 A 
HETATM   32  C   UNL     1     -39.515  49.486 -52.515  1.00  0.00     0.000 A 
HETATM   33  C   UNL     1     -39.493  50.563 -51.633  1.00  0.00     0.001 A 
HETATM   34  C   UNL     1     -39.794  51.847 -52.091  1.00  0.00     0.009 A 
ENDBRANCH  28  29
ENDBRANCH  27  28
ENDBRANCH  10  27
TORSDOF 7
ENDMDL
