MODEL 1
REMARK VINA RESULT:      -9.1      0.000      0.000
REMARK  9 active torsions:
REMARK  status: ('A' for Active; 'I' for Inactive)
REMARK    1  A    between atoms: C_4  and  S_5 
REMARK    2  A    between atoms: S_5  and  C_6 
REMARK    3  A    between atoms: C_6  and  C_7 
REMARK       I    between atoms: C_7  and  N_8 
REMARK    4  A    between atoms: N_8  and  C_9 
REMARK    5  A    between atoms: C_9  and  C_10 
REMARK    6  A    between atoms: C_20  and  C_21 
REMARK    7  A    between atoms: C_26  and  C_27 
REMARK       I    between atoms: C_27  and  N_28 
REMARK    8  A    between atoms: N_28  and  C_29 
REMARK    9  A    between atoms: C_31  and  C_32 
ROOT
HETATM    1  C   UNL     1     -42.885  55.612 -56.879  1.00  0.00     0.069 C 
HETATM    2  C   UNL     1     -42.970  56.750 -55.890  1.00  0.00     0.019 C 
HETATM    3  N   UNL     1     -43.774  57.817 -56.275  1.00  0.00    -0.353 N 
HETATM    4  C   UNL     1     -43.749  59.069 -55.674  1.00  0.00     0.087 C 
HETATM    5  C   UNL     1     -43.110  59.202 -54.489  1.00  0.00     0.057 C 
HETATM    6  C   UNL     1     -42.859  60.535 -53.803  1.00  0.00     0.019 C 
HETATM    7  N   UNL     1     -42.651  61.641 -53.236  1.00  0.00    -0.096 N 
HETATM    8  C   UNL     1     -42.548  57.976 -53.767  1.00  0.00     0.129 C 
HETATM    9  C   UNL     1     -42.329  56.786 -54.697  1.00  0.00     0.048 C 
HETATM   10  H   UNL     1     -44.015  57.838 -57.265  1.00  0.00     0.166 HD
ENDROOT
BRANCH   4  11
HETATM   11  S   UNL     1     -44.521  60.449 -56.445  1.00  0.00    -0.102 SA
BRANCH  11  12
HETATM   12  C   UNL     1     -43.150  60.986 -57.516  1.00  0.00     0.183 C 
BRANCH  12  13
HETATM   13  C   UNL     1     -42.610  59.933 -58.466  1.00  0.00     0.227 C 
HETATM   14  N   UNL     1     -43.362  59.605 -59.564  1.00  0.00    -0.356 N 
HETATM   15  H   UNL     1     -44.310  59.961 -59.633  1.00  0.00     0.162 HD
HETATM   16  O   UNL     1     -41.537  59.379 -58.219  1.00  0.00    -0.273 OA
BRANCH  14  17
HETATM   17  C   UNL     1     -42.962  58.513 -60.425  1.00  0.00     0.161 C 
BRANCH  17  18
HETATM   18  C   UNL     1     -43.906  57.342 -60.372  1.00  0.00    -0.041 A 
HETATM   19  C   UNL     1     -43.431  56.023 -60.375  1.00  0.00     0.009 A 
HETATM   20  C   UNL     1     -44.315  54.948 -60.259  1.00  0.00     0.001 A 
HETATM   21  C   UNL     1     -45.682  55.180 -60.123  1.00  0.00     0.000 A 
HETATM   22  C   UNL     1     -46.167  56.485 -60.101  1.00  0.00     0.001 A 
HETATM   23  C   UNL     1     -45.285  57.561 -60.223  1.00  0.00     0.009 A 
ENDBRANCH  17  18
ENDBRANCH  14  17
ENDBRANCH  12  13
ENDBRANCH  11  12
ENDBRANCH   4  11
BRANCH   8  24
HETATM   24  C   UNL     1     -43.421  57.614 -52.588  1.00  0.00     0.066 A 
HETATM   25  O   UNL     1     -42.914  56.693 -51.717  1.00  0.00    -0.326 OA
HETATM   26  C   UNL     1     -43.850  56.504 -50.752  1.00  0.00     0.142 A 
HETATM   27  C   UNL     1     -44.964  57.269 -51.005  1.00  0.00     0.027 A 
HETATM   28  C   UNL     1     -44.692  57.984 -52.194  1.00  0.00     0.035 A 
ENDBRANCH   8  24
BRANCH   9  29
HETATM   29  C   UNL     1     -41.298  55.748 -54.343  1.00  0.00     0.255 C 
HETATM   30  N   UNL     1     -41.726  54.758 -53.483  1.00  0.00    -0.323 N 
HETATM   31  H   UNL     1     -42.674  54.799 -53.131  1.00  0.00     0.169 HD
HETATM   32  O   UNL     1     -40.155  55.861 -54.774  1.00  0.00    -0.268 OA
BRANCH  30  33
HETATM   33  C   UNL     1     -40.984  53.653 -53.007  1.00  0.00     0.035 A 
HETATM   34  C   UNL     1     -40.791  52.469 -53.723  1.00  0.00     0.045 A 
HETATM   35  C   UNL     1     -40.055  51.405 -53.170  1.00  0.00     0.050 A 
HETATM   36  C   UNL     1     -39.506  51.547 -51.887  1.00  0.00     0.016 A 
HETATM   37  C   UNL     1     -39.692  52.724 -51.169  1.00  0.00     0.003 A 
HETATM   38  C   UNL     1     -40.433  53.768 -51.725  1.00  0.00     0.029 A 
BRANCH  35  39
HETATM   39  C   UNL     1     -39.874  50.110 -53.923  1.00  0.00     0.417 C 
HETATM   40  F   UNL     1     -39.605  49.037 -53.129  1.00  0.00    -0.166 F 
HETATM   41  F   UNL     1     -40.976  49.770 -54.648  1.00  0.00    -0.166 F 
HETATM   42  F   UNL     1     -38.849  50.175 -54.819  1.00  0.00    -0.166 F 
ENDBRANCH  35  39
ENDBRANCH  30  33
ENDBRANCH   9  29
TORSDOF 9
ENDMDL
MODEL 2
REMARK VINA RESULT:      -8.9      1.846      3.262
REMARK  9 active torsions:
REMARK  status: ('A' for Active; 'I' for Inactive)
REMARK    1  A    between atoms: C_4  and  S_5 
REMARK    2  A    between atoms: S_5  and  C_6 
REMARK    3  A    between atoms: C_6  and  C_7 
REMARK       I    between atoms: C_7  and  N_8 
REMARK    4  A    between atoms: N_8  and  C_9 
REMARK    5  A    between atoms: C_9  and  C_10 
REMARK    6  A    between atoms: C_20  and  C_21 
REMARK    7  A    between atoms: C_26  and  C_27 
REMARK       I    between atoms: C_27  and  N_28 
REMARK    8  A    between atoms: N_28  and  C_29 
REMARK    9  A    between atoms: C_31  and  C_32 
ROOT
HETATM    1  C   UNL     1     -42.913  55.292 -56.971  1.00  0.00     0.069 C 
HETATM    2  C   UNL     1     -42.989  56.496 -56.063  1.00  0.00     0.019 C 
HETATM    3  N   UNL     1     -43.804  57.531 -56.510  1.00  0.00    -0.353 N 
HETATM    4  C   UNL     1     -43.776  58.823 -55.998  1.00  0.00     0.087 C 
HETATM    5  C   UNL     1     -43.120  59.040 -54.835  1.00  0.00     0.057 C 
HETATM    6  C   UNL     1     -42.865  60.418 -54.247  1.00  0.00     0.019 C 
HETATM    7  N   UNL     1     -42.654  61.562 -53.761  1.00  0.00    -0.096 N 
HETATM    8  C   UNL     1     -42.542  57.869 -54.037  1.00  0.00     0.129 C 
HETATM    9  C   UNL     1     -42.331  56.618 -54.885  1.00  0.00     0.048 C 
HETATM   10  H   UNL     1     -44.058  57.483 -57.495  1.00  0.00     0.166 HD
ENDROOT
BRANCH   4  11
HETATM   11  S   UNL     1     -44.566  60.142 -56.851  1.00  0.00    -0.102 SA
BRANCH  11  12
HETATM   12  C   UNL     1     -45.169  59.225 -58.304  1.00  0.00     0.183 C 
BRANCH  12  13
HETATM   13  C   UNL     1     -44.465  59.533 -59.612  1.00  0.00     0.227 C 
HETATM   14  N   UNL     1     -43.178  60.003 -59.559  1.00  0.00    -0.356 N 
HETATM   15  H   UNL     1     -42.789  60.266 -58.660  1.00  0.00     0.162 HD
HETATM   16  O   UNL     1     -45.065  59.388 -60.679  1.00  0.00    -0.273 OA
BRANCH  14  17
HETATM   17  C   UNL     1     -42.510  60.442 -60.765  1.00  0.00     0.161 C 
BRANCH  17  18
HETATM   18  C   UNL     1     -41.456  61.485 -60.510  1.00  0.00    -0.041 A 
HETATM   19  C   UNL     1     -40.993  61.753 -59.213  1.00  0.00     0.009 A 
HETATM   20  C   UNL     1     -39.968  62.676 -59.000  1.00  0.00     0.001 A 
HETATM   21  C   UNL     1     -39.382  63.331 -60.081  1.00  0.00     0.000 A 
HETATM   22  C   UNL     1     -39.819  63.064 -61.376  1.00  0.00     0.001 A 
HETATM   23  C   UNL     1     -40.848  62.145 -61.590  1.00  0.00     0.009 A 
ENDBRANCH  17  18
ENDBRANCH  14  17
ENDBRANCH  12  13
ENDBRANCH  11  12
ENDBRANCH   4  11
BRANCH   8  24
HETATM   24  C   UNL     1     -43.396  57.587 -52.823  1.00  0.00     0.066 A 
HETATM   25  O   UNL     1     -42.828  56.822 -51.846  1.00  0.00    -0.326 OA
HETATM   26  C   UNL     1     -43.756  56.679 -50.865  1.00  0.00     0.142 A 
HETATM   27  C   UNL     1     -44.923  57.319 -51.209  1.00  0.00     0.027 A 
HETATM   28  C   UNL     1     -44.695  57.903 -52.477  1.00  0.00     0.035 A 
ENDBRANCH   8  24
BRANCH   9  29
HETATM   29  C   UNL     1     -41.290  55.611 -54.474  1.00  0.00     0.255 C 
HETATM   30  N   UNL     1     -41.721  54.636 -53.599  1.00  0.00    -0.323 N 
HETATM   31  H   UNL     1     -42.679  54.668 -53.274  1.00  0.00     0.169 HD
HETATM   32  O   UNL     1     -40.138  55.735 -54.878  1.00  0.00    -0.268 OA
BRANCH  30  33
HETATM   33  C   UNL     1     -40.972  53.561 -53.073  1.00  0.00     0.035 A 
HETATM   34  C   UNL     1     -40.710  52.374 -53.762  1.00  0.00     0.045 A 
HETATM   35  C   UNL     1     -39.971  51.339 -53.160  1.00  0.00     0.050 A 
HETATM   36  C   UNL     1     -39.488  51.513 -51.855  1.00  0.00     0.016 A 
HETATM   37  C   UNL     1     -39.743  52.693 -51.162  1.00  0.00     0.003 A 
HETATM   38  C   UNL     1     -40.487  53.707 -51.768  1.00  0.00     0.029 A 
BRANCH  35  39
HETATM   39  C   UNL     1     -39.715  50.041 -53.886  1.00  0.00     0.417 C 
HETATM   40  F   UNL     1     -39.381  49.003 -53.070  1.00  0.00    -0.166 F 
HETATM   41  F   UNL     1     -40.798  49.620 -54.598  1.00  0.00    -0.166 F 
HETATM   42  F   UNL     1     -38.699  50.147 -54.787  1.00  0.00    -0.166 F 
ENDBRANCH  35  39
ENDBRANCH  30  33
ENDBRANCH   9  29
TORSDOF 9
ENDMDL
MODEL 3
REMARK VINA RESULT:      -8.7      1.963      5.651
REMARK  9 active torsions:
REMARK  status: ('A' for Active; 'I' for Inactive)
REMARK    1  A    between atoms: C_4  and  S_5 
REMARK    2  A    between atoms: S_5  and  C_6 
REMARK    3  A    between atoms: C_6  and  C_7 
REMARK       I    between atoms: C_7  and  N_8 
REMARK    4  A    between atoms: N_8  and  C_9 
REMARK    5  A    between atoms: C_9  and  C_10 
REMARK    6  A    between atoms: C_20  and  C_21 
REMARK    7  A    between atoms: C_26  and  C_27 
REMARK       I    between atoms: C_27  and  N_28 
REMARK    8  A    between atoms: N_28  and  C_29 
REMARK    9  A    between atoms: C_31  and  C_32 
ROOT
HETATM    1  C   UNL     1     -40.865  58.114 -53.927  1.00  0.00     0.069 C 
HETATM    2  C   UNL     1     -42.002  58.145 -54.920  1.00  0.00     0.019 C 
HETATM    3  N   UNL     1     -42.299  59.396 -55.450  1.00  0.00    -0.353 N 
HETATM    4  C   UNL     1     -43.474  59.698 -56.125  1.00  0.00     0.087 C 
HETATM    5  C   UNL     1     -44.266  58.678 -56.528  1.00  0.00     0.057 C 
HETATM    6  C   UNL     1     -45.652  58.861 -57.124  1.00  0.00     0.019 C 
HETATM    7  N   UNL     1     -46.801  59.013 -57.618  1.00  0.00    -0.096 N 
HETATM    8  C   UNL     1     -43.809  57.227 -56.362  1.00  0.00     0.129 C 
HETATM    9  C   UNL     1     -42.721  57.063 -55.305  1.00  0.00     0.048 C 
HETATM   10  H   UNL     1     -41.901  60.183 -54.940  1.00  0.00     0.166 HD
ENDROOT
BRANCH   4  11
HETATM   11  S   UNL     1     -43.924  61.369 -56.438  1.00  0.00    -0.102 SA
BRANCH  11  12
HETATM   12  C   UNL     1     -44.738  61.749 -54.854  1.00  0.00     0.183 C 
BRANCH  12  13
HETATM   13  C   UNL     1     -43.873  61.588 -53.618  1.00  0.00     0.227 C 
HETATM   14  N   UNL     1     -44.403  60.930 -52.538  1.00  0.00    -0.356 N 
HETATM   15  H   UNL     1     -45.392  60.702 -52.540  1.00  0.00     0.162 HD
HETATM   16  O   UNL     1     -42.740  62.072 -53.597  1.00  0.00    -0.273 OA
BRANCH  14  17
HETATM   17  C   UNL     1     -43.675  60.869 -51.290  1.00  0.00     0.161 C 
BRANCH  17  18
HETATM   18  C   UNL     1     -42.931  59.575 -51.102  1.00  0.00    -0.041 A 
HETATM   19  C   UNL     1     -41.642  59.548 -50.551  1.00  0.00     0.009 A 
HETATM   20  C   UNL     1     -40.990  58.335 -50.322  1.00  0.00     0.001 A 
HETATM   21  C   UNL     1     -41.626  57.133 -50.626  1.00  0.00     0.000 A 
HETATM   22  C   UNL     1     -42.913  57.143 -51.158  1.00  0.00     0.001 A 
HETATM   23  C   UNL     1     -43.564  58.356 -51.392  1.00  0.00     0.009 A 
ENDBRANCH  17  18
ENDBRANCH  14  17
ENDBRANCH  12  13
ENDBRANCH  11  12
ENDBRANCH   4  11
BRANCH   8  24
HETATM   24  C   UNL     1     -43.389  56.651 -57.694  1.00  0.00     0.066 A 
HETATM   25  O   UNL     1     -42.676  57.476 -58.515  1.00  0.00    -0.326 OA
HETATM   26  C   UNL     1     -42.415  56.777 -59.650  1.00  0.00     0.142 A 
HETATM   27  C   UNL     1     -42.974  55.523 -59.582  1.00  0.00     0.027 A 
HETATM   28  C   UNL     1     -43.609  55.440 -58.321  1.00  0.00     0.035 A 
ENDBRANCH   8  24
BRANCH   9  29
HETATM   29  C   UNL     1     -42.560  55.740 -54.604  1.00  0.00     0.255 C 
HETATM   30  N   UNL     1     -41.259  55.334 -54.395  1.00  0.00    -0.323 N 
HETATM   31  H   UNL     1     -40.508  55.921 -54.736  1.00  0.00     0.169 HD
HETATM   32  O   UNL     1     -43.558  55.085 -54.316  1.00  0.00    -0.268 OA
BRANCH  30  33
HETATM   33  C   UNL     1     -40.819  54.160 -53.745  1.00  0.00     0.035 A 
HETATM   34  C   UNL     1     -40.720  52.910 -54.362  1.00  0.00     0.045 A 
HETATM   35  C   UNL     1     -40.291  51.781 -53.640  1.00  0.00     0.050 A 
HETATM   36  C   UNL     1     -39.953  51.924 -52.287  1.00  0.00     0.016 A 
HETATM   37  C   UNL     1     -40.046  53.165 -51.665  1.00  0.00     0.003 A 
HETATM   38  C   UNL     1     -40.484  54.274 -52.391  1.00  0.00     0.029 A 
BRANCH  35  39
HETATM   39  C   UNL     1     -40.217  50.422 -54.292  1.00  0.00     0.417 C 
HETATM   40  F   UNL     1     -39.395  50.370 -55.376  1.00  0.00    -0.166 F 
HETATM   41  F   UNL     1     -39.770  49.459 -53.439  1.00  0.00    -0.166 F 
HETATM   42  F   UNL     1     -41.434  49.994 -54.727  1.00  0.00    -0.166 F 
ENDBRANCH  35  39
ENDBRANCH  30  33
ENDBRANCH   9  29
TORSDOF 9
ENDMDL
MODEL 4
REMARK VINA RESULT:      -8.6      5.610      9.233
REMARK  9 active torsions:
REMARK  status: ('A' for Active; 'I' for Inactive)
REMARK    1  A    between atoms: C_4  and  S_5 
REMARK    2  A    between atoms: S_5  and  C_6 
REMARK    3  A    between atoms: C_6  and  C_7 
REMARK       I    between atoms: C_7  and  N_8 
REMARK    4  A    between atoms: N_8  and  C_9 
REMARK    5  A    between atoms: C_9  and  C_10 
REMARK    6  A    between atoms: C_20  and  C_21 
REMARK    7  A    between atoms: C_26  and  C_27 
REMARK       I    between atoms: C_27  and  N_28 
REMARK    8  A    between atoms: N_28  and  C_29 
REMARK    9  A    between atoms: C_31  and  C_32 
ROOT
HETATM    1  C   UNL     1     -45.489  60.234 -53.767  1.00  0.00     0.069 C 
HETATM    2  C   UNL     1     -44.769  59.048 -53.169  1.00  0.00     0.019 C 
HETATM    3  N   UNL     1     -44.431  58.041 -54.067  1.00  0.00    -0.353 N 
HETATM    4  C   UNL     1     -44.053  56.757 -53.692  1.00  0.00     0.087 C 
HETATM    5  C   UNL     1     -43.739  56.531 -52.396  1.00  0.00     0.057 C 
HETATM    6  C   UNL     1     -43.473  55.153 -51.814  1.00  0.00     0.019 C 
HETATM    7  N   UNL     1     -43.253  54.009 -51.331  1.00  0.00    -0.096 N 
HETATM    8  C   UNL     1     -43.671  57.690 -51.399  1.00  0.00     0.129 C 
HETATM    9  C   UNL     1     -44.451  58.918 -51.859  1.00  0.00     0.048 C 
HETATM   10  H   UNL     1     -44.913  58.085 -54.963  1.00  0.00     0.166 HD
ENDROOT
BRANCH   4  11
HETATM   11  S   UNL     1     -43.997  55.459 -54.876  1.00  0.00    -0.102 SA
BRANCH  11  12
HETATM   12  C   UNL     1     -42.312  55.725 -55.515  1.00  0.00     0.183 C 
BRANCH  12  13
HETATM   13  C   UNL     1     -41.186  55.334 -54.576  1.00  0.00     0.227 C 
HETATM   14  N   UNL     1     -41.152  54.045 -54.108  1.00  0.00    -0.356 N 
HETATM   15  H   UNL     1     -41.946  53.439 -54.282  1.00  0.00     0.162 HD
HETATM   16  O   UNL     1     -40.356  56.177 -54.233  1.00  0.00    -0.273 OA
BRANCH  14  17
HETATM   17  C   UNL     1     -40.184  53.657 -53.106  1.00  0.00     0.161 C 
BRANCH  17  18
HETATM   18  C   UNL     1     -39.931  52.174 -53.071  1.00  0.00    -0.041 A 
HETATM   19  C   UNL     1     -39.608  51.518 -51.874  1.00  0.00     0.009 A 
HETATM   20  C   UNL     1     -39.441  50.132 -51.845  1.00  0.00     0.001 A 
HETATM   21  C   UNL     1     -39.610  49.384 -53.009  1.00  0.00     0.000 A 
HETATM   22  C   UNL     1     -39.947  50.020 -54.201  1.00  0.00     0.001 A 
HETATM   23  C   UNL     1     -40.109  51.406 -54.233  1.00  0.00     0.009 A 
ENDBRANCH  17  18
ENDBRANCH  14  17
ENDBRANCH  12  13
ENDBRANCH  11  12
ENDBRANCH   4  11
BRANCH   8  24
HETATM   24  C   UNL     1     -42.233  58.025 -51.078  1.00  0.00     0.066 A 
HETATM   25  O   UNL     1     -41.764  59.212 -51.561  1.00  0.00    -0.326 OA
HETATM   26  C   UNL     1     -40.465  59.310 -51.177  1.00  0.00     0.142 A 
HETATM   27  C   UNL     1     -40.084  58.190 -50.476  1.00  0.00     0.027 A 
HETATM   28  C   UNL     1     -41.223  57.355 -50.415  1.00  0.00     0.035 A 
ENDBRANCH   8  24
BRANCH   9  29
HETATM   29  C   UNL     1     -44.979  59.888 -50.836  1.00  0.00     0.255 C 
HETATM   30  N   UNL     1     -44.062  60.799 -50.355  1.00  0.00    -0.323 N 
HETATM   31  H   UNL     1     -43.108  60.749 -50.691  1.00  0.00     0.169 HD
HETATM   32  O   UNL     1     -46.140  59.787 -50.451  1.00  0.00    -0.268 OA
BRANCH  30  33
HETATM   33  C   UNL     1     -44.286  61.831 -49.417  1.00  0.00     0.035 A 
HETATM   34  C   UNL     1     -44.778  61.625 -48.125  1.00  0.00     0.045 A 
HETATM   35  C   UNL     1     -44.993  62.709 -47.254  1.00  0.00     0.050 A 
HETATM   36  C   UNL     1     -44.700  64.009 -47.695  1.00  0.00     0.016 A 
HETATM   37  C   UNL     1     -44.208  64.221 -48.979  1.00  0.00     0.003 A 
HETATM   38  C   UNL     1     -44.010  63.138 -49.836  1.00  0.00     0.029 A 
BRANCH  35  39
HETATM   39  C   UNL     1     -45.557  62.497 -45.871  1.00  0.00     0.417 C 
HETATM   40  F   UNL     1     -45.530  63.607 -45.082  1.00  0.00    -0.166 F 
HETATM   41  F   UNL     1     -46.858  62.090 -45.896  1.00  0.00    -0.166 F 
HETATM   42  F   UNL     1     -44.882  61.534 -45.183  1.00  0.00    -0.166 F 
ENDBRANCH  35  39
ENDBRANCH  30  33
ENDBRANCH   9  29
TORSDOF 9
ENDMDL
MODEL 5
REMARK VINA RESULT:      -8.6      2.483      5.968
REMARK  9 active torsions:
REMARK  status: ('A' for Active; 'I' for Inactive)
REMARK    1  A    between atoms: C_4  and  S_5 
REMARK    2  A    between atoms: S_5  and  C_6 
REMARK    3  A    between atoms: C_6  and  C_7 
REMARK       I    between atoms: C_7  and  N_8 
REMARK    4  A    between atoms: N_8  and  C_9 
REMARK    5  A    between atoms: C_9  and  C_10 
REMARK    6  A    between atoms: C_20  and  C_21 
REMARK    7  A    between atoms: C_26  and  C_27 
REMARK       I    between atoms: C_27  and  N_28 
REMARK    8  A    between atoms: N_28  and  C_29 
REMARK    9  A    between atoms: C_31  and  C_32 
ROOT
HETATM    1  C   UNL     1     -40.950  58.655 -53.979  1.00  0.00     0.069 C 
HETATM    2  C   UNL     1     -42.036  58.652 -55.029  1.00  0.00     0.019 C 
HETATM    3  N   UNL     1     -42.324  59.890 -55.594  1.00  0.00    -0.353 N 
HETATM    4  C   UNL     1     -43.468  60.163 -56.333  1.00  0.00     0.087 C 
HETATM    5  C   UNL     1     -44.223  59.124 -56.758  1.00  0.00     0.057 C 
HETATM    6  C   UNL     1     -45.580  59.276 -57.426  1.00  0.00     0.019 C 
HETATM    7  N   UNL     1     -46.705  59.403 -57.980  1.00  0.00    -0.096 N 
HETATM    8  C   UNL     1     -43.754  57.683 -56.544  1.00  0.00     0.129 C 
HETATM    9  C   UNL     1     -42.719  57.553 -55.431  1.00  0.00     0.048 C 
HETATM   10  H   UNL     1     -41.964  60.691 -55.078  1.00  0.00     0.166 HD
ENDROOT
BRANCH   4  11
HETATM   11  S   UNL     1     -43.926  61.822 -56.696  1.00  0.00    -0.102 SA
BRANCH  11  12
HETATM   12  C   UNL     1     -43.808  62.526 -55.021  1.00  0.00     0.183 C 
BRANCH  12  13
HETATM   13  C   UNL     1     -44.480  61.722 -53.924  1.00  0.00     0.227 C 
HETATM   14  N   UNL     1     -43.722  61.331 -52.850  1.00  0.00    -0.356 N 
HETATM   15  H   UNL     1     -42.717  61.461 -52.887  1.00  0.00     0.162 HD
HETATM   16  O   UNL     1     -45.668  61.414 -54.032  1.00  0.00    -0.273 OA
BRANCH  14  17
HETATM   17  C   UNL     1     -44.276  60.449 -51.846  1.00  0.00     0.161 C 
BRANCH  17  18
HETATM   18  C   UNL     1     -43.280  59.449 -51.323  1.00  0.00    -0.041 A 
HETATM   19  C   UNL     1     -43.472  58.071 -51.494  1.00  0.00     0.009 A 
HETATM   20  C   UNL     1     -42.508  57.159 -51.061  1.00  0.00     0.001 A 
HETATM   21  C   UNL     1     -41.333  57.614 -50.467  1.00  0.00     0.000 A 
HETATM   22  C   UNL     1     -41.121  58.981 -50.305  1.00  0.00     0.001 A 
HETATM   23  C   UNL     1     -42.087  59.894 -50.733  1.00  0.00     0.009 A 
ENDBRANCH  17  18
ENDBRANCH  14  17
ENDBRANCH  12  13
ENDBRANCH  11  12
ENDBRANCH   4  11
BRANCH   8  24
HETATM   24  C   UNL     1     -43.259  57.093 -57.844  1.00  0.00     0.066 A 
HETATM   25  O   UNL     1     -42.597  57.942 -58.683  1.00  0.00    -0.326 OA
HETATM   26  C   UNL     1     -42.255  57.222 -59.784  1.00  0.00     0.142 A 
HETATM   27  C   UNL     1     -42.711  55.930 -59.676  1.00  0.00     0.027 A 
HETATM   28  C   UNL     1     -43.365  55.844 -58.425  1.00  0.00     0.035 A 
ENDBRANCH   8  24
BRANCH   9  29
HETATM   29  C   UNL     1     -42.575  56.245 -54.701  1.00  0.00     0.255 C 
HETATM   30  N   UNL     1     -41.304  55.708 -54.690  1.00  0.00    -0.323 N 
HETATM   31  H   UNL     1     -40.567  56.199 -55.181  1.00  0.00     0.169 HD
HETATM   32  O   UNL     1     -43.569  55.710 -54.219  1.00  0.00    -0.268 OA
BRANCH  30  33
HETATM   33  C   UNL     1     -40.880  54.515 -54.065  1.00  0.00     0.035 A 
HETATM   34  C   UNL     1     -40.808  54.335 -52.681  1.00  0.00     0.045 A 
HETATM   35  C   UNL     1     -40.355  53.121 -52.134  1.00  0.00     0.050 A 
HETATM   36  C   UNL     1     -39.980  52.080 -52.997  1.00  0.00     0.016 A 
HETATM   37  C   UNL     1     -40.051  52.250 -54.376  1.00  0.00     0.003 A 
HETATM   38  C   UNL     1     -40.492  53.464 -54.905  1.00  0.00     0.029 A 
BRANCH  35  39
HETATM   39  C   UNL     1     -40.242  52.933 -50.641  1.00  0.00     0.417 C 
HETATM   40  F   UNL     1     -40.079  51.638 -50.254  1.00  0.00    -0.166 F 
HETATM   41  F   UNL     1     -39.189  53.616 -50.109  1.00  0.00    -0.166 F 
HETATM   42  F   UNL     1     -41.345  53.383 -49.981  1.00  0.00    -0.166 F 
ENDBRANCH  35  39
ENDBRANCH  30  33
ENDBRANCH   9  29
TORSDOF 9
ENDMDL
MODEL 6
REMARK VINA RESULT:      -8.5      4.242      8.498
REMARK  9 active torsions:
REMARK  status: ('A' for Active; 'I' for Inactive)
REMARK    1  A    between atoms: C_4  and  S_5 
REMARK    2  A    between atoms: S_5  and  C_6 
REMARK    3  A    between atoms: C_6  and  C_7 
REMARK       I    between atoms: C_7  and  N_8 
REMARK    4  A    between atoms: N_8  and  C_9 
REMARK    5  A    between atoms: C_9  and  C_10 
REMARK    6  A    between atoms: C_20  and  C_21 
REMARK    7  A    between atoms: C_26  and  C_27 
REMARK       I    between atoms: C_27  and  N_28 
REMARK    8  A    between atoms: N_28  and  C_29 
REMARK    9  A    between atoms: C_31  and  C_32 
ROOT
HETATM    1  C   UNL     1     -40.551  54.720 -55.173  1.00  0.00     0.069 C 
HETATM    2  C   UNL     1     -41.384  55.748 -54.443  1.00  0.00     0.019 C 
HETATM    3  N   UNL     1     -40.904  56.126 -53.194  1.00  0.00    -0.353 N 
HETATM    4  C   UNL     1     -41.656  56.807 -52.244  1.00  0.00     0.087 C 
HETATM    5  C   UNL     1     -42.825  57.367 -52.629  1.00  0.00     0.057 C 
HETATM    6  C   UNL     1     -43.825  57.992 -51.669  1.00  0.00     0.019 C 
HETATM    7  N   UNL     1     -44.654  58.510 -50.873  1.00  0.00    -0.096 N 
HETATM    8  C   UNL     1     -43.240  57.367 -54.101  1.00  0.00     0.129 C 
HETATM    9  C   UNL     1     -42.528  56.295 -54.920  1.00  0.00     0.048 C 
HETATM   10  H   UNL     1     -40.201  55.506 -52.798  1.00  0.00     0.166 HD
ENDROOT
BRANCH   4  11
HETATM   11  S   UNL     1     -41.101  56.924 -50.579  1.00  0.00    -0.102 SA
BRANCH  11  12
HETATM   12  C   UNL     1     -42.055  55.550 -49.860  1.00  0.00     0.183 C 
BRANCH  12  13
HETATM   13  C   UNL     1     -41.259  54.299 -49.536  1.00  0.00     0.227 C 
HETATM   14  N   UNL     1     -40.788  53.544 -50.579  1.00  0.00    -0.356 N 
HETATM   15  H   UNL     1     -41.103  53.757 -51.520  1.00  0.00     0.162 HD
HETATM   16  O   UNL     1     -41.082  53.974 -48.361  1.00  0.00    -0.273 OA
BRANCH  14  17
HETATM   17  C   UNL     1     -40.145  52.273 -50.329  1.00  0.00     0.161 C 
BRANCH  17  18
HETATM   18  C   UNL     1     -39.903  51.475 -51.582  1.00  0.00    -0.041 A 
HETATM   19  C   UNL     1     -39.650  50.097 -51.532  1.00  0.00     0.009 A 
HETATM   20  C   UNL     1     -39.493  49.359 -52.707  1.00  0.00     0.001 A 
HETATM   21  C   UNL     1     -39.604  49.986 -53.946  1.00  0.00     0.000 A 
HETATM   22  C   UNL     1     -39.872  51.351 -54.012  1.00  0.00     0.001 A 
HETATM   23  C   UNL     1     -40.023  52.092 -52.838  1.00  0.00     0.009 A 
ENDBRANCH  17  18
ENDBRANCH  14  17
ENDBRANCH  12  13
ENDBRANCH  11  12
ENDBRANCH   4  11
BRANCH   8  24
HETATM   24  C   UNL     1     -43.061  58.743 -54.699  1.00  0.00     0.066 A 
HETATM   25  O   UNL     1     -44.079  59.201 -55.485  1.00  0.00    -0.326 OA
HETATM   26  C   UNL     1     -43.714  60.432 -55.926  1.00  0.00     0.142 A 
HETATM   27  C   UNL     1     -42.465  60.762 -55.458  1.00  0.00     0.027 A 
HETATM   28  C   UNL     1     -42.037  59.669 -54.669  1.00  0.00     0.035 A 
ENDBRANCH   8  24
BRANCH   9  29
HETATM   29  C   UNL     1     -43.177  55.761 -56.169  1.00  0.00     0.255 C 
HETATM   30  N   UNL     1     -43.559  56.711 -57.092  1.00  0.00    -0.323 N 
HETATM   31  H   UNL     1     -43.406  57.688 -56.873  1.00  0.00     0.169 HD
HETATM   32  O   UNL     1     -43.380  54.555 -56.274  1.00  0.00    -0.268 OA
BRANCH  30  33
HETATM   33  C   UNL     1     -44.162  56.494 -58.351  1.00  0.00     0.035 A 
HETATM   34  C   UNL     1     -45.277  57.194 -58.819  1.00  0.00     0.045 A 
HETATM   35  C   UNL     1     -45.833  56.904 -60.079  1.00  0.00     0.050 A 
HETATM   36  C   UNL     1     -45.249  55.904 -60.871  1.00  0.00     0.016 A 
HETATM   37  C   UNL     1     -44.137  55.204 -60.412  1.00  0.00     0.003 A 
HETATM   38  C   UNL     1     -43.602  55.494 -59.156  1.00  0.00     0.029 A 
BRANCH  35  39
HETATM   39  C   UNL     1     -47.058  57.632 -60.575  1.00  0.00     0.417 C 
HETATM   40  F   UNL     1     -47.833  58.155 -59.585  1.00  0.00    -0.166 F 
HETATM   41  F   UNL     1     -46.748  58.674 -61.396  1.00  0.00    -0.166 F 
HETATM   42  F   UNL     1     -47.879  56.822 -61.301  1.00  0.00    -0.166 F 
ENDBRANCH  35  39
ENDBRANCH  30  33
ENDBRANCH   9  29
TORSDOF 9
ENDMDL
MODEL 7
REMARK VINA RESULT:      -8.2      2.273      4.764
REMARK  9 active torsions:
REMARK  status: ('A' for Active; 'I' for Inactive)
REMARK    1  A    between atoms: C_4  and  S_5 
REMARK    2  A    between atoms: S_5  and  C_6 
REMARK    3  A    between atoms: C_6  and  C_7 
REMARK       I    between atoms: C_7  and  N_8 
REMARK    4  A    between atoms: N_8  and  C_9 
REMARK    5  A    between atoms: C_9  and  C_10 
REMARK    6  A    between atoms: C_20  and  C_21 
REMARK    7  A    between atoms: C_26  and  C_27 
REMARK       I    between atoms: C_27  and  N_28 
REMARK    8  A    between atoms: N_28  and  C_29 
REMARK    9  A    between atoms: C_31  and  C_32 
ROOT
HETATM    1  C   UNL     1     -40.605  57.850 -53.588  1.00  0.00     0.069 C 
HETATM    2  C   UNL     1     -41.768  57.840 -54.552  1.00  0.00     0.019 C 
HETATM    3  N   UNL     1     -42.428  59.055 -54.702  1.00  0.00    -0.353 N 
HETATM    4  C   UNL     1     -43.682  59.195 -55.284  1.00  0.00     0.087 C 
HETATM    5  C   UNL     1     -44.189  58.151 -55.979  1.00  0.00     0.057 C 
HETATM    6  C   UNL     1     -45.607  58.100 -56.523  1.00  0.00     0.019 C 
HETATM    7  N   UNL     1     -46.784  58.058 -56.974  1.00  0.00    -0.096 N 
HETATM    8  C   UNL     1     -43.344  56.900 -56.231  1.00  0.00     0.129 C 
HETATM    9  C   UNL     1     -42.188  56.755 -55.246  1.00  0.00     0.048 C 
HETATM   10  H   UNL     1     -42.229  59.745 -53.979  1.00  0.00     0.166 HD
ENDROOT
BRANCH   4  11
HETATM   11  S   UNL     1     -44.590  60.691 -55.109  1.00  0.00    -0.102 SA
BRANCH  11  12
HETATM   12  C   UNL     1     -43.433  61.828 -55.936  1.00  0.00     0.183 C 
BRANCH  12  13
HETATM   13  C   UNL     1     -43.434  61.775 -57.452  1.00  0.00     0.227 C 
HETATM   14  N   UNL     1     -42.386  61.152 -58.079  1.00  0.00    -0.356 N 
HETATM   15  H   UNL     1     -41.580  60.877 -57.529  1.00  0.00     0.162 HD
HETATM   16  O   UNL     1     -44.347  62.313 -58.082  1.00  0.00    -0.273 OA
BRANCH  14  17
HETATM   17  C   UNL     1     -42.267  61.193 -59.520  1.00  0.00     0.161 C 
BRANCH  17  18
HETATM   18  C   UNL     1     -41.091  62.004 -59.993  1.00  0.00    -0.041 A 
HETATM   19  C   UNL     1     -40.896  62.280 -61.355  1.00  0.00     0.009 A 
HETATM   20  C   UNL     1     -39.837  63.089 -61.772  1.00  0.00     0.001 A 
HETATM   21  C   UNL     1     -38.970  63.644 -60.833  1.00  0.00     0.000 A 
HETATM   22  C   UNL     1     -39.160  63.392 -59.477  1.00  0.00     0.001 A 
HETATM   23  C   UNL     1     -40.216  62.579 -59.058  1.00  0.00     0.009 A 
ENDBRANCH  17  18
ENDBRANCH  14  17
ENDBRANCH  12  13
ENDBRANCH  11  12
ENDBRANCH   4  11
BRANCH   8  24
HETATM   24  C   UNL     1     -42.868  56.866 -57.665  1.00  0.00     0.066 A 
HETATM   25  O   UNL     1     -42.132  57.935 -58.086  1.00  0.00    -0.326 OA
HETATM   26  C   UNL     1     -41.822  57.713 -59.390  1.00  0.00     0.142 A 
HETATM   27  C   UNL     1     -42.371  56.529 -59.821  1.00  0.00     0.027 A 
HETATM   28  C   UNL     1     -43.053  55.981 -58.709  1.00  0.00     0.035 A 
ENDBRANCH   8  24
BRANCH   9  29
HETATM   29  C   UNL     1     -41.628  55.389 -54.955  1.00  0.00     0.255 C 
HETATM   30  N   UNL     1     -41.307  55.149 -53.635  1.00  0.00    -0.323 N 
HETATM   31  H   UNL     1     -41.439  55.893 -52.962  1.00  0.00     0.169 HD
HETATM   32  O   UNL     1     -41.438  54.604 -55.879  1.00  0.00    -0.268 OA
BRANCH  30  33
HETATM   33  C   UNL     1     -40.792  53.957 -53.078  1.00  0.00     0.035 A 
HETATM   34  C   UNL     1     -40.639  52.761 -53.785  1.00  0.00     0.045 A 
HETATM   35  C   UNL     1     -40.137  51.609 -53.152  1.00  0.00     0.050 A 
HETATM   36  C   UNL     1     -39.781  51.674 -51.797  1.00  0.00     0.016 A 
HETATM   37  C   UNL     1     -39.929  52.861 -51.087  1.00  0.00     0.003 A 
HETATM   38  C   UNL     1     -40.438  53.994 -51.724  1.00  0.00     0.029 A 
BRANCH  35  39
HETATM   39  C   UNL     1     -40.002  50.306 -53.901  1.00  0.00     0.417 C 
HETATM   40  F   UNL     1     -41.122  49.939 -54.584  1.00  0.00    -0.166 F 
HETATM   41  F   UNL     1     -38.998  50.335 -54.821  1.00  0.00    -0.166 F 
HETATM   42  F   UNL     1     -39.714  49.264 -53.072  1.00  0.00    -0.166 F 
ENDBRANCH  35  39
ENDBRANCH  30  33
ENDBRANCH   9  29
TORSDOF 9
ENDMDL
MODEL 8
REMARK VINA RESULT:      -8.1      1.809      3.510
REMARK  9 active torsions:
REMARK  status: ('A' for Active; 'I' for Inactive)
REMARK    1  A    between atoms: C_4  and  S_5 
REMARK    2  A    between atoms: S_5  and  C_6 
REMARK    3  A    between atoms: C_6  and  C_7 
REMARK       I    between atoms: C_7  and  N_8 
REMARK    4  A    between atoms: N_8  and  C_9 
REMARK    5  A    between atoms: C_9  and  C_10 
REMARK    6  A    between atoms: C_20  and  C_21 
REMARK    7  A    between atoms: C_26  and  C_27 
REMARK       I    between atoms: C_27  and  N_28 
REMARK    8  A    between atoms: N_28  and  C_29 
REMARK    9  A    between atoms: C_31  and  C_32 
ROOT
HETATM    1  C   UNL     1     -40.526  58.636 -53.275  1.00  0.00     0.069 C 
HETATM    2  C   UNL     1     -41.641  58.652 -54.293  1.00  0.00     0.019 C 
HETATM    3  N   UNL     1     -41.890  59.885 -54.886  1.00  0.00    -0.353 N 
HETATM    4  C   UNL     1     -43.043  60.189 -55.600  1.00  0.00     0.087 C 
HETATM    5  C   UNL     1     -43.855  59.173 -55.973  1.00  0.00     0.057 C 
HETATM    6  C   UNL     1     -45.223  59.368 -56.606  1.00  0.00     0.019 C 
HETATM    7  N   UNL     1     -46.357  59.530 -57.131  1.00  0.00    -0.096 N 
HETATM    8  C   UNL     1     -43.444  57.720 -55.730  1.00  0.00     0.129 C 
HETATM    9  C   UNL     1     -42.383  57.574 -54.644  1.00  0.00     0.048 C 
HETATM   10  H   UNL     1     -41.480  60.684 -54.405  1.00  0.00     0.166 HD
ENDROOT
BRANCH   4  11
HETATM   11  S   UNL     1     -43.437  61.856 -55.999  1.00  0.00    -0.102 SA
BRANCH  11  12
HETATM   12  C   UNL     1     -42.387  62.055 -57.474  1.00  0.00     0.183 C 
BRANCH  12  13
HETATM   13  C   UNL     1     -43.062  61.764 -58.802  1.00  0.00     0.227 C 
HETATM   14  N   UNL     1     -43.063  60.471 -59.258  1.00  0.00    -0.356 N 
HETATM   15  H   UNL     1     -42.495  59.781 -58.777  1.00  0.00     0.162 HD
HETATM   16  O   UNL     1     -43.561  62.686 -59.449  1.00  0.00    -0.273 OA
BRANCH  14  17
HETATM   17  C   UNL     1     -43.568  60.162 -60.578  1.00  0.00     0.161 C 
BRANCH  17  18
HETATM   18  C   UNL     1     -44.929  59.520 -60.554  1.00  0.00    -0.041 A 
HETATM   19  C   UNL     1     -46.072  60.219 -60.968  1.00  0.00     0.009 A 
HETATM   20  C   UNL     1     -47.318  59.589 -61.003  1.00  0.00     0.001 A 
HETATM   21  C   UNL     1     -47.433  58.249 -60.639  1.00  0.00     0.000 A 
HETATM   22  C   UNL     1     -46.304  57.537 -60.242  1.00  0.00     0.001 A 
HETATM   23  C   UNL     1     -45.058  58.167 -60.202  1.00  0.00     0.009 A 
ENDBRANCH  17  18
ENDBRANCH  14  17
ENDBRANCH  12  13
ENDBRANCH  11  12
ENDBRANCH   4  11
BRANCH   8  24
HETATM   24  C   UNL     1     -43.014  57.071 -57.025  1.00  0.00     0.066 A 
HETATM   25  O   UNL     1     -42.303  57.853 -57.889  1.00  0.00    -0.326 OA
HETATM   26  C   UNL     1     -42.033  57.091 -58.981  1.00  0.00     0.142 A 
HETATM   27  C   UNL     1     -42.584  55.839 -58.843  1.00  0.00     0.027 A 
HETATM   28  C   UNL     1     -43.223  55.824 -57.582  1.00  0.00     0.035 A 
ENDBRANCH   8  24
BRANCH   9  29
HETATM   29  C   UNL     1     -42.276  56.282 -53.879  1.00  0.00     0.255 C 
HETATM   30  N   UNL     1     -41.115  55.566 -54.085  1.00  0.00    -0.323 N 
HETATM   31  H   UNL     1     -40.432  55.929 -54.738  1.00  0.00     0.169 HD
HETATM   32  O   UNL     1     -43.216  55.913 -53.182  1.00  0.00    -0.268 OA
BRANCH  30  33
HETATM   33  C   UNL     1     -40.741  54.343 -53.485  1.00  0.00     0.035 A 
HETATM   34  C   UNL     1     -40.679  53.122 -54.161  1.00  0.00     0.045 A 
HETATM   35  C   UNL     1     -40.316  51.942 -53.486  1.00  0.00     0.050 A 
HETATM   36  C   UNL     1     -40.007  52.003 -52.119  1.00  0.00     0.016 A 
HETATM   37  C   UNL     1     -40.064  53.216 -51.439  1.00  0.00     0.003 A 
HETATM   38  C   UNL     1     -40.436  54.377 -52.118  1.00  0.00     0.029 A 
BRANCH  35  39
HETATM   39  C   UNL     1     -40.282  50.615 -54.203  1.00  0.00     0.417 C 
HETATM   40  F   UNL     1     -39.396  50.563 -55.235  1.00  0.00    -0.166 F 
HETATM   41  F   UNL     1     -39.950  49.584 -53.375  1.00  0.00    -0.166 F 
HETATM   42  F   UNL     1     -41.492  50.286 -54.734  1.00  0.00    -0.166 F 
ENDBRANCH  35  39
ENDBRANCH  30  33
ENDBRANCH   9  29
TORSDOF 9
ENDMDL
MODEL 9
REMARK VINA RESULT:      -8.1      3.214      5.479
REMARK  9 active torsions:
REMARK  status: ('A' for Active; 'I' for Inactive)
REMARK    1  A    between atoms: C_4  and  S_5 
REMARK    2  A    between atoms: S_5  and  C_6 
REMARK    3  A    between atoms: C_6  and  C_7 
REMARK       I    between atoms: C_7  and  N_8 
REMARK    4  A    between atoms: N_8  and  C_9 
REMARK    5  A    between atoms: C_9  and  C_10 
REMARK    6  A    between atoms: C_20  and  C_21 
REMARK    7  A    between atoms: C_26  and  C_27 
REMARK       I    between atoms: C_27  and  N_28 
REMARK    8  A    between atoms: N_28  and  C_29 
REMARK    9  A    between atoms: C_31  and  C_32 
ROOT
HETATM    1  C   UNL     1     -41.501  58.803 -53.848  1.00  0.00     0.069 C 
HETATM    2  C   UNL     1     -42.489  58.745 -54.989  1.00  0.00     0.019 C 
HETATM    3  N   UNL     1     -42.842  59.974 -55.535  1.00  0.00    -0.353 N 
HETATM    4  C   UNL     1     -43.941  60.173 -56.363  1.00  0.00     0.087 C 
HETATM    5  C   UNL     1     -44.557  59.089 -56.886  1.00  0.00     0.057 C 
HETATM    6  C   UNL     1     -45.861  59.145 -57.665  1.00  0.00     0.019 C 
HETATM    7  N   UNL     1     -46.943  59.193 -58.310  1.00  0.00    -0.096 N 
HETATM    8  C   UNL     1     -43.976  57.688 -56.679  1.00  0.00     0.129 C 
HETATM    9  C   UNL     1     -43.031  57.606 -55.485  1.00  0.00     0.048 C 
HETATM   10  H   UNL     1     -42.603  60.783 -54.964  1.00  0.00     0.166 HD
ENDROOT
BRANCH   4  11
HETATM   11  S   UNL     1     -44.518  61.797 -56.710  1.00  0.00    -0.102 SA
BRANCH  11  12
HETATM   12  C   UNL     1     -42.915  62.642 -56.885  1.00  0.00     0.183 C 
BRANCH  12  13
HETATM   13  C   UNL     1     -41.974  62.053 -57.920  1.00  0.00     0.227 C 
HETATM   14  N   UNL     1     -42.109  62.459 -59.223  1.00  0.00    -0.356 N 
HETATM   15  H   UNL     1     -42.913  63.021 -59.480  1.00  0.00     0.162 HD
HETATM   16  O   UNL     1     -41.141  61.210 -57.581  1.00  0.00    -0.273 OA
BRANCH  14  17
HETATM   17  C   UNL     1     -41.333  61.829 -60.269  1.00  0.00     0.161 C 
BRANCH  17  18
HETATM   18  C   UNL     1     -40.183  62.676 -60.744  1.00  0.00    -0.041 A 
HETATM   19  C   UNL     1     -39.920  62.848 -62.110  1.00  0.00     0.009 A 
HETATM   20  C   UNL     1     -38.891  63.690 -62.537  1.00  0.00     0.001 A 
HETATM   21  C   UNL     1     -38.122  64.380 -61.603  1.00  0.00     0.000 A 
HETATM   22  C   UNL     1     -38.381  64.232 -60.242  1.00  0.00     0.001 A 
HETATM   23  C   UNL     1     -39.407  63.387 -59.814  1.00  0.00     0.009 A 
ENDBRANCH  17  18
ENDBRANCH  14  17
ENDBRANCH  12  13
ENDBRANCH  11  12
ENDBRANCH   4  11
BRANCH   8  24
HETATM   24  C   UNL     1     -43.321  57.198 -57.949  1.00  0.00     0.066 A 
HETATM   25  O   UNL     1     -43.719  55.975 -58.405  1.00  0.00    -0.326 OA
HETATM   26  C   UNL     1     -43.006  55.722 -59.534  1.00  0.00     0.142 A 
HETATM   27  C   UNL     1     -42.136  56.753 -59.795  1.00  0.00     0.027 A 
HETATM   28  C   UNL     1     -42.333  57.707 -58.770  1.00  0.00     0.035 A 
ENDBRANCH   8  24
BRANCH   9  29
HETATM   29  C   UNL     1     -42.828  56.288 -54.788  1.00  0.00     0.255 C 
HETATM   30  N   UNL     1     -41.521  55.857 -54.703  1.00  0.00    -0.323 N 
HETATM   31  H   UNL     1     -40.795  56.425 -55.124  1.00  0.00     0.169 HD
HETATM   32  O   UNL     1     -43.804  55.656 -54.396  1.00  0.00    -0.268 OA
BRANCH  30  33
HETATM   33  C   UNL     1     -41.041  54.680 -54.087  1.00  0.00     0.035 A 
HETATM   34  C   UNL     1     -40.942  54.500 -52.705  1.00  0.00     0.045 A 
HETATM   35  C   UNL     1     -40.434  53.303 -52.168  1.00  0.00     0.050 A 
HETATM   36  C   UNL     1     -40.033  52.279 -53.039  1.00  0.00     0.016 A 
HETATM   37  C   UNL     1     -40.131  52.449 -54.417  1.00  0.00     0.003 A 
HETATM   38  C   UNL     1     -40.626  53.646 -54.936  1.00  0.00     0.029 A 
BRANCH  35  39
HETATM   39  C   UNL     1     -40.291  53.117 -50.677  1.00  0.00     0.417 C 
HETATM   40  F   UNL     1     -41.378  53.516 -49.961  1.00  0.00    -0.166 F 
HETATM   41  F   UNL     1     -40.075  51.816 -50.333  1.00  0.00    -0.166 F 
HETATM   42  F   UNL     1     -39.236  53.814 -50.171  1.00  0.00    -0.166 F 
ENDBRANCH  35  39
ENDBRANCH  30  33
ENDBRANCH   9  29
TORSDOF 9
ENDMDL
MODEL 10
REMARK VINA RESULT:      -7.9      4.648      8.776
REMARK  9 active torsions:
REMARK  status: ('A' for Active; 'I' for Inactive)
REMARK    1  A    between atoms: C_4  and  S_5 
REMARK    2  A    between atoms: S_5  and  C_6 
REMARK    3  A    between atoms: C_6  and  C_7 
REMARK       I    between atoms: C_7  and  N_8 
REMARK    4  A    between atoms: N_8  and  C_9 
REMARK    5  A    between atoms: C_9  and  C_10 
REMARK    6  A    between atoms: C_20  and  C_21 
REMARK    7  A    between atoms: C_26  and  C_27 
REMARK       I    between atoms: C_27  and  N_28 
REMARK    8  A    between atoms: N_28  and  C_29 
REMARK    9  A    between atoms: C_31  and  C_32 
ROOT
HETATM    1  C   UNL     1     -42.886  55.884 -56.107  1.00  0.00     0.069 C 
HETATM    2  C   UNL     1     -42.789  57.321 -55.652  1.00  0.00     0.019 C 
HETATM    3  N   UNL     1     -41.785  57.588 -54.728  1.00  0.00    -0.353 N 
HETATM    4  C   UNL     1     -41.718  58.745 -53.961  1.00  0.00     0.087 C 
HETATM    5  C   UNL     1     -42.509  59.789 -54.301  1.00  0.00     0.057 C 
HETATM    6  C   UNL     1     -42.664  61.046 -53.461  1.00  0.00     0.019 C 
HETATM    7  N   UNL     1     -42.792  62.089 -52.764  1.00  0.00    -0.096 N 
HETATM    8  C   UNL     1     -43.354  59.742 -55.576  1.00  0.00     0.129 C 
HETATM    9  C   UNL     1     -43.598  58.322 -56.076  1.00  0.00     0.048 C 
HETATM   10  H   UNL     1     -41.391  56.767 -54.271  1.00  0.00     0.166 HD
ENDROOT
BRANCH   4  11
HETATM   11  S   UNL     1     -40.637  58.842 -52.577  1.00  0.00    -0.102 SA
BRANCH  11  12
HETATM   12  C   UNL     1     -41.768  58.232 -51.286  1.00  0.00     0.183 C 
BRANCH  12  13
HETATM   13  C   UNL     1     -41.638  56.759 -50.945  1.00  0.00     0.227 C 
HETATM   14  N   UNL     1     -42.421  55.865 -51.629  1.00  0.00    -0.356 N 
HETATM   15  H   UNL     1     -43.157  56.218 -52.231  1.00  0.00     0.162 HD
HETATM   16  O   UNL     1     -40.867  56.403 -50.052  1.00  0.00    -0.273 OA
BRANCH  14  17
HETATM   17  C   UNL     1     -42.438  54.469 -51.250  1.00  0.00     0.161 C 
BRANCH  17  18
HETATM   18  C   UNL     1     -41.508  53.621 -52.075  1.00  0.00    -0.041 A 
HETATM   19  C   UNL     1     -40.519  52.827 -51.474  1.00  0.00     0.009 A 
HETATM   20  C   UNL     1     -39.707  51.995 -52.248  1.00  0.00     0.001 A 
HETATM   21  C   UNL     1     -39.883  51.935 -53.629  1.00  0.00     0.000 A 
HETATM   22  C   UNL     1     -40.872  52.705 -54.237  1.00  0.00     0.001 A 
HETATM   23  C   UNL     1     -41.681  53.541 -53.466  1.00  0.00     0.009 A 
ENDBRANCH  17  18
ENDBRANCH  14  17
ENDBRANCH  12  13
ENDBRANCH  11  12
ENDBRANCH   4  11
BRANCH   8  24
HETATM   24  C   UNL     1     -42.742  60.616 -56.645  1.00  0.00     0.066 A 
HETATM   25  O   UNL     1     -41.547  60.202 -57.158  1.00  0.00    -0.326 OA
HETATM   26  C   UNL     1     -41.171  61.125 -58.081  1.00  0.00     0.142 A 
HETATM   27  C   UNL     1     -42.094  62.141 -58.150  1.00  0.00     0.027 A 
HETATM   28  C   UNL     1     -43.108  61.818 -57.219  1.00  0.00     0.035 A 
ENDBRANCH   8  24
BRANCH   9  29
HETATM   29  C   UNL     1     -44.815  58.029 -56.913  1.00  0.00     0.255 C 
HETATM   30  N   UNL     1     -44.587  57.909 -58.267  1.00  0.00    -0.323 N 
HETATM   31  H   UNL     1     -43.646  58.045 -58.614  1.00  0.00     0.169 HD
HETATM   32  O   UNL     1     -45.917  57.971 -56.376  1.00  0.00    -0.268 OA
BRANCH  30  33
HETATM   33  C   UNL     1     -45.532  57.614 -59.275  1.00  0.00     0.035 A 
HETATM   34  C   UNL     1     -46.423  58.546 -59.814  1.00  0.00     0.045 A 
HETATM   35  C   UNL     1     -47.350  58.169 -60.803  1.00  0.00     0.050 A 
HETATM   36  C   UNL     1     -47.367  56.841 -61.254  1.00  0.00     0.016 A 
HETATM   37  C   UNL     1     -46.481  55.908 -60.724  1.00  0.00     0.003 A 
HETATM   38  C   UNL     1     -45.574  56.292 -59.736  1.00  0.00     0.029 A 
BRANCH  35  39
HETATM   39  C   UNL     1     -48.338  59.163 -61.363  1.00  0.00     0.417 C 
HETATM   40  F   UNL     1     -47.802  60.037 -62.258  1.00  0.00    -0.166 F 
HETATM   41  F   UNL     1     -49.375  58.559 -62.009  1.00  0.00    -0.166 F 
HETATM   42  F   UNL     1     -48.905  59.928 -60.389  1.00  0.00    -0.166 F 
ENDBRANCH  35  39
ENDBRANCH  30  33
ENDBRANCH   9  29
TORSDOF 9
ENDMDL
