MODEL 1
REMARK VINA RESULT:      -7.7      0.000      0.000
REMARK  4 active torsions:
REMARK  status: ('A' for Active; 'I' for Inactive)
REMARK    1  A    between atoms: O_2  and  C_3 
REMARK    2  A    between atoms: C_4  and  O_5 
REMARK    3  A    between atoms: C_9  and  C_10 
REMARK    4  A    between atoms: C_10  and  N_11 
ROOT
HETATM    1  N   UNL     1     -41.323  56.502 -51.138  1.00  0.00    -0.066 N 
HETATM    2  H   UNL     1     -41.025  56.179 -52.072  1.00  0.00     0.280 HD
HETATM    3  C   UNL     1     -40.794  55.475 -50.152  1.00  0.00     0.246 C 
HETATM    4  C   UNL     1     -41.487  54.111 -50.346  1.00  0.00     0.062 C 
HETATM    5  C   UNL     1     -42.989  54.275 -50.146  1.00  0.00     0.020 C 
HETATM    6  C   UNL     1     -43.505  55.208 -51.233  1.00  0.00     0.031 C 
HETATM    7  C   UNL     1     -43.299  54.555 -52.598  1.00  0.00     0.138 C 
HETATM    8  N   UNL     1     -42.003  53.908 -52.800  1.00  0.00    -0.317 N 
HETATM    9  C   UNL     1     -41.185  53.545 -51.725  1.00  0.00     0.020 A 
HETATM   10  C   UNL     1     -40.140  52.724 -51.927  1.00  0.00     0.026 A 
HETATM   11  C   UNL     1     -41.772  53.439 -54.105  1.00  0.00     0.247 A 
HETATM   12  O   UNL     1     -42.472  53.735 -55.067  1.00  0.00    -0.268 OA
HETATM   13  C   UNL     1     -40.606  52.543 -54.289  1.00  0.00     0.074 A 
HETATM   14  C   UNL     1     -39.849  52.208 -53.239  1.00  0.00     0.007 A 
HETATM   15  C   UNL     1     -42.837  56.582 -51.144  1.00  0.00     0.241 C 
ENDROOT
BRANCH   1  16
HETATM   16  C   UNL     1     -40.746  57.895 -50.959  1.00  0.00     0.273 C 
BRANCH  16  17
HETATM   17  C   UNL     1     -41.307  58.978 -51.839  1.00  0.00    -0.028 A 
HETATM   18  C   UNL     1     -42.075  60.011 -51.274  1.00  0.00     0.031 A 
HETATM   19  C   UNL     1     -42.685  60.976 -52.082  1.00  0.00     0.047 A 
HETATM   20  C   UNL     1     -42.545  60.913 -53.467  1.00  0.00     0.116 A 
HETATM   21 BR   UNL     1     -43.738  62.310 -51.245  1.00  0.00    -0.048 Br
HETATM   22  C   UNL     1     -41.735  59.928 -54.035  1.00  0.00     0.103 A 
HETATM   23  C   UNL     1     -41.130  58.955 -53.230  1.00  0.00     0.048 A 
BRANCH  20  24
HETATM   24  O   UNL     1     -43.240  61.783 -54.259  1.00  0.00    -0.357 OA
HETATM   25  H   UNL     1     -43.871  61.257 -54.784  1.00  0.00     0.218 HD
ENDBRANCH  20  24
BRANCH  22  26
HETATM   26  O   UNL     1     -41.568  59.799 -55.389  1.00  0.00    -0.353 OA
HETATM   27  C   UNL     1     -42.371  58.753 -55.946  1.00  0.00     0.210 C 
ENDBRANCH  22  26
ENDBRANCH  16  17
ENDBRANCH   1  16
TORSDOF 4
ENDMDL
MODEL 2
REMARK VINA RESULT:      -7.6      3.467      7.223
REMARK  4 active torsions:
REMARK  status: ('A' for Active; 'I' for Inactive)
REMARK    1  A    between atoms: O_2  and  C_3 
REMARK    2  A    between atoms: C_4  and  O_5 
REMARK    3  A    between atoms: C_9  and  C_10 
REMARK    4  A    between atoms: C_10  and  N_11 
ROOT
HETATM    1  N   UNL     1     -42.668  56.230 -53.513  1.00  0.00    -0.066 N 
HETATM    2  H   UNL     1     -42.735  56.569 -52.541  1.00  0.00     0.280 HD
HETATM    3  C   UNL     1     -41.269  56.587 -53.984  1.00  0.00     0.246 C 
HETATM    4  C   UNL     1     -41.087  58.116 -54.076  1.00  0.00     0.062 C 
HETATM    5  C   UNL     1     -42.108  58.686 -55.053  1.00  0.00     0.020 C 
HETATM    6  C   UNL     1     -43.495  58.424 -54.483  1.00  0.00     0.031 C 
HETATM    7  C   UNL     1     -43.652  59.185 -53.168  1.00  0.00     0.138 C 
HETATM    8  N   UNL     1     -42.507  59.121 -52.260  1.00  0.00    -0.317 N 
HETATM    9  C   UNL     1     -41.232  58.759 -52.707  1.00  0.00     0.020 A 
HETATM   10  C   UNL     1     -40.164  58.965 -51.917  1.00  0.00     0.026 A 
HETATM   11  C   UNL     1     -42.719  59.702 -50.998  1.00  0.00     0.247 A 
HETATM   12  O   UNL     1     -43.824  60.034 -50.579  1.00  0.00    -0.268 OA
HETATM   13  C   UNL     1     -41.519  59.905 -50.153  1.00  0.00     0.074 A 
HETATM   14  C   UNL     1     -40.312  59.557 -50.613  1.00  0.00     0.007 A 
HETATM   15  C   UNL     1     -43.750  56.925 -54.315  1.00  0.00     0.241 C 
ENDROOT
BRANCH   1  16
HETATM   16  C   UNL     1     -42.951  54.739 -53.471  1.00  0.00     0.273 C 
BRANCH  16  17
HETATM   17  C   UNL     1     -41.854  53.857 -52.940  1.00  0.00    -0.028 A 
HETATM   18  C   UNL     1     -41.358  52.805 -53.730  1.00  0.00     0.031 A 
HETATM   19  C   UNL     1     -40.406  51.915 -53.223  1.00  0.00     0.047 A 
HETATM   20  C   UNL     1     -39.945  52.059 -51.916  1.00  0.00     0.116 A 
HETATM   21 BR   UNL     1     -39.822  50.498 -54.337  1.00  0.00    -0.048 Br
HETATM   22  C   UNL     1     -40.384  53.136 -51.144  1.00  0.00     0.103 A 
HETATM   23  C   UNL     1     -41.344  54.024 -51.645  1.00  0.00     0.048 A 
BRANCH  20  24
HETATM   24  O   UNL     1     -39.110  51.118 -51.385  1.00  0.00    -0.357 OA
HETATM   25  H   UNL     1     -39.138  50.339 -51.970  1.00  0.00     0.218 HD
ENDBRANCH  20  24
BRANCH  22  26
HETATM   26  O   UNL     1     -39.985  53.326 -49.847  1.00  0.00    -0.353 OA
HETATM   27  C   UNL     1     -40.715  54.369 -49.192  1.00  0.00     0.210 C 
ENDBRANCH  22  26
ENDBRANCH  16  17
ENDBRANCH   1  16
TORSDOF 4
ENDMDL
MODEL 3
REMARK VINA RESULT:      -7.5      2.904      6.935
REMARK  4 active torsions:
REMARK  status: ('A' for Active; 'I' for Inactive)
REMARK    1  A    between atoms: O_2  and  C_3 
REMARK    2  A    between atoms: C_4  and  O_5 
REMARK    3  A    between atoms: C_9  and  C_10 
REMARK    4  A    between atoms: C_10  and  N_11 
ROOT
HETATM    1  N   UNL     1     -42.939  56.421 -53.702  1.00  0.00    -0.066 N 
HETATM    2  H   UNL     1     -42.931  56.705 -52.710  1.00  0.00     0.280 HD
HETATM    3  C   UNL     1     -41.565  56.770 -54.247  1.00  0.00     0.246 C 
HETATM    4  C   UNL     1     -41.346  58.297 -54.266  1.00  0.00     0.062 C 
HETATM    5  C   UNL     1     -42.414  58.949 -55.137  1.00  0.00     0.020 C 
HETATM    6  C   UNL     1     -43.767  58.688 -54.487  1.00  0.00     0.031 C 
HETATM    7  C   UNL     1     -43.813  59.375 -53.124  1.00  0.00     0.138 C 
HETATM    8  N   UNL     1     -42.612  59.230 -52.303  1.00  0.00    -0.317 N 
HETATM    9  C   UNL     1     -41.381  58.863 -52.855  1.00  0.00     0.020 A 
HETATM   10  C   UNL     1     -40.256  58.996 -52.130  1.00  0.00     0.026 A 
HETATM   11  C   UNL     1     -42.722  59.742 -50.998  1.00  0.00     0.247 A 
HETATM   12  O   UNL     1     -43.785  60.075 -50.486  1.00  0.00    -0.268 OA
HETATM   13  C   UNL     1     -41.462  59.865 -50.228  1.00  0.00     0.074 A 
HETATM   14  C   UNL     1     -40.300  59.515 -50.788  1.00  0.00     0.007 A 
HETATM   15  C   UNL     1     -44.052  57.189 -54.388  1.00  0.00     0.241 C 
ENDROOT
BRANCH   1  16
HETATM   16  C   UNL     1     -43.261  54.938 -53.725  1.00  0.00     0.273 C 
BRANCH  16  17
HETATM   17  C   UNL     1     -42.210  54.010 -53.181  1.00  0.00    -0.028 A 
HETATM   18  C   UNL     1     -41.851  54.078 -51.823  1.00  0.00     0.031 A 
HETATM   19  C   UNL     1     -40.812  53.291 -51.316  1.00  0.00     0.047 A 
HETATM   20  C   UNL     1     -40.112  52.433 -52.161  1.00  0.00     0.116 A 
HETATM   21 BR   UNL     1     -40.361  53.475 -49.485  1.00  0.00    -0.048 Br
HETATM   22  C   UNL     1     -40.501  52.312 -53.497  1.00  0.00     0.103 A 
HETATM   23  C   UNL     1     -41.534  53.105 -54.010  1.00  0.00     0.048 A 
BRANCH  20  24
HETATM   24  O   UNL     1     -39.021  51.759 -51.691  1.00  0.00    -0.357 OA
HETATM   25  H   UNL     1     -38.238  52.308 -51.874  1.00  0.00     0.218 HD
ENDBRANCH  20  24
BRANCH  22  26
HETATM   26  O   UNL     1     -39.844  51.501 -54.386  1.00  0.00    -0.353 OA
HETATM   27  C   UNL     1     -40.337  50.157 -54.374  1.00  0.00     0.210 C 
ENDBRANCH  22  26
ENDBRANCH  16  17
ENDBRANCH   1  16
TORSDOF 4
ENDMDL
MODEL 4
REMARK VINA RESULT:      -7.3      3.124      6.385
REMARK  4 active torsions:
REMARK  status: ('A' for Active; 'I' for Inactive)
REMARK    1  A    between atoms: O_2  and  C_3 
REMARK    2  A    between atoms: C_4  and  O_5 
REMARK    3  A    between atoms: C_9  and  C_10 
REMARK    4  A    between atoms: C_10  and  N_11 
ROOT
HETATM    1  N   UNL     1     -41.904  56.447 -51.257  1.00  0.00    -0.066 N 
HETATM    2  H   UNL     1     -41.671  56.501 -52.261  1.00  0.00     0.280 HD
HETATM    3  C   UNL     1     -43.404  56.216 -51.189  1.00  0.00     0.246 C 
HETATM    4  C   UNL     1     -44.179  57.440 -51.718  1.00  0.00     0.062 C 
HETATM    5  C   UNL     1     -43.819  58.664 -50.883  1.00  0.00     0.020 C 
HETATM    6  C   UNL     1     -42.335  58.942 -51.081  1.00  0.00     0.031 C 
HETATM    7  C   UNL     1     -42.079  59.300 -52.544  1.00  0.00     0.138 C 
HETATM    8  N   UNL     1     -42.763  58.462 -53.528  1.00  0.00    -0.317 N 
HETATM    9  C   UNL     1     -43.871  57.679 -53.187  1.00  0.00     0.020 A 
HETATM   10  C   UNL     1     -44.629  57.136 -54.155  1.00  0.00     0.026 A 
HETATM   11  C   UNL     1     -42.407  58.709 -54.865  1.00  0.00     0.247 A 
HETATM   12  O   UNL     1     -41.444  59.394 -55.197  1.00  0.00    -0.268 OA
HETATM   13  C   UNL     1     -43.262  58.087 -55.903  1.00  0.00     0.074 A 
HETATM   14  C   UNL     1     -44.319  57.351 -55.545  1.00  0.00     0.007 A 
HETATM   15  C   UNL     1     -41.485  57.757 -50.620  1.00  0.00     0.241 C 
ENDROOT
BRANCH   1  16
HETATM   16  C   UNL     1     -41.072  55.317 -50.681  1.00  0.00     0.273 C 
BRANCH  16  17
HETATM   17  C   UNL     1     -40.768  54.164 -51.599  1.00  0.00    -0.028 A 
HETATM   18  C   UNL     1     -40.392  52.921 -51.060  1.00  0.00     0.031 A 
HETATM   19  C   UNL     1     -40.014  51.864 -51.894  1.00  0.00     0.047 A 
HETATM   20  C   UNL     1     -39.996  52.039 -53.276  1.00  0.00     0.116 A 
HETATM   21 BR   UNL     1     -39.481  50.234 -51.088  1.00  0.00    -0.048 Br
HETATM   22  C   UNL     1     -40.426  53.249 -53.824  1.00  0.00     0.103 A 
HETATM   23  C   UNL     1     -40.796  54.313 -52.993  1.00  0.00     0.048 A 
BRANCH  20  24
HETATM   24  O   UNL     1     -39.510  51.046 -54.079  1.00  0.00    -0.357 OA
HETATM   25  H   UNL     1     -38.538  51.085 -54.035  1.00  0.00     0.218 HD
ENDBRANCH  20  24
BRANCH  22  26
HETATM   26  O   UNL     1     -40.415  53.494 -55.172  1.00  0.00    -0.353 OA
HETATM   27  C   UNL     1     -41.243  54.603 -55.538  1.00  0.00     0.210 C 
ENDBRANCH  22  26
ENDBRANCH  16  17
ENDBRANCH   1  16
TORSDOF 4
ENDMDL
MODEL 5
REMARK VINA RESULT:      -7.0      3.744      6.280
REMARK  4 active torsions:
REMARK  status: ('A' for Active; 'I' for Inactive)
REMARK    1  A    between atoms: O_2  and  C_3 
REMARK    2  A    between atoms: C_4  and  O_5 
REMARK    3  A    between atoms: C_9  and  C_10 
REMARK    4  A    between atoms: C_10  and  N_11 
ROOT
HETATM    1  N   UNL     1     -42.669  55.505 -55.254  1.00  0.00    -0.066 N 
HETATM    2  H   UNL     1     -42.754  56.524 -55.398  1.00  0.00     0.280 HD
HETATM    3  C   UNL     1     -43.687  55.149 -54.185  1.00  0.00     0.246 C 
HETATM    4  C   UNL     1     -43.312  55.780 -52.828  1.00  0.00     0.062 C 
HETATM    5  C   UNL     1     -41.937  55.279 -52.403  1.00  0.00     0.020 C 
HETATM    6  C   UNL     1     -40.925  55.768 -53.430  1.00  0.00     0.031 C 
HETATM    7  C   UNL     1     -40.878  57.294 -53.406  1.00  0.00     0.138 C 
HETATM    8  N   UNL     1     -42.176  57.964 -53.340  1.00  0.00    -0.317 N 
HETATM    9  C   UNL     1     -43.330  57.297 -52.918  1.00  0.00     0.020 A 
HETATM   10  C   UNL     1     -44.437  58.000 -52.617  1.00  0.00     0.026 A 
HETATM   11  C   UNL     1     -42.127  59.364 -53.465  1.00  0.00     0.247 A 
HETATM   12  O   UNL     1     -41.130  59.979 -53.829  1.00  0.00    -0.268 OA
HETATM   13  C   UNL     1     -43.368  60.102 -53.133  1.00  0.00     0.074 A 
HETATM   14  C   UNL     1     -44.452  59.435 -52.723  1.00  0.00     0.007 A 
HETATM   15  C   UNL     1     -41.244  55.222 -54.823  1.00  0.00     0.241 C 
ENDROOT
BRANCH   1  16
HETATM   16  C   UNL     1     -42.926  54.857 -56.602  1.00  0.00     0.273 C 
BRANCH  16  17
HETATM   17  C   UNL     1     -43.072  55.780 -57.780  1.00  0.00    -0.028 A 
HETATM   18  C   UNL     1     -42.702  57.132 -57.660  1.00  0.00     0.031 A 
HETATM   19  C   UNL     1     -42.915  58.029 -58.711  1.00  0.00     0.047 A 
HETATM   20  C   UNL     1     -43.511  57.590 -59.892  1.00  0.00     0.116 A 
HETATM   21 BR   UNL     1     -42.428  59.842 -58.453  1.00  0.00    -0.048 Br
HETATM   22  C   UNL     1     -43.826  56.238 -60.045  1.00  0.00     0.103 A 
HETATM   23  C   UNL     1     -43.622  55.339 -58.992  1.00  0.00     0.048 A 
BRANCH  20  24
HETATM   24  O   UNL     1     -43.829  58.492 -60.867  1.00  0.00    -0.357 OA
HETATM   25  H   UNL     1     -44.553  59.047 -60.525  1.00  0.00     0.218 HD
ENDBRANCH  20  24
BRANCH  22  26
HETATM   26  O   UNL     1     -44.429  55.744 -61.171  1.00  0.00    -0.353 OA
HETATM   27  C   UNL     1     -45.836  55.545 -61.001  1.00  0.00     0.210 C 
ENDBRANCH  22  26
ENDBRANCH  16  17
ENDBRANCH   1  16
TORSDOF 4
ENDMDL
MODEL 6
REMARK VINA RESULT:      -7.0      3.142      5.501
REMARK  4 active torsions:
REMARK  status: ('A' for Active; 'I' for Inactive)
REMARK    1  A    between atoms: O_2  and  C_3 
REMARK    2  A    between atoms: C_4  and  O_5 
REMARK    3  A    between atoms: C_9  and  C_10 
REMARK    4  A    between atoms: C_10  and  N_11 
ROOT
HETATM    1  N   UNL     1     -41.979  59.012 -53.944  1.00  0.00    -0.066 N 
HETATM    2  H   UNL     1     -42.652  58.248 -53.776  1.00  0.00     0.280 HD
HETATM    3  C   UNL     1     -40.648  58.522 -53.400  1.00  0.00     0.246 C 
HETATM    4  C   UNL     1     -40.701  58.361 -51.866  1.00  0.00     0.062 C 
HETATM    5  C   UNL     1     -41.043  59.703 -51.230  1.00  0.00     0.020 C 
HETATM    6  C   UNL     1     -42.438  60.098 -51.697  1.00  0.00     0.031 C 
HETATM    7  C   UNL     1     -43.450  59.079 -51.178  1.00  0.00     0.138 C 
HETATM    8  N   UNL     1     -43.053  57.677 -51.295  1.00  0.00    -0.317 N 
HETATM    9  C   UNL     1     -41.717  57.302 -51.472  1.00  0.00     0.020 A 
HETATM   10  C   UNL     1     -41.357  56.017 -51.310  1.00  0.00     0.026 A 
HETATM   11  C   UNL     1     -44.050  56.748 -50.949  1.00  0.00     0.247 A 
HETATM   12  O   UNL     1     -45.228  57.046 -50.784  1.00  0.00    -0.268 OA
HETATM   13  C   UNL     1     -43.615  55.341 -50.788  1.00  0.00     0.074 A 
HETATM   14  C   UNL     1     -42.329  55.016 -50.955  1.00  0.00     0.007 A 
HETATM   15  C   UNL     1     -42.491  60.240 -53.219  1.00  0.00     0.241 C 
ENDROOT
BRANCH   1  16
HETATM   16  C   UNL     1     -41.984  59.270 -55.440  1.00  0.00     0.273 C 
BRANCH  16  17
HETATM   17  C   UNL     1     -42.394  58.124 -56.323  1.00  0.00    -0.028 A 
HETATM   18  C   UNL     1     -42.772  58.368 -57.656  1.00  0.00     0.031 A 
HETATM   19  C   UNL     1     -43.246  57.332 -58.467  1.00  0.00     0.047 A 
HETATM   20  C   UNL     1     -43.359  56.041 -57.954  1.00  0.00     0.116 A 
HETATM   21 BR   UNL     1     -43.774  57.752 -60.237  1.00  0.00    -0.048 Br
HETATM   22  C   UNL     1     -42.929  55.776 -56.652  1.00  0.00     0.103 A 
HETATM   23  C   UNL     1     -42.463  56.812 -55.834  1.00  0.00     0.048 A 
BRANCH  20  24
HETATM   24  O   UNL     1     -43.936  55.060 -58.709  1.00  0.00    -0.357 OA
HETATM   25  H   UNL     1     -43.229  54.641 -59.232  1.00  0.00     0.218 HD
ENDBRANCH  20  24
BRANCH  22  26
HETATM   26  O   UNL     1     -43.030  54.535 -56.080  1.00  0.00    -0.353 OA
HETATM   27  C   UNL     1     -42.066  54.326 -55.043  1.00  0.00     0.210 C 
ENDBRANCH  22  26
ENDBRANCH  16  17
ENDBRANCH   1  16
TORSDOF 4
ENDMDL
MODEL 7
REMARK VINA RESULT:      -6.9      1.468      2.310
REMARK  4 active torsions:
REMARK  status: ('A' for Active; 'I' for Inactive)
REMARK    1  A    between atoms: O_2  and  C_3 
REMARK    2  A    between atoms: C_4  and  O_5 
REMARK    3  A    between atoms: C_9  and  C_10 
REMARK    4  A    between atoms: C_10  and  N_11 
ROOT
HETATM    1  N   UNL     1     -41.317  56.596 -51.225  1.00  0.00    -0.066 N 
HETATM    2  H   UNL     1     -40.784  56.087 -51.948  1.00  0.00     0.280 HD
HETATM    3  C   UNL     1     -41.144  55.802 -49.943  1.00  0.00     0.246 C 
HETATM    4  C   UNL     1     -41.825  54.421 -50.047  1.00  0.00     0.062 C 
HETATM    5  C   UNL     1     -43.311  54.613 -50.326  1.00  0.00     0.020 C 
HETATM    6  C   UNL     1     -43.448  55.294 -51.680  1.00  0.00     0.031 C 
HETATM    7  C   UNL     1     -42.899  54.372 -52.767  1.00  0.00     0.138 C 
HETATM    8  N   UNL     1     -41.635  53.707 -52.451  1.00  0.00    -0.317 N 
HETATM    9  C   UNL     1     -41.175  53.583 -51.136  1.00  0.00     0.020 A 
HETATM   10  C   UNL     1     -40.161  52.745 -50.859  1.00  0.00     0.026 A 
HETATM   11  C   UNL     1     -41.069  52.977 -53.512  1.00  0.00     0.247 A 
HETATM   12  O   UNL     1     -41.452  53.060 -54.674  1.00  0.00    -0.268 OA
HETATM   13  C   UNL     1     -39.948  52.071 -53.167  1.00  0.00     0.074 A 
HETATM   14  C   UNL     1     -39.538  51.969 -51.899  1.00  0.00     0.007 A 
HETATM   15  C   UNL     1     -42.761  56.661 -51.683  1.00  0.00     0.241 C 
ENDROOT
BRANCH   1  16
HETATM   16  C   UNL     1     -40.741  57.999 -51.173  1.00  0.00     0.273 C 
BRANCH  16  17
HETATM   17  C   UNL     1     -41.523  59.077 -51.872  1.00  0.00    -0.028 A 
HETATM   18  C   UNL     1     -41.560  59.116 -53.278  1.00  0.00     0.031 A 
HETATM   19  C   UNL     1     -42.201  60.161 -53.949  1.00  0.00     0.047 A 
HETATM   20  C   UNL     1     -42.804  61.188 -53.225  1.00  0.00     0.116 A 
HETATM   21 BR   UNL     1     -42.170  60.161 -55.844  1.00  0.00    -0.048 Br
HETATM   22  C   UNL     1     -42.826  61.128 -51.830  1.00  0.00     0.103 A 
HETATM   23  C   UNL     1     -42.177  60.088 -51.155  1.00  0.00     0.048 A 
BRANCH  20  24
HETATM   24  O   UNL     1     -43.321  62.268 -53.883  1.00  0.00    -0.357 OA
HETATM   25  H   UNL     1     -44.076  61.952 -54.412  1.00  0.00     0.218 HD
ENDBRANCH  20  24
BRANCH  22  26
HETATM   26  O   UNL     1     -43.384  62.113 -51.058  1.00  0.00    -0.353 OA
HETATM   27  C   UNL     1     -44.658  61.738 -50.524  1.00  0.00     0.210 C 
ENDBRANCH  22  26
ENDBRANCH  16  17
ENDBRANCH   1  16
TORSDOF 4
ENDMDL
MODEL 8
REMARK VINA RESULT:      -6.9     17.013     18.642
REMARK  4 active torsions:
REMARK  status: ('A' for Active; 'I' for Inactive)
REMARK    1  A    between atoms: O_2  and  C_3 
REMARK    2  A    between atoms: C_4  and  O_5 
REMARK    3  A    between atoms: C_9  and  C_10 
REMARK    4  A    between atoms: C_10  and  N_11 
ROOT
HETATM    1  N   UNL     1     -35.508  41.478 -54.485  1.00  0.00    -0.066 N 
HETATM    2  H   UNL     1     -36.397  41.091 -54.839  1.00  0.00     0.280 HD
HETATM    3  C   UNL     1     -35.056  42.497 -55.517  1.00  0.00     0.246 C 
HETATM    4  C   UNL     1     -34.694  41.813 -56.851  1.00  0.00     0.062 C 
HETATM    5  C   UNL     1     -33.575  40.805 -56.614  1.00  0.00     0.020 C 
HETATM    6  C   UNL     1     -34.109  39.729 -55.678  1.00  0.00     0.031 C 
HETATM    7  C   UNL     1     -35.251  38.984 -56.366  1.00  0.00     0.138 C 
HETATM    8  N   UNL     1     -36.215  39.823 -57.076  1.00  0.00    -0.317 N 
HETATM    9  C   UNL     1     -35.913  41.135 -57.456  1.00  0.00     0.020 A 
HETATM   10  C   UNL     1     -36.708  41.779 -58.328  1.00  0.00     0.026 A 
HETATM   11  C   UNL     1     -37.336  39.140 -57.580  1.00  0.00     0.247 A 
HETATM   12  O   UNL     1     -37.627  37.989 -57.270  1.00  0.00    -0.268 OA
HETATM   13  C   UNL     1     -38.192  39.886 -58.532  1.00  0.00     0.074 A 
HETATM   14  C   UNL     1     -37.871  41.136 -58.882  1.00  0.00     0.007 A 
HETATM   15  C   UNL     1     -34.535  40.325 -54.336  1.00  0.00     0.241 C 
ENDROOT
BRANCH   1  16
HETATM   16  C   UNL     1     -35.808  42.064 -53.118  1.00  0.00     0.273 C 
BRANCH  16  17
HETATM   17  C   UNL     1     -35.601  41.160 -51.934  1.00  0.00    -0.028 A 
HETATM   18  C   UNL     1     -34.323  41.040 -51.360  1.00  0.00     0.031 A 
HETATM   19  C   UNL     1     -34.086  40.136 -50.320  1.00  0.00     0.047 A 
HETATM   20  C   UNL     1     -35.122  39.332 -49.847  1.00  0.00     0.116 A 
HETATM   21 BR   UNL     1     -32.326  40.005 -49.631  1.00  0.00    -0.048 Br
HETATM   22  C   UNL     1     -36.408  39.487 -50.367  1.00  0.00     0.103 A 
HETATM   23  C   UNL     1     -36.647  40.384 -51.415  1.00  0.00     0.048 A 
BRANCH  20  24
HETATM   24  O   UNL     1     -34.859  38.367 -48.917  1.00  0.00    -0.357 OA
HETATM   25  H   UNL     1     -34.643  37.548 -49.400  1.00  0.00     0.218 HD
ENDBRANCH  20  24
BRANCH  22  26
HETATM   26  O   UNL     1     -37.466  38.717 -49.960  1.00  0.00    -0.353 OA
HETATM   27  C   UNL     1     -38.563  38.757 -50.879  1.00  0.00     0.210 C 
ENDBRANCH  22  26
ENDBRANCH  16  17
ENDBRANCH   1  16
TORSDOF 4
ENDMDL
MODEL 9
REMARK VINA RESULT:      -6.8      3.071      5.497
REMARK  4 active torsions:
REMARK  status: ('A' for Active; 'I' for Inactive)
REMARK    1  A    between atoms: O_2  and  C_3 
REMARK    2  A    between atoms: C_4  and  O_5 
REMARK    3  A    between atoms: C_9  and  C_10 
REMARK    4  A    between atoms: C_10  and  N_11 
ROOT
HETATM    1  N   UNL     1     -42.011  55.288 -53.362  1.00  0.00    -0.066 N 
HETATM    2  H   UNL     1     -41.706  56.274 -53.327  1.00  0.00     0.280 HD
HETATM    3  C   UNL     1     -43.467  55.287 -52.931  1.00  0.00     0.246 C 
HETATM    4  C   UNL     1     -43.609  55.701 -51.451  1.00  0.00     0.062 C 
HETATM    5  C   UNL     1     -42.824  54.729 -50.578  1.00  0.00     0.020 C 
HETATM    6  C   UNL     1     -41.352  54.854 -50.949  1.00  0.00     0.031 C 
HETATM    7  C   UNL     1     -40.865  56.262 -50.612  1.00  0.00     0.138 C 
HETATM    8  N   UNL     1     -41.768  57.350 -50.986  1.00  0.00    -0.317 N 
HETATM    9  C   UNL     1     -43.124  57.127 -51.243  1.00  0.00     0.020 A 
HETATM   10  C   UNL     1     -43.970  58.169 -51.321  1.00  0.00     0.026 A 
HETATM   11  C   UNL     1     -41.245  58.642 -50.802  1.00  0.00     0.247 A 
HETATM   12  O   UNL     1     -40.062  58.871 -50.572  1.00  0.00    -0.268 OA
HETATM   13  C   UNL     1     -42.207  59.765 -50.904  1.00  0.00     0.074 A 
HETATM   14  C   UNL     1     -43.499  59.517 -51.142  1.00  0.00     0.007 A 
HETATM   15  C   UNL     1     -41.121  54.501 -52.420  1.00  0.00     0.241 C 
ENDROOT
BRANCH   1  16
HETATM   16  C   UNL     1     -41.781  54.815 -54.785  1.00  0.00     0.273 C 
BRANCH  16  17
HETATM   17  C   UNL     1     -42.280  55.712 -55.885  1.00  0.00    -0.028 A 
HETATM   18  C   UNL     1     -42.888  55.152 -57.023  1.00  0.00     0.031 A 
HETATM   19  C   UNL     1     -43.275  55.957 -58.098  1.00  0.00     0.047 A 
HETATM   20  C   UNL     1     -43.049  57.332 -58.056  1.00  0.00     0.116 A 
HETATM   21 BR   UNL     1     -44.048  55.120 -59.612  1.00  0.00    -0.048 Br
HETATM   22  C   UNL     1     -42.502  57.906 -56.906  1.00  0.00     0.103 A 
HETATM   23  C   UNL     1     -42.106  57.102 -55.831  1.00  0.00     0.048 A 
BRANCH  20  24
HETATM   24  O   UNL     1     -43.315  58.096 -59.156  1.00  0.00    -0.357 OA
HETATM   25  H   UNL     1     -43.379  57.495 -59.920  1.00  0.00     0.218 HD
ENDBRANCH  20  24
BRANCH  22  26
HETATM   26  O   UNL     1     -42.238  59.246 -56.805  1.00  0.00    -0.353 OA
HETATM   27  C   UNL     1     -42.114  59.684 -55.448  1.00  0.00     0.210 C 
ENDBRANCH  22  26
ENDBRANCH  16  17
ENDBRANCH   1  16
TORSDOF 4
ENDMDL
MODEL 10
REMARK VINA RESULT:      -6.8      3.425      7.456
REMARK  4 active torsions:
REMARK  status: ('A' for Active; 'I' for Inactive)
REMARK    1  A    between atoms: O_2  and  C_3 
REMARK    2  A    between atoms: C_4  and  O_5 
REMARK    3  A    between atoms: C_9  and  C_10 
REMARK    4  A    between atoms: C_10  and  N_11 
ROOT
HETATM    1  N   UNL     1     -43.737  57.109 -51.602  1.00  0.00    -0.066 N 
HETATM    2  H   UNL     1     -44.425  57.659 -51.065  1.00  0.00     0.280 HD
HETATM    3  C   UNL     1     -42.387  57.749 -51.331  1.00  0.00     0.246 C 
HETATM    4  C   UNL     1     -42.316  59.171 -51.925  1.00  0.00     0.062 C 
HETATM    5  C   UNL     1     -42.548  59.100 -53.430  1.00  0.00     0.020 C 
HETATM    6  C   UNL     1     -43.960  58.577 -53.660  1.00  0.00     0.031 C 
HETATM    7  C   UNL     1     -44.967  59.576 -53.093  1.00  0.00     0.138 C 
HETATM    8  N   UNL     1     -44.638  60.127 -51.779  1.00  0.00    -0.317 N 
HETATM    9  C   UNL     1     -43.339  60.081 -51.264  1.00  0.00     0.020 A 
HETATM   10  C   UNL     1     -43.019  60.821 -50.188  1.00  0.00     0.026 A 
HETATM   11  C   UNL     1     -45.640  60.931 -51.207  1.00  0.00     0.247 A 
HETATM   12  O   UNL     1     -46.787  60.996 -51.636  1.00  0.00    -0.268 OA
HETATM   13  C   UNL     1     -45.252  61.725 -50.018  1.00  0.00     0.074 A 
HETATM   14  C   UNL     1     -43.999  61.666 -49.555  1.00  0.00     0.007 A 
HETATM   15  C   UNL     1     -44.135  57.180 -53.062  1.00  0.00     0.241 C 
ENDROOT
BRANCH   1  16
HETATM   16  C   UNL     1     -43.857  55.676 -51.116  1.00  0.00     0.273 C 
BRANCH  16  17
HETATM   17  C   UNL     1     -42.627  54.818 -51.228  1.00  0.00    -0.028 A 
HETATM   18  C   UNL     1     -42.177  54.402 -52.494  1.00  0.00     0.031 A 
HETATM   19  C   UNL     1     -41.092  53.528 -52.617  1.00  0.00     0.047 A 
HETATM   20  C   UNL     1     -40.450  53.050 -51.476  1.00  0.00     0.116 A 
HETATM   21 BR   UNL     1     -40.576  52.982 -54.356  1.00  0.00    -0.048 Br
HETATM   22  C   UNL     1     -40.849  53.504 -50.218  1.00  0.00     0.103 A 
HETATM   23  C   UNL     1     -41.940  54.372 -50.090  1.00  0.00     0.048 A 
BRANCH  20  24
HETATM   24  O   UNL     1     -39.472  52.103 -51.596  1.00  0.00    -0.357 OA
HETATM   25  H   UNL     1     -39.211  51.839 -50.695  1.00  0.00     0.218 HD
ENDBRANCH  20  24
BRANCH  22  26
HETATM   26  O   UNL     1     -40.273  53.061 -49.056  1.00  0.00    -0.353 OA
HETATM   27  C   UNL     1     -40.324  54.034 -48.009  1.00  0.00     0.210 C 
ENDBRANCH  22  26
ENDBRANCH  16  17
ENDBRANCH   1  16
TORSDOF 4
ENDMDL
