MODEL 1
REMARK VINA RESULT:      -8.8      0.000      0.000
REMARK  11 active torsions:
REMARK  status: ('A' for Active; 'I' for Inactive)
REMARK    1  A    between atoms: O_2  and  C_3 
REMARK    2  A    between atoms: C_6  and  C_7 
REMARK    3  A    between atoms: C_7  and  C_8 
REMARK    4  A    between atoms: C_8  and  N_9 
REMARK    5  A    between atoms: C_13  and  C_14 
REMARK    6  A    between atoms: C_14  and  C_15 
REMARK    7  A    between atoms: C_25  and  N_26 
REMARK    8  A    between atoms: N_26  and  C_27 
REMARK    9  A    between atoms: C_27  and  C_28 
REMARK   10  A    between atoms: C_28  and  O_29 
REMARK   11  A    between atoms: C_28  and  C_30 
ROOT
HETATM    1  C   UNL     1     -43.422  57.763 -57.207  1.00  0.00     0.074 A 
HETATM    2  C   UNL     1     -44.430  57.940 -58.298  1.00  0.00     0.266 A 
HETATM    3  O   UNL     1     -45.014  59.020 -58.419  1.00  0.00    -0.267 OA
HETATM    4  N   UNL     1     -44.647  56.849 -59.119  1.00  0.00    -0.273 N 
HETATM    5  C   UNL     1     -43.978  55.666 -58.868  1.00  0.00     0.138 A 
HETATM    6  N   UNL     1     -43.136  55.493 -57.898  1.00  0.00    -0.218 NA
HETATM    7  C   UNL     1     -45.547  56.957 -60.173  1.00  0.00     0.102 A 
HETATM    8  C   UNL     1     -45.801  55.928 -60.992  1.00  0.00     0.018 A 
HETATM    9  C   UNL     1     -45.134  54.670 -60.786  1.00  0.00     0.005 A 
HETATM   10  C   UNL     1     -44.263  54.522 -59.781  1.00  0.00     0.051 A 
HETATM   11  C   UNL     1     -42.856  56.544 -57.065  1.00  0.00     0.121 A 
ENDROOT
BRANCH   1  12
HETATM   12  C   UNL     1     -43.156  58.930 -56.378  1.00  0.00     0.045 C 
BRANCH  12  13
HETATM   13  C   UNL     1     -43.758  59.276 -55.235  1.00  0.00     0.077 A 
HETATM   14  S   UNL     1     -45.203  60.173 -55.005  1.00  0.00    -0.055 SA
HETATM   15  C   UNL     1     -45.177  59.950 -53.259  1.00  0.00     0.148 A 
HETATM   16  N   UNL     1     -44.110  59.151 -52.908  1.00  0.00    -0.298 N 
HETATM   17  S   UNL     1     -46.320  60.639 -52.258  1.00  0.00    -0.052 SA
HETATM   18  C   UNL     1     -43.250  58.787 -53.927  1.00  0.00     0.266 A 
HETATM   19  O   UNL     1     -42.217  58.142 -53.798  1.00  0.00    -0.266 OA
BRANCH  16  20
HETATM   20  C   UNL     1     -43.849  58.634 -51.563  1.00  0.00     0.138 C 
BRANCH  20  21
HETATM   21  C   UNL     1     -44.200  57.149 -51.417  1.00  0.00     0.059 C 
BRANCH  21  22
HETATM   22  C   UNL     1     -43.049  56.378 -50.816  1.00  0.00    -0.057 A 
HETATM   23  C   UNL     1     -43.240  55.069 -50.360  1.00  0.00     0.010 A 
HETATM   24  C   UNL     1     -42.187  54.366 -49.770  1.00  0.00     0.037 A 
HETATM   25  C   UNL     1     -40.927  54.949 -49.638  1.00  0.00     0.068 A 
HETATM   26  C   UNL     1     -40.731  56.255 -50.089  1.00  0.00     0.037 A 
HETATM   27  C   UNL     1     -41.787  56.966 -50.673  1.00  0.00     0.010 A 
BRANCH  25  28
HETATM   28  O   UNL     1     -39.985  54.152 -49.048  1.00  0.00    -0.356 OA
HETATM   29  C   UNL     1     -40.228  53.765 -47.702  1.00  0.00     0.210 C 
ENDBRANCH  25  28
ENDBRANCH  21  22
ENDBRANCH  20  21
ENDBRANCH  16  20
ENDBRANCH  12  13
ENDBRANCH   1  12
BRANCH  11  30
HETATM   30  N   UNL     1     -41.932  56.266 -56.063  1.00  0.00    -0.274 NA
HETATM   31  H   UNL     1     -41.063  56.728 -56.338  1.00  0.00     0.129 HD
BRANCH  30  32
HETATM   32  C   UNL     1     -41.595  54.879 -55.686  1.00  0.00     0.130 C 
BRANCH  32  33
HETATM   33  C   UNL     1     -41.700  54.633 -54.160  1.00  0.00     0.164 C 
BRANCH  33  34
HETATM   34  O   UNL     1     -43.079  54.547 -53.769  1.00  0.00    -0.390 OA
HETATM   35  H   UNL     1     -43.575  54.471 -54.610  1.00  0.00     0.210 HD
ENDBRANCH  33  34
BRANCH  33  36
HETATM   36  C   UNL     1     -40.952  53.378 -53.756  1.00  0.00    -0.029 A 
HETATM   37  C   UNL     1     -40.854  52.304 -54.655  1.00  0.00     0.010 A 
HETATM   38  C   UNL     1     -40.197  51.127 -54.291  1.00  0.00     0.001 A 
HETATM   39  C   UNL     1     -39.627  51.007 -53.025  1.00  0.00     0.000 A 
HETATM   40  C   UNL     1     -39.715  52.064 -52.122  1.00  0.00     0.001 A 
HETATM   41  C   UNL     1     -40.375  53.240 -52.484  1.00  0.00     0.010 A 
ENDBRANCH  33  36
ENDBRANCH  32  33
ENDBRANCH  30  32
ENDBRANCH  11  30
TORSDOF 11
ENDMDL
MODEL 2
REMARK VINA RESULT:      -8.2      2.379      8.008
REMARK  11 active torsions:
REMARK  status: ('A' for Active; 'I' for Inactive)
REMARK    1  A    between atoms: O_2  and  C_3 
REMARK    2  A    between atoms: C_6  and  C_7 
REMARK    3  A    between atoms: C_7  and  C_8 
REMARK    4  A    between atoms: C_8  and  N_9 
REMARK    5  A    between atoms: C_13  and  C_14 
REMARK    6  A    between atoms: C_14  and  C_15 
REMARK    7  A    between atoms: C_25  and  N_26 
REMARK    8  A    between atoms: N_26  and  C_27 
REMARK    9  A    between atoms: C_27  and  C_28 
REMARK   10  A    between atoms: C_28  and  O_29 
REMARK   11  A    between atoms: C_28  and  C_30 
ROOT
HETATM    1  C   UNL     1     -42.875  54.947 -53.064  1.00  0.00     0.074 A 
HETATM    2  C   UNL     1     -41.973  54.304 -52.058  1.00  0.00     0.266 A 
HETATM    3  O   UNL     1     -42.012  54.670 -50.881  1.00  0.00    -0.267 OA
HETATM    4  N   UNL     1     -41.130  53.314 -52.530  1.00  0.00    -0.273 N 
HETATM    5  C   UNL     1     -41.126  53.012 -53.879  1.00  0.00     0.138 A 
HETATM    6  N   UNL     1     -41.874  53.595 -54.762  1.00  0.00    -0.218 NA
HETATM    7  C   UNL     1     -40.289  52.653 -51.643  1.00  0.00     0.102 A 
HETATM    8  C   UNL     1     -39.447  51.694 -52.049  1.00  0.00     0.018 A 
HETATM    9  C   UNL     1     -39.398  51.331 -53.440  1.00  0.00     0.005 A 
HETATM   10  C   UNL     1     -40.187  51.944 -54.330  1.00  0.00     0.051 A 
HETATM   11  C   UNL     1     -42.751  54.565 -54.354  1.00  0.00     0.121 A 
ENDROOT
BRANCH   1  12
HETATM   12  C   UNL     1     -43.799  55.950 -52.553  1.00  0.00     0.045 C 
BRANCH  12  13
HETATM   13  C   UNL     1     -43.784  57.268 -52.780  1.00  0.00     0.077 A 
HETATM   14  S   UNL     1     -42.709  58.456 -52.166  1.00  0.00    -0.055 SA
HETATM   15  C   UNL     1     -43.429  59.742 -53.129  1.00  0.00     0.148 A 
HETATM   16  N   UNL     1     -44.420  59.222 -53.934  1.00  0.00    -0.298 N 
HETATM   17  S   UNL     1     -42.917  61.326 -53.020  1.00  0.00    -0.052 SA
HETATM   18  C   UNL     1     -44.716  57.882 -53.761  1.00  0.00     0.266 A 
HETATM   19  O   UNL     1     -45.606  57.265 -54.331  1.00  0.00    -0.266 OA
BRANCH  16  20
HETATM   20  C   UNL     1     -45.142  59.962 -54.970  1.00  0.00     0.138 C 
BRANCH  20  21
HETATM   21  C   UNL     1     -44.375  60.035 -56.295  1.00  0.00     0.059 C 
BRANCH  21  22
HETATM   22  C   UNL     1     -45.255  59.630 -57.453  1.00  0.00    -0.057 A 
HETATM   23  C   UNL     1     -45.861  58.369 -57.470  1.00  0.00     0.010 A 
HETATM   24  C   UNL     1     -46.645  57.977 -58.557  1.00  0.00     0.037 A 
HETATM   25  C   UNL     1     -46.849  58.838 -59.635  1.00  0.00     0.068 A 
HETATM   26  C   UNL     1     -46.246  60.096 -59.624  1.00  0.00     0.037 A 
HETATM   27  C   UNL     1     -45.451  60.489 -58.540  1.00  0.00     0.010 A 
BRANCH  25  28
HETATM   28  O   UNL     1     -47.640  58.334 -60.630  1.00  0.00    -0.356 OA
HETATM   29  C   UNL     1     -47.990  59.225 -61.682  1.00  0.00     0.210 C 
ENDBRANCH  25  28
ENDBRANCH  21  22
ENDBRANCH  20  21
ENDBRANCH  16  20
ENDBRANCH  12  13
ENDBRANCH   1  12
BRANCH  11  30
HETATM   30  N   UNL     1     -43.519  55.124 -55.370  1.00  0.00    -0.274 NA
HETATM   31  H   UNL     1     -43.808  54.350 -55.972  1.00  0.00     0.129 HD
BRANCH  30  32
HETATM   32  C   UNL     1     -42.987  56.188 -56.245  1.00  0.00     0.130 C 
BRANCH  32  33
HETATM   33  C   UNL     1     -42.863  55.739 -57.723  1.00  0.00     0.164 C 
BRANCH  33  34
HETATM   34  O   UNL     1     -43.986  54.920 -58.085  1.00  0.00    -0.390 OA
HETATM   35  H   UNL     1     -44.339  55.325 -58.904  1.00  0.00     0.210 HD
ENDBRANCH  33  34
BRANCH  33  36
HETATM   36  C   UNL     1     -42.754  56.934 -58.650  1.00  0.00    -0.029 A 
HETATM   37  C   UNL     1     -42.024  58.065 -58.247  1.00  0.00     0.010 A 
HETATM   38  C   UNL     1     -41.938  59.188 -59.071  1.00  0.00     0.001 A 
HETATM   39  C   UNL     1     -42.577  59.197 -60.310  1.00  0.00     0.000 A 
HETATM   40  C   UNL     1     -43.302  58.082 -60.724  1.00  0.00     0.001 A 
HETATM   41  C   UNL     1     -43.393  56.960 -59.899  1.00  0.00     0.010 A 
ENDBRANCH  33  36
ENDBRANCH  32  33
ENDBRANCH  30  32
ENDBRANCH  11  30
TORSDOF 11
ENDMDL
MODEL 3
REMARK VINA RESULT:      -8.2      2.965      6.146
REMARK  11 active torsions:
REMARK  status: ('A' for Active; 'I' for Inactive)
REMARK    1  A    between atoms: O_2  and  C_3 
REMARK    2  A    between atoms: C_6  and  C_7 
REMARK    3  A    between atoms: C_7  and  C_8 
REMARK    4  A    between atoms: C_8  and  N_9 
REMARK    5  A    between atoms: C_13  and  C_14 
REMARK    6  A    between atoms: C_14  and  C_15 
REMARK    7  A    between atoms: C_25  and  N_26 
REMARK    8  A    between atoms: N_26  and  C_27 
REMARK    9  A    between atoms: C_27  and  C_28 
REMARK   10  A    between atoms: C_28  and  O_29 
REMARK   11  A    between atoms: C_28  and  C_30 
ROOT
HETATM    1  C   UNL     1     -43.027  59.886 -57.206  1.00  0.00     0.074 A 
HETATM    2  C   UNL     1     -43.250  61.347 -56.977  1.00  0.00     0.266 A 
HETATM    3  O   UNL     1     -44.248  61.723 -56.357  1.00  0.00    -0.267 OA
HETATM    4  N   UNL     1     -42.295  62.204 -57.495  1.00  0.00    -0.273 N 
HETATM    5  C   UNL     1     -41.239  61.685 -58.221  1.00  0.00     0.138 A 
HETATM    6  N   UNL     1     -41.064  60.424 -58.459  1.00  0.00    -0.218 NA
HETATM    7  C   UNL     1     -42.424  63.573 -57.291  1.00  0.00     0.102 A 
HETATM    8  C   UNL     1     -41.534  64.447 -57.779  1.00  0.00     0.018 A 
HETATM    9  C   UNL     1     -40.410  63.970 -58.540  1.00  0.00     0.005 A 
HETATM   10  C   UNL     1     -40.249  62.660 -58.764  1.00  0.00     0.051 A 
HETATM   11  C   UNL     1     -41.960  59.521 -57.950  1.00  0.00     0.121 A 
ENDROOT
BRANCH   1  12
HETATM   12  C   UNL     1     -44.005  58.984 -56.613  1.00  0.00     0.045 C 
BRANCH  12  13
HETATM   13  C   UNL     1     -44.030  58.513 -55.361  1.00  0.00     0.077 A 
HETATM   14  S   UNL     1     -44.885  59.111 -53.999  1.00  0.00    -0.055 SA
HETATM   15  C   UNL     1     -44.374  57.777 -52.972  1.00  0.00     0.148 A 
HETATM   16  N   UNL     1     -43.623  56.885 -53.707  1.00  0.00    -0.298 N 
HETATM   17  S   UNL     1     -44.791  57.687 -51.358  1.00  0.00    -0.052 SA
HETATM   18  C   UNL     1     -43.339  57.244 -55.011  1.00  0.00     0.266 A 
HETATM   19  O   UNL     1     -42.633  56.618 -55.790  1.00  0.00    -0.266 OA
BRANCH  16  20
HETATM   20  C   UNL     1     -43.145  55.586 -53.226  1.00  0.00     0.138 C 
BRANCH  20  21
HETATM   21  C   UNL     1     -41.692  55.627 -52.743  1.00  0.00     0.059 C 
BRANCH  21  22
HETATM   22  C   UNL     1     -41.045  54.268 -52.856  1.00  0.00    -0.057 A 
HETATM   23  C   UNL     1     -41.061  53.578 -54.074  1.00  0.00     0.010 A 
HETATM   24  C   UNL     1     -40.497  52.304 -54.172  1.00  0.00     0.037 A 
HETATM   25  C   UNL     1     -39.896  51.705 -53.065  1.00  0.00     0.068 A 
HETATM   26  C   UNL     1     -39.880  52.386 -51.848  1.00  0.00     0.037 A 
HETATM   27  C   UNL     1     -40.453  53.660 -51.743  1.00  0.00     0.010 A 
BRANCH  25  28
HETATM   28  O   UNL     1     -39.379  50.461 -53.297  1.00  0.00    -0.356 OA
HETATM   29  C   UNL     1     -39.700  49.858 -54.544  1.00  0.00     0.210 C 
ENDBRANCH  25  28
ENDBRANCH  21  22
ENDBRANCH  20  21
ENDBRANCH  16  20
ENDBRANCH  12  13
ENDBRANCH   1  12
BRANCH  11  30
HETATM   30  N   UNL     1     -41.682  58.191 -58.247  1.00  0.00    -0.274 NA
HETATM   31  H   UNL     1     -40.705  58.037 -57.990  1.00  0.00     0.129 HD
BRANCH  30  32
HETATM   32  C   UNL     1     -41.872  57.647 -59.606  1.00  0.00     0.130 C 
BRANCH  32  33
HETATM   33  C   UNL     1     -42.699  56.336 -59.615  1.00  0.00     0.164 C 
BRANCH  33  34
HETATM   34  O   UNL     1     -42.576  55.667 -58.350  1.00  0.00    -0.390 OA
HETATM   35  H   UNL     1     -43.491  55.608 -58.007  1.00  0.00     0.210 HD
ENDBRANCH  33  34
BRANCH  33  36
HETATM   36  C   UNL     1     -44.155  56.611 -59.933  1.00  0.00    -0.029 A 
HETATM   37  C   UNL     1     -45.025  55.541 -60.204  1.00  0.00     0.010 A 
HETATM   38  C   UNL     1     -46.362  55.775 -60.531  1.00  0.00     0.001 A 
HETATM   39  C   UNL     1     -46.850  57.079 -60.590  1.00  0.00     0.000 A 
HETATM   40  C   UNL     1     -46.000  58.150 -60.323  1.00  0.00     0.001 A 
HETATM   41  C   UNL     1     -44.663  57.918 -60.000  1.00  0.00     0.010 A 
ENDBRANCH  33  36
ENDBRANCH  32  33
ENDBRANCH  30  32
ENDBRANCH  11  30
TORSDOF 11
ENDMDL
MODEL 4
REMARK VINA RESULT:      -8.1      3.384      6.353
REMARK  11 active torsions:
REMARK  status: ('A' for Active; 'I' for Inactive)
REMARK    1  A    between atoms: O_2  and  C_3 
REMARK    2  A    between atoms: C_6  and  C_7 
REMARK    3  A    between atoms: C_7  and  C_8 
REMARK    4  A    between atoms: C_8  and  N_9 
REMARK    5  A    between atoms: C_13  and  C_14 
REMARK    6  A    between atoms: C_14  and  C_15 
REMARK    7  A    between atoms: C_25  and  N_26 
REMARK    8  A    between atoms: N_26  and  C_27 
REMARK    9  A    between atoms: C_27  and  C_28 
REMARK   10  A    between atoms: C_28  and  O_29 
REMARK   11  A    between atoms: C_28  and  C_30 
ROOT
HETATM    1  C   UNL     1     -42.795  57.709 -57.187  1.00  0.00     0.074 A 
HETATM    2  C   UNL     1     -43.024  56.259 -57.471  1.00  0.00     0.266 A 
HETATM    3  O   UNL     1     -42.600  55.408 -56.685  1.00  0.00    -0.267 OA
HETATM    4  N   UNL     1     -43.714  55.960 -58.632  1.00  0.00    -0.273 N 
HETATM    5  C   UNL     1     -44.103  56.985 -59.474  1.00  0.00     0.138 A 
HETATM    6  N   UNL     1     -43.870  58.241 -59.254  1.00  0.00    -0.218 NA
HETATM    7  C   UNL     1     -43.990  54.632 -58.940  1.00  0.00     0.102 A 
HETATM    8  C   UNL     1     -44.646  54.289 -60.056  1.00  0.00     0.018 A 
HETATM    9  C   UNL     1     -45.081  55.309 -60.972  1.00  0.00     0.005 A 
HETATM   10  C   UNL     1     -44.834  56.599 -60.716  1.00  0.00     0.051 A 
HETATM   11  C   UNL     1     -43.215  58.605 -58.108  1.00  0.00     0.121 A 
ENDROOT
BRANCH   1  12
HETATM   12  C   UNL     1     -42.116  58.022 -55.937  1.00  0.00     0.045 C 
BRANCH  12  13
HETATM   13  C   UNL     1     -42.593  57.898 -54.693  1.00  0.00     0.077 A 
HETATM   14  S   UNL     1     -44.113  58.390 -54.066  1.00  0.00    -0.055 SA
HETATM   15  C   UNL     1     -43.798  57.679 -52.487  1.00  0.00     0.148 A 
HETATM   16  N   UNL     1     -42.579  57.036 -52.500  1.00  0.00    -0.298 N 
HETATM   17  S   UNL     1     -44.878  57.812 -51.221  1.00  0.00    -0.052 SA
HETATM   18  C   UNL     1     -41.829  57.158 -53.655  1.00  0.00     0.266 A 
HETATM   19  O   UNL     1     -40.700  56.718 -53.827  1.00  0.00    -0.266 OA
BRANCH  16  20
HETATM   20  C   UNL     1     -42.047  56.212 -51.413  1.00  0.00     0.138 C 
BRANCH  20  21
HETATM   21  C   UNL     1     -42.651  54.805 -51.380  1.00  0.00     0.059 C 
BRANCH  21  22
HETATM   22  C   UNL     1     -41.752  53.813 -52.078  1.00  0.00    -0.057 A 
HETATM   23  C   UNL     1     -40.732  53.167 -51.370  1.00  0.00     0.010 A 
HETATM   24  C   UNL     1     -39.874  52.277 -52.020  1.00  0.00     0.037 A 
HETATM   25  C   UNL     1     -40.028  52.006 -53.380  1.00  0.00     0.068 A 
HETATM   26  C   UNL     1     -41.041  52.649 -54.091  1.00  0.00     0.037 A 
HETATM   27  C   UNL     1     -41.898  53.549 -53.444  1.00  0.00     0.010 A 
BRANCH  25  28
HETATM   28  O   UNL     1     -39.127  51.114 -53.892  1.00  0.00    -0.356 OA
HETATM   29  C   UNL     1     -39.599  49.794 -54.131  1.00  0.00     0.210 C 
ENDBRANCH  25  28
ENDBRANCH  21  22
ENDBRANCH  20  21
ENDBRANCH  16  20
ENDBRANCH  12  13
ENDBRANCH   1  12
BRANCH  11  30
HETATM   30  N   UNL     1     -43.022  59.973 -57.954  1.00  0.00    -0.274 NA
HETATM   31  H   UNL     1     -43.911  60.354 -57.621  1.00  0.00     0.129 HD
BRANCH  30  32
HETATM   32  C   UNL     1     -42.571  60.821 -59.075  1.00  0.00     0.130 C 
BRANCH  32  33
HETATM   33  C   UNL     1     -41.727  62.034 -58.606  1.00  0.00     0.164 C 
BRANCH  33  34
HETATM   34  O   UNL     1     -40.965  61.683 -57.441  1.00  0.00    -0.390 OA
HETATM   35  H   UNL     1     -40.673  60.761 -57.600  1.00  0.00     0.210 HD
ENDBRANCH  33  34
BRANCH  33  36
HETATM   36  C   UNL     1     -40.815  62.526 -59.712  1.00  0.00    -0.029 A 
HETATM   37  C   UNL     1     -41.103  62.204 -61.049  1.00  0.00     0.010 A 
HETATM   38  C   UNL     1     -40.258  62.620 -62.080  1.00  0.00     0.001 A 
HETATM   39  C   UNL     1     -39.116  63.364 -61.790  1.00  0.00     0.000 A 
HETATM   40  C   UNL     1     -38.818  63.692 -60.470  1.00  0.00     0.001 A 
HETATM   41  C   UNL     1     -39.660  63.274 -59.438  1.00  0.00     0.010 A 
ENDBRANCH  33  36
ENDBRANCH  32  33
ENDBRANCH  30  32
ENDBRANCH  11  30
TORSDOF 11
ENDMDL
MODEL 5
REMARK VINA RESULT:      -8.1      2.692      7.811
REMARK  11 active torsions:
REMARK  status: ('A' for Active; 'I' for Inactive)
REMARK    1  A    between atoms: O_2  and  C_3 
REMARK    2  A    between atoms: C_6  and  C_7 
REMARK    3  A    between atoms: C_7  and  C_8 
REMARK    4  A    between atoms: C_8  and  N_9 
REMARK    5  A    between atoms: C_13  and  C_14 
REMARK    6  A    between atoms: C_14  and  C_15 
REMARK    7  A    between atoms: C_25  and  N_26 
REMARK    8  A    between atoms: N_26  and  C_27 
REMARK    9  A    between atoms: C_27  and  C_28 
REMARK   10  A    between atoms: C_28  and  O_29 
REMARK   11  A    between atoms: C_28  and  C_30 
ROOT
HETATM    1  C   UNL     1     -42.823  54.885 -53.181  1.00  0.00     0.074 A 
HETATM    2  C   UNL     1     -41.944  54.250 -52.150  1.00  0.00     0.266 A 
HETATM    3  O   UNL     1     -41.981  54.653 -50.985  1.00  0.00    -0.267 OA
HETATM    4  N   UNL     1     -41.123  53.226 -52.587  1.00  0.00    -0.273 N 
HETATM    5  C   UNL     1     -41.118  52.884 -53.926  1.00  0.00     0.138 A 
HETATM    6  N   UNL     1     -41.845  53.458 -54.831  1.00  0.00    -0.218 NA
HETATM    7  C   UNL     1     -40.304  52.571 -51.673  1.00  0.00     0.102 A 
HETATM    8  C   UNL     1     -39.484  51.580 -52.045  1.00  0.00     0.018 A 
HETATM    9  C   UNL     1     -39.435  51.174 -53.424  1.00  0.00     0.005 A 
HETATM   10  C   UNL     1     -40.203  51.780 -54.337  1.00  0.00     0.051 A 
HETATM   11  C   UNL     1     -42.701  54.462 -54.459  1.00  0.00     0.121 A 
ENDROOT
BRANCH   1  12
HETATM   12  C   UNL     1     -43.725  55.925 -52.708  1.00  0.00     0.045 C 
BRANCH  12  13
HETATM   13  C   UNL     1     -43.661  57.238 -52.954  1.00  0.00     0.077 A 
HETATM   14  S   UNL     1     -42.539  58.394 -52.361  1.00  0.00    -0.055 SA
HETATM   15  C   UNL     1     -43.214  59.692 -53.340  1.00  0.00     0.148 A 
HETATM   16  N   UNL     1     -44.227  59.199 -54.133  1.00  0.00    -0.298 N 
HETATM   17  S   UNL     1     -42.642  61.258 -53.255  1.00  0.00    -0.052 SA
HETATM   18  C   UNL     1     -44.574  57.874 -53.940  1.00  0.00     0.266 A 
HETATM   19  O   UNL     1     -45.488  57.283 -54.498  1.00  0.00    -0.266 OA
BRANCH  16  20
HETATM   20  C   UNL     1     -44.925  59.951 -55.177  1.00  0.00     0.138 C 
BRANCH  20  21
HETATM   21  C   UNL     1     -44.675  59.394 -56.582  1.00  0.00     0.059 C 
BRANCH  21  22
HETATM   22  C   UNL     1     -43.777  60.311 -57.377  1.00  0.00    -0.057 A 
HETATM   23  C   UNL     1     -42.390  60.272 -57.194  1.00  0.00     0.010 A 
HETATM   24  C   UNL     1     -41.559  61.145 -57.900  1.00  0.00     0.037 A 
HETATM   25  C   UNL     1     -42.094  62.059 -58.808  1.00  0.00     0.068 A 
HETATM   26  C   UNL     1     -43.476  62.104 -58.993  1.00  0.00     0.037 A 
HETATM   27  C   UNL     1     -44.313  61.236 -58.280  1.00  0.00     0.010 A 
BRANCH  25  28
HETATM   28  O   UNL     1     -41.172  62.851 -59.435  1.00  0.00    -0.356 OA
HETATM   29  C   UNL     1     -39.804  62.536 -59.213  1.00  0.00     0.210 C 
ENDBRANCH  25  28
ENDBRANCH  21  22
ENDBRANCH  20  21
ENDBRANCH  16  20
ENDBRANCH  12  13
ENDBRANCH   1  12
BRANCH  11  30
HETATM   30  N   UNL     1     -43.448  55.009 -55.496  1.00  0.00    -0.274 NA
HETATM   31  H   UNL     1     -43.803  54.220 -56.041  1.00  0.00     0.129 HD
BRANCH  30  32
HETATM   32  C   UNL     1     -42.860  55.972 -56.448  1.00  0.00     0.130 C 
BRANCH  32  33
HETATM   33  C   UNL     1     -42.917  55.475 -57.914  1.00  0.00     0.164 C 
BRANCH  33  34
HETATM   34  O   UNL     1     -43.984  54.527 -58.071  1.00  0.00    -0.390 OA
HETATM   35  H   UNL     1     -44.603  54.947 -58.704  1.00  0.00     0.210 HD
ENDBRANCH  33  34
BRANCH  33  36
HETATM   36  C   UNL     1     -43.086  56.633 -58.878  1.00  0.00    -0.029 A 
HETATM   37  C   UNL     1     -44.373  57.018 -59.288  1.00  0.00     0.010 A 
HETATM   38  C   UNL     1     -44.549  58.060 -60.200  1.00  0.00     0.001 A 
HETATM   39  C   UNL     1     -43.442  58.734 -60.713  1.00  0.00     0.000 A 
HETATM   40  C   UNL     1     -42.160  58.365 -60.314  1.00  0.00     0.001 A 
HETATM   41  C   UNL     1     -41.982  57.320 -59.406  1.00  0.00     0.010 A 
ENDBRANCH  33  36
ENDBRANCH  32  33
ENDBRANCH  30  32
ENDBRANCH  11  30
TORSDOF 11
ENDMDL
MODEL 6
REMARK VINA RESULT:      -8.0      3.953      5.049
REMARK  11 active torsions:
REMARK  status: ('A' for Active; 'I' for Inactive)
REMARK    1  A    between atoms: O_2  and  C_3 
REMARK    2  A    between atoms: C_6  and  C_7 
REMARK    3  A    between atoms: C_7  and  C_8 
REMARK    4  A    between atoms: C_8  and  N_9 
REMARK    5  A    between atoms: C_13  and  C_14 
REMARK    6  A    between atoms: C_14  and  C_15 
REMARK    7  A    between atoms: C_25  and  N_26 
REMARK    8  A    between atoms: N_26  and  C_27 
REMARK    9  A    between atoms: C_27  and  C_28 
REMARK   10  A    between atoms: C_28  and  O_29 
REMARK   11  A    between atoms: C_28  and  C_30 
ROOT
HETATM    1  C   UNL     1     -42.242  58.442 -54.772  1.00  0.00     0.074 A 
HETATM    2  C   UNL     1     -42.062  58.789 -56.216  1.00  0.00     0.266 A 
HETATM    3  O   UNL     1     -41.656  59.912 -56.528  1.00  0.00    -0.267 OA
HETATM    4  N   UNL     1     -42.376  57.801 -57.131  1.00  0.00    -0.273 N 
HETATM    5  C   UNL     1     -42.874  56.592 -56.682  1.00  0.00     0.138 A 
HETATM    6  N   UNL     1     -43.073  56.301 -55.435  1.00  0.00    -0.218 NA
HETATM    7  C   UNL     1     -42.201  58.047 -58.489  1.00  0.00     0.102 A 
HETATM    8  C   UNL     1     -42.498  57.128 -59.416  1.00  0.00     0.018 A 
HETATM    9  C   UNL     1     -43.017  55.848 -59.013  1.00  0.00     0.005 A 
HETATM   10  C   UNL     1     -43.205  55.571 -57.717  1.00  0.00     0.051 A 
HETATM   11  C   UNL     1     -42.755  57.228 -54.477  1.00  0.00     0.121 A 
ENDROOT
BRANCH   1  12
HETATM   12  C   UNL     1     -41.859  59.466 -53.810  1.00  0.00     0.045 C 
BRANCH  12  13
HETATM   13  C   UNL     1     -42.631  60.422 -53.282  1.00  0.00     0.077 A 
HETATM   14  S   UNL     1     -43.965  61.242 -53.984  1.00  0.00    -0.055 SA
HETATM   15  C   UNL     1     -44.323  62.126 -52.505  1.00  0.00     0.148 A 
HETATM   16  N   UNL     1     -43.461  61.728 -51.505  1.00  0.00    -0.298 N 
HETATM   17  S   UNL     1     -45.547  63.256 -52.419  1.00  0.00    -0.052 SA
HETATM   18  C   UNL     1     -42.466  60.839 -51.865  1.00  0.00     0.266 A 
HETATM   19  O   UNL     1     -41.573  60.428 -51.137  1.00  0.00    -0.266 OA
BRANCH  16  20
HETATM   20  C   UNL     1     -43.547  62.141 -50.103  1.00  0.00     0.138 C 
BRANCH  20  21
HETATM   21  C   UNL     1     -44.436  61.217 -49.263  1.00  0.00     0.059 C 
BRANCH  21  22
HETATM   22  C   UNL     1     -44.751  61.839 -47.924  1.00  0.00    -0.057 A 
HETATM   23  C   UNL     1     -44.886  63.227 -47.806  1.00  0.00     0.010 A 
HETATM   24  C   UNL     1     -45.141  63.809 -46.562  1.00  0.00     0.037 A 
HETATM   25  C   UNL     1     -45.279  63.018 -45.421  1.00  0.00     0.068 A 
HETATM   26  C   UNL     1     -45.143  61.634 -45.532  1.00  0.00     0.037 A 
HETATM   27  C   UNL     1     -44.879  61.048 -46.777  1.00  0.00     0.010 A 
BRANCH  25  28
HETATM   28  O   UNL     1     -45.531  63.712 -44.270  1.00  0.00    -0.356 OA
HETATM   29  C   UNL     1     -46.703  64.518 -44.254  1.00  0.00     0.210 C 
ENDBRANCH  25  28
ENDBRANCH  21  22
ENDBRANCH  20  21
ENDBRANCH  16  20
ENDBRANCH  12  13
ENDBRANCH   1  12
BRANCH  11  30
HETATM   30  N   UNL     1     -42.991  56.820 -53.168  1.00  0.00    -0.274 NA
HETATM   31  H   UNL     1     -43.150  57.672 -52.626  1.00  0.00     0.129 HD
BRANCH  30  32
HETATM   32  C   UNL     1     -42.013  56.001 -52.426  1.00  0.00     0.130 C 
BRANCH  32  33
HETATM   33  C   UNL     1     -42.510  54.554 -52.180  1.00  0.00     0.164 C 
BRANCH  33  34
HETATM   34  O   UNL     1     -43.741  54.329 -52.884  1.00  0.00    -0.390 OA
HETATM   35  H   UNL     1     -44.415  54.219 -52.183  1.00  0.00     0.210 HD
ENDBRANCH  33  34
BRANCH  33  36
HETATM   36  C   UNL     1     -41.464  53.539 -52.596  1.00  0.00    -0.029 A 
HETATM   37  C   UNL     1     -41.378  53.136 -53.940  1.00  0.00     0.010 A 
HETATM   38  C   UNL     1     -40.443  52.179 -54.339  1.00  0.00     0.001 A 
HETATM   39  C   UNL     1     -39.581  51.612 -53.403  1.00  0.00     0.000 A 
HETATM   40  C   UNL     1     -39.653  52.001 -52.067  1.00  0.00     0.001 A 
HETATM   41  C   UNL     1     -40.590  52.955 -51.667  1.00  0.00     0.010 A 
ENDBRANCH  33  36
ENDBRANCH  32  33
ENDBRANCH  30  32
ENDBRANCH  11  30
TORSDOF 11
ENDMDL
MODEL 7
REMARK VINA RESULT:      -7.8      2.220      7.952
REMARK  11 active torsions:
REMARK  status: ('A' for Active; 'I' for Inactive)
REMARK    1  A    between atoms: O_2  and  C_3 
REMARK    2  A    between atoms: C_6  and  C_7 
REMARK    3  A    between atoms: C_7  and  C_8 
REMARK    4  A    between atoms: C_8  and  N_9 
REMARK    5  A    between atoms: C_13  and  C_14 
REMARK    6  A    between atoms: C_14  and  C_15 
REMARK    7  A    between atoms: C_25  and  N_26 
REMARK    8  A    between atoms: N_26  and  C_27 
REMARK    9  A    between atoms: C_27  and  C_28 
REMARK   10  A    between atoms: C_28  and  O_29 
REMARK   11  A    between atoms: C_28  and  C_30 
ROOT
HETATM    1  C   UNL     1     -41.395  54.618 -52.838  1.00  0.00     0.074 A 
HETATM    2  C   UNL     1     -40.532  53.702 -52.028  1.00  0.00     0.266 A 
HETATM    3  O   UNL     1     -40.076  54.089 -50.949  1.00  0.00    -0.267 OA
HETATM    4  N   UNL     1     -40.295  52.448 -52.562  1.00  0.00    -0.273 N 
HETATM    5  C   UNL     1     -40.810  52.130 -53.804  1.00  0.00     0.138 A 
HETATM    6  N   UNL     1     -41.521  52.934 -54.530  1.00  0.00    -0.218 NA
HETATM    7  C   UNL     1     -39.528  51.536 -51.845  1.00  0.00     0.102 A 
HETATM    8  C   UNL     1     -39.261  50.313 -52.320  1.00  0.00     0.018 A 
HETATM    9  C   UNL     1     -39.771  49.919 -53.607  1.00  0.00     0.005 A 
HETATM   10  C   UNL     1     -40.510  50.767 -54.331  1.00  0.00     0.051 A 
HETATM   11  C   UNL     1     -41.815  54.182 -54.046  1.00  0.00     0.121 A 
ENDROOT
BRANCH   1  12
HETATM   12  C   UNL     1     -41.687  55.917 -52.249  1.00  0.00     0.045 C 
BRANCH  12  13
HETATM   13  C   UNL     1     -42.058  57.037 -52.879  1.00  0.00     0.077 A 
HETATM   14  S   UNL     1     -41.079  58.220 -53.644  1.00  0.00    -0.055 SA
HETATM   15  C   UNL     1     -42.468  59.126 -54.234  1.00  0.00     0.148 A 
HETATM   16  N   UNL     1     -43.631  58.473 -53.889  1.00  0.00    -0.298 N 
HETATM   17  S   UNL     1     -42.302  60.554 -55.082  1.00  0.00    -0.052 SA
HETATM   18  C   UNL     1     -43.495  57.349 -53.094  1.00  0.00     0.266 A 
HETATM   19  O   UNL     1     -44.412  56.682 -52.633  1.00  0.00    -0.266 OA
BRANCH  16  20
HETATM   20  C   UNL     1     -44.975  58.852 -54.328  1.00  0.00     0.138 C 
BRANCH  20  21
HETATM   21  C   UNL     1     -45.586  57.849 -55.312  1.00  0.00     0.059 C 
BRANCH  21  22
HETATM   22  C   UNL     1     -45.823  58.489 -56.660  1.00  0.00    -0.057 A 
HETATM   23  C   UNL     1     -45.082  59.612 -57.046  1.00  0.00     0.010 A 
HETATM   24  C   UNL     1     -45.325  60.228 -58.276  1.00  0.00     0.037 A 
HETATM   25  C   UNL     1     -46.296  59.728 -59.144  1.00  0.00     0.068 A 
HETATM   26  C   UNL     1     -47.038  58.610 -58.762  1.00  0.00     0.037 A 
HETATM   27  C   UNL     1     -46.804  57.995 -57.526  1.00  0.00     0.010 A 
BRANCH  25  28
HETATM   28  O   UNL     1     -46.429  60.421 -60.315  1.00  0.00    -0.356 OA
HETATM   29  C   UNL     1     -47.066  59.742 -61.390  1.00  0.00     0.210 C 
ENDBRANCH  25  28
ENDBRANCH  21  22
ENDBRANCH  20  21
ENDBRANCH  16  20
ENDBRANCH  12  13
ENDBRANCH   1  12
BRANCH  11  30
HETATM   30  N   UNL     1     -42.594  54.968 -54.889  1.00  0.00    -0.274 NA
HETATM   31  H   UNL     1     -43.562  54.670 -54.747  1.00  0.00     0.129 HD
BRANCH  30  32
HETATM   32  C   UNL     1     -42.355  55.010 -56.345  1.00  0.00     0.130 C 
BRANCH  32  33
HETATM   33  C   UNL     1     -42.894  56.306 -57.002  1.00  0.00     0.164 C 
BRANCH  33  34
HETATM   34  O   UNL     1     -41.839  57.272 -57.125  1.00  0.00    -0.390 OA
HETATM   35  H   UNL     1     -42.237  58.118 -56.832  1.00  0.00     0.210 HD
ENDBRANCH  33  34
BRANCH  33  36
HETATM   36  C   UNL     1     -43.514  56.017 -58.354  1.00  0.00    -0.029 A 
HETATM   37  C   UNL     1     -43.639  57.048 -59.300  1.00  0.00     0.010 A 
HETATM   38  C   UNL     1     -44.235  56.810 -60.540  1.00  0.00     0.001 A 
HETATM   39  C   UNL     1     -44.714  55.539 -60.852  1.00  0.00     0.000 A 
HETATM   40  C   UNL     1     -44.596  54.506 -59.926  1.00  0.00     0.001 A 
HETATM   41  C   UNL     1     -44.003  54.744 -58.685  1.00  0.00     0.010 A 
ENDBRANCH  33  36
ENDBRANCH  32  33
ENDBRANCH  30  32
ENDBRANCH  11  30
TORSDOF 11
ENDMDL
MODEL 8
REMARK VINA RESULT:      -7.8      2.466      8.303
REMARK  11 active torsions:
REMARK  status: ('A' for Active; 'I' for Inactive)
REMARK    1  A    between atoms: O_2  and  C_3 
REMARK    2  A    between atoms: C_6  and  C_7 
REMARK    3  A    between atoms: C_7  and  C_8 
REMARK    4  A    between atoms: C_8  and  N_9 
REMARK    5  A    between atoms: C_13  and  C_14 
REMARK    6  A    between atoms: C_14  and  C_15 
REMARK    7  A    between atoms: C_25  and  N_26 
REMARK    8  A    between atoms: N_26  and  C_27 
REMARK    9  A    between atoms: C_27  and  C_28 
REMARK   10  A    between atoms: C_28  and  O_29 
REMARK   11  A    between atoms: C_28  and  C_30 
ROOT
HETATM    1  C   UNL     1     -43.091  55.196 -53.818  1.00  0.00     0.074 A 
HETATM    2  C   UNL     1     -42.108  54.108 -54.112  1.00  0.00     0.266 A 
HETATM    3  O   UNL     1     -41.964  53.712 -55.272  1.00  0.00    -0.267 OA
HETATM    4  N   UNL     1     -41.409  53.601 -53.032  1.00  0.00    -0.273 N 
HETATM    5  C   UNL     1     -41.681  54.077 -51.763  1.00  0.00     0.138 A 
HETATM    6  N   UNL     1     -42.562  54.989 -51.497  1.00  0.00    -0.218 NA
HETATM    7  C   UNL     1     -40.456  52.609 -53.240  1.00  0.00     0.102 A 
HETATM    8  C   UNL     1     -39.758  52.078 -52.228  1.00  0.00     0.018 A 
HETATM    9  C   UNL     1     -39.992  52.533 -50.883  1.00  0.00     0.005 A 
HETATM   10  C   UNL     1     -40.902  53.483 -50.638  1.00  0.00     0.051 A 
HETATM   11  C   UNL     1     -43.269  55.551 -52.527  1.00  0.00     0.121 A 
ENDROOT
BRANCH   1  12
HETATM   12  C   UNL     1     -43.786  55.765 -54.965  1.00  0.00     0.045 C 
BRANCH  12  13
HETATM   13  C   UNL     1     -43.406  56.802 -55.720  1.00  0.00     0.077 A 
HETATM   14  S   UNL     1     -43.261  58.456 -55.287  1.00  0.00    -0.055 SA
HETATM   15  C   UNL     1     -42.604  58.908 -56.856  1.00  0.00     0.148 A 
HETATM   16  N   UNL     1     -42.456  57.784 -57.640  1.00  0.00    -0.298 N 
HETATM   17  S   UNL     1     -42.241  60.489 -57.245  1.00  0.00    -0.052 SA
HETATM   18  C   UNL     1     -42.927  56.596 -57.112  1.00  0.00     0.266 A 
HETATM   19  O   UNL     1     -42.945  55.514 -57.683  1.00  0.00    -0.266 OA
BRANCH  16  20
HETATM   20  C   UNL     1     -41.810  57.749 -58.953  1.00  0.00     0.138 C 
BRANCH  20  21
HETATM   21  C   UNL     1     -42.600  58.506 -60.026  1.00  0.00     0.059 C 
BRANCH  21  22
HETATM   22  C   UNL     1     -43.943  57.860 -60.266  1.00  0.00    -0.057 A 
HETATM   23  C   UNL     1     -45.119  58.607 -60.129  1.00  0.00     0.010 A 
HETATM   24  C   UNL     1     -46.365  58.003 -60.315  1.00  0.00     0.037 A 
HETATM   25  C   UNL     1     -46.458  56.653 -60.652  1.00  0.00     0.068 A 
HETATM   26  C   UNL     1     -45.290  55.903 -60.788  1.00  0.00     0.037 A 
HETATM   27  C   UNL     1     -44.039  56.503 -60.594  1.00  0.00     0.010 A 
BRANCH  25  28
HETATM   28  O   UNL     1     -47.735  56.188 -60.809  1.00  0.00    -0.356 OA
HETATM   29  C   UNL     1     -48.450  56.656 -61.946  1.00  0.00     0.210 C 
ENDBRANCH  25  28
ENDBRANCH  21  22
ENDBRANCH  20  21
ENDBRANCH  16  20
ENDBRANCH  12  13
ENDBRANCH   1  12
BRANCH  11  30
HETATM   30  N   UNL     1     -44.181  56.529 -52.145  1.00  0.00    -0.274 NA
HETATM   31  H   UNL     1     -44.291  57.149 -52.950  1.00  0.00     0.129 HD
BRANCH  30  32
HETATM   32  C   UNL     1     -43.951  57.380 -50.960  1.00  0.00     0.130 C 
BRANCH  32  33
HETATM   33  C   UNL     1     -43.560  58.832 -51.334  1.00  0.00     0.164 C 
BRANCH  33  34
HETATM   34  O   UNL     1     -44.196  59.759 -50.441  1.00  0.00    -0.390 OA
HETATM   35  H   UNL     1     -44.756  60.320 -51.017  1.00  0.00     0.210 HD
ENDBRANCH  33  34
BRANCH  33  36
HETATM   36  C   UNL     1     -42.056  59.016 -51.312  1.00  0.00    -0.029 A 
HETATM   37  C   UNL     1     -41.293  58.671 -52.441  1.00  0.00     0.010 A 
HETATM   38  C   UNL     1     -39.904  58.802 -52.430  1.00  0.00     0.001 A 
HETATM   39  C   UNL     1     -39.256  59.282 -51.293  1.00  0.00     0.000 A 
HETATM   40  C   UNL     1     -39.998  59.629 -50.167  1.00  0.00     0.001 A 
HETATM   41  C   UNL     1     -41.387  59.495 -50.175  1.00  0.00     0.010 A 
ENDBRANCH  33  36
ENDBRANCH  32  33
ENDBRANCH  30  32
ENDBRANCH  11  30
TORSDOF 11
ENDMDL
MODEL 9
REMARK VINA RESULT:      -7.8      3.052      7.108
REMARK  11 active torsions:
REMARK  status: ('A' for Active; 'I' for Inactive)
REMARK    1  A    between atoms: O_2  and  C_3 
REMARK    2  A    between atoms: C_6  and  C_7 
REMARK    3  A    between atoms: C_7  and  C_8 
REMARK    4  A    between atoms: C_8  and  N_9 
REMARK    5  A    between atoms: C_13  and  C_14 
REMARK    6  A    between atoms: C_14  and  C_15 
REMARK    7  A    between atoms: C_25  and  N_26 
REMARK    8  A    between atoms: N_26  and  C_27 
REMARK    9  A    between atoms: C_27  and  C_28 
REMARK   10  A    between atoms: C_28  and  O_29 
REMARK   11  A    between atoms: C_28  and  C_30 
ROOT
HETATM    1  C   UNL     1     -43.104  54.869 -53.696  1.00  0.00     0.074 A 
HETATM    2  C   UNL     1     -42.061  53.827 -53.953  1.00  0.00     0.266 A 
HETATM    3  O   UNL     1     -41.880  53.415 -55.101  1.00  0.00    -0.267 OA
HETATM    4  N   UNL     1     -41.353  53.381 -52.852  1.00  0.00    -0.273 N 
HETATM    5  C   UNL     1     -41.668  53.869 -51.598  1.00  0.00     0.138 A 
HETATM    6  N   UNL     1     -42.599  54.739 -51.364  1.00  0.00    -0.218 NA
HETATM    7  C   UNL     1     -40.347  52.437 -53.025  1.00  0.00     0.102 A 
HETATM    8  C   UNL     1     -39.637  51.965 -51.992  1.00  0.00     0.018 A 
HETATM    9  C   UNL     1     -39.914  52.435 -50.661  1.00  0.00     0.005 A 
HETATM   10  C   UNL     1     -40.876  53.341 -50.449  1.00  0.00     0.051 A 
HETATM   11  C   UNL     1     -43.319  55.242 -52.415  1.00  0.00     0.121 A 
ENDROOT
BRANCH   1  12
HETATM   12  C   UNL     1     -43.811  55.376 -54.864  1.00  0.00     0.045 C 
BRANCH  12  13
HETATM   13  C   UNL     1     -43.492  56.434 -55.618  1.00  0.00     0.077 A 
HETATM   14  S   UNL     1     -42.478  56.508 -57.000  1.00  0.00    -0.055 SA
HETATM   15  C   UNL     1     -42.830  58.208 -57.286  1.00  0.00     0.148 A 
HETATM   16  N   UNL     1     -43.754  58.654 -56.364  1.00  0.00    -0.298 N 
HETATM   17  S   UNL     1     -42.108  59.071 -58.518  1.00  0.00    -0.052 SA
HETATM   18  C   UNL     1     -44.124  57.757 -55.379  1.00  0.00     0.266 A 
HETATM   19  O   UNL     1     -44.874  57.992 -54.441  1.00  0.00    -0.266 OA
BRANCH  16  20
HETATM   20  C   UNL     1     -44.391  59.972 -56.377  1.00  0.00     0.138 C 
BRANCH  20  21
HETATM   21  C   UNL     1     -43.493  61.073 -55.804  1.00  0.00     0.059 C 
BRANCH  21  22
HETATM   22  C   UNL     1     -43.942  61.471 -54.418  1.00  0.00    -0.057 A 
HETATM   23  C   UNL     1     -43.011  61.942 -53.484  1.00  0.00     0.010 A 
HETATM   24  C   UNL     1     -43.417  62.275 -52.190  1.00  0.00     0.037 A 
HETATM   25  C   UNL     1     -44.754  62.159 -51.810  1.00  0.00     0.068 A 
HETATM   26  C   UNL     1     -45.685  61.688 -52.736  1.00  0.00     0.037 A 
HETATM   27  C   UNL     1     -45.281  61.344 -54.032  1.00  0.00     0.010 A 
BRANCH  25  28
HETATM   28  O   UNL     1     -45.017  62.522 -50.518  1.00  0.00    -0.356 OA
HETATM   29  C   UNL     1     -46.357  62.364 -50.071  1.00  0.00     0.210 C 
ENDBRANCH  25  28
ENDBRANCH  21  22
ENDBRANCH  20  21
ENDBRANCH  16  20
ENDBRANCH  12  13
ENDBRANCH   1  12
BRANCH  11  30
HETATM   30  N   UNL     1     -44.286  56.178 -52.067  1.00  0.00    -0.274 NA
HETATM   31  H   UNL     1     -44.413  56.779 -52.885  1.00  0.00     0.129 HD
BRANCH  30  32
HETATM   32  C   UNL     1     -44.122  57.060 -50.894  1.00  0.00     0.130 C 
BRANCH  32  33
HETATM   33  C   UNL     1     -43.848  58.533 -51.288  1.00  0.00     0.164 C 
BRANCH  33  34
HETATM   34  O   UNL     1     -44.360  59.416 -50.278  1.00  0.00    -0.390 OA
HETATM   35  H   UNL     1     -45.025  59.967 -50.739  1.00  0.00     0.210 HD
ENDBRANCH  33  34
BRANCH  33  36
HETATM   36  C   UNL     1     -42.367  58.774 -51.507  1.00  0.00    -0.029 A 
HETATM   37  C   UNL     1     -41.801  58.539 -52.771  1.00  0.00     0.010 A 
HETATM   38  C   UNL     1     -40.434  58.724 -52.985  1.00  0.00     0.001 A 
HETATM   39  C   UNL     1     -39.614  59.147 -51.941  1.00  0.00     0.000 A 
HETATM   40  C   UNL     1     -40.160  59.385 -50.682  1.00  0.00     0.001 A 
HETATM   41  C   UNL     1     -41.526  59.197 -50.466  1.00  0.00     0.010 A 
ENDBRANCH  33  36
ENDBRANCH  32  33
ENDBRANCH  30  32
ENDBRANCH  11  30
TORSDOF 11
ENDMDL
MODEL 10
REMARK VINA RESULT:      -7.7      2.798      4.192
REMARK  11 active torsions:
REMARK  status: ('A' for Active; 'I' for Inactive)
REMARK    1  A    between atoms: O_2  and  C_3 
REMARK    2  A    between atoms: C_6  and  C_7 
REMARK    3  A    between atoms: C_7  and  C_8 
REMARK    4  A    between atoms: C_8  and  N_9 
REMARK    5  A    between atoms: C_13  and  C_14 
REMARK    6  A    between atoms: C_14  and  C_15 
REMARK    7  A    between atoms: C_25  and  N_26 
REMARK    8  A    between atoms: N_26  and  C_27 
REMARK    9  A    between atoms: C_27  and  C_28 
REMARK   10  A    between atoms: C_28  and  O_29 
REMARK   11  A    between atoms: C_28  and  C_30 
ROOT
HETATM    1  C   UNL     1     -43.114  57.864 -56.962  1.00  0.00     0.074 A 
HETATM    2  C   UNL     1     -44.053  58.032 -58.115  1.00  0.00     0.266 A 
HETATM    3  O   UNL     1     -44.563  59.134 -58.332  1.00  0.00    -0.267 OA
HETATM    4  N   UNL     1     -44.295  56.906 -58.881  1.00  0.00    -0.273 N 
HETATM    5  C   UNL     1     -43.714  55.703 -58.523  1.00  0.00     0.138 A 
HETATM    6  N   UNL     1     -42.935  55.542 -57.501  1.00  0.00    -0.218 NA
HETATM    7  C   UNL     1     -45.133  56.999 -59.987  1.00  0.00     0.102 A 
HETATM    8  C   UNL     1     -45.408  55.938 -60.756  1.00  0.00     0.018 A 
HETATM    9  C   UNL     1     -44.832  54.658 -60.438  1.00  0.00     0.005 A 
HETATM   10  C   UNL     1     -44.023  54.522 -59.381  1.00  0.00     0.051 A 
HETATM   11  C   UNL     1     -42.633  56.625 -56.718  1.00  0.00     0.121 A 
ENDROOT
BRANCH   1  12
HETATM   12  C   UNL     1     -42.819  59.064 -56.192  1.00  0.00     0.045 C 
BRANCH  12  13
HETATM   13  C   UNL     1     -43.456  59.516 -55.106  1.00  0.00     0.077 A 
HETATM   14  S   UNL     1     -44.969  60.320 -54.999  1.00  0.00    -0.055 SA
HETATM   15  C   UNL     1     -44.940  60.343 -53.239  1.00  0.00     0.148 A 
HETATM   16  N   UNL     1     -43.817  59.686 -52.783  1.00  0.00    -0.298 N 
HETATM   17  S   UNL     1     -46.142  61.072 -52.340  1.00  0.00    -0.052 SA
HETATM   18  C   UNL     1     -42.922  59.254 -53.745  1.00  0.00     0.266 A 
HETATM   19  O   UNL     1     -41.843  58.717 -53.530  1.00  0.00    -0.266 OA
BRANCH  16  20
HETATM   20  C   UNL     1     -43.527  59.383 -51.381  1.00  0.00     0.138 C 
BRANCH  20  21
HETATM   21  C   UNL     1     -42.508  60.344 -50.761  1.00  0.00     0.059 C 
BRANCH  21  22
HETATM   22  C   UNL     1     -43.200  61.495 -50.069  1.00  0.00    -0.057 A 
HETATM   23  C   UNL     1     -42.846  62.815 -50.373  1.00  0.00     0.010 A 
HETATM   24  C   UNL     1     -43.458  63.880 -49.708  1.00  0.00     0.037 A 
HETATM   25  C   UNL     1     -44.439  63.648 -48.744  1.00  0.00     0.068 A 
HETATM   26  C   UNL     1     -44.794  62.335 -48.436  1.00  0.00     0.037 A 
HETATM   27  C   UNL     1     -44.176  61.264 -49.094  1.00  0.00     0.010 A 
BRANCH  25  28
HETATM   28  O   UNL     1     -44.960  64.777 -48.174  1.00  0.00    -0.356 OA
HETATM   29  C   UNL     1     -45.882  64.587 -47.109  1.00  0.00     0.210 C 
ENDBRANCH  25  28
ENDBRANCH  21  22
ENDBRANCH  20  21
ENDBRANCH  16  20
ENDBRANCH  12  13
ENDBRANCH   1  12
BRANCH  11  30
HETATM   30  N   UNL     1     -41.780  56.358 -55.653  1.00  0.00    -0.274 NA
HETATM   31  H   UNL     1     -40.868  56.143 -56.062  1.00  0.00     0.129 HD
BRANCH  30  32
HETATM   32  C   UNL     1     -42.082  55.299 -54.668  1.00  0.00     0.130 C 
BRANCH  32  33
HETATM   33  C   UNL     1     -41.330  53.976 -54.964  1.00  0.00     0.164 C 
BRANCH  33  34
HETATM   34  O   UNL     1     -40.264  54.213 -55.897  1.00  0.00    -0.390 OA
HETATM   35  H   UNL     1     -40.624  54.870 -56.528  1.00  0.00     0.210 HD
ENDBRANCH  33  34
BRANCH  33  36
HETATM   36  C   UNL     1     -40.796  53.354 -53.690  1.00  0.00    -0.029 A 
HETATM   37  C   UNL     1     -40.087  52.143 -53.748  1.00  0.00     0.010 A 
HETATM   38  C   UNL     1     -39.615  51.536 -52.583  1.00  0.00     0.001 A 
HETATM   39  C   UNL     1     -39.842  52.132 -51.344  1.00  0.00     0.000 A 
HETATM   40  C   UNL     1     -40.542  53.334 -51.269  1.00  0.00     0.001 A 
HETATM   41  C   UNL     1     -41.018  53.939 -52.433  1.00  0.00     0.010 A 
ENDBRANCH  33  36
ENDBRANCH  32  33
ENDBRANCH  30  32
ENDBRANCH  11  30
TORSDOF 11
ENDMDL
