MODEL 1
REMARK VINA RESULT:      -8.4      0.000      0.000
REMARK  8 active torsions:
REMARK  status: ('A' for Active; 'I' for Inactive)
REMARK    1  A    between atoms: N_4  and  C_5 
REMARK    2  A    between atoms: C_14  and  C_15 
REMARK    3  A    between atoms: C_15  and  C_16 
REMARK    4  A    between atoms: C_16  and  C_17 
REMARK       I    between atoms: C_17  and  N_18 
REMARK    5  A    between atoms: N_18  and  C_19 
REMARK    6  A    between atoms: C_22  and  S_23 
REMARK    7  A    between atoms: S_23  and  N_24 
REMARK    8  A    between atoms: N_24  and  C_25 
ROOT
HETATM    1  C   UNL     1     -43.684  58.217 -53.039  1.00  0.00     0.222 C 
HETATM    2  N   UNL     1     -44.338  57.477 -54.007  1.00  0.00    -0.327 N 
HETATM    3  O   UNL     1     -42.701  58.933 -53.206  1.00  0.00    -0.273 OA
HETATM    4  H   UNL     1     -45.141  56.937 -53.709  1.00  0.00     0.169 HD
ENDROOT
BRANCH   1   5
HETATM    5  C   UNL     1     -44.298  58.084 -51.656  1.00  0.00     0.108 C 
BRANCH   5   6
HETATM    6  C   UNL     1     -44.133  56.671 -51.104  1.00  0.00     0.055 C 
BRANCH   6   7
HETATM    7  C   UNL     1     -42.802  56.019 -51.277  1.00  0.00     0.030 A 
HETATM    8  C   UNL     1     -41.521  56.324 -51.001  1.00  0.00     0.014 A 
HETATM    9  C   UNL     1     -40.977  57.563 -50.372  1.00  0.00     0.064 C 
HETATM   10  N   UNL     1     -40.635  55.331 -51.403  1.00  0.00    -0.199 NA
HETATM   11  N   UNL     1     -41.395  54.341 -52.036  1.00  0.00    -0.238 N 
HETATM   12  H   UNL     1     -39.897  55.709 -52.002  1.00  0.00     0.153 HD
HETATM   13  C   UNL     1     -42.741  54.688 -51.966  1.00  0.00     0.270 A 
HETATM   14  O   UNL     1     -43.736  54.099 -52.356  1.00  0.00    -0.266 OA
BRANCH  11  15
HETATM   15  C   UNL     1     -40.788  53.172 -52.544  1.00  0.00     0.055 A 
HETATM   16  C   UNL     1     -40.017  52.337 -51.719  1.00  0.00     0.034 A 
HETATM   17  C   UNL     1     -39.425  51.174 -52.225  1.00  0.00     0.044 A 
HETATM   18  C   UNL     1     -39.600  50.841 -53.559  1.00  0.00     0.116 A 
HETATM   19  F   UNL     1     -39.034  49.727 -54.043  1.00  0.00    -0.206 F 
HETATM   20  C   UNL     1     -40.352  51.648 -54.400  1.00  0.00     0.044 A 
HETATM   21  C   UNL     1     -40.941  52.811 -53.894  1.00  0.00     0.034 A 
ENDBRANCH  11  15
ENDBRANCH   6   7
ENDBRANCH   5   6
ENDBRANCH   1   5
BRANCH   2  22
HETATM   22  C   UNL     1     -43.984  57.343 -55.366  1.00  0.00     0.034 A 
HETATM   23  C   UNL     1     -43.239  56.276 -55.877  1.00  0.00     0.031 A 
HETATM   24  C   UNL     1     -42.949  56.200 -57.242  1.00  0.00     0.027 A 
HETATM   25  C   UNL     1     -43.418  57.191 -58.106  1.00  0.00     0.074 A 
HETATM   26  C   UNL     1     -44.141  58.277 -57.610  1.00  0.00     0.027 A 
HETATM   27  C   UNL     1     -44.422  58.347 -56.242  1.00  0.00     0.031 A 
BRANCH  25  28
HETATM   28  S   UNL     1     -43.061  57.084 -59.841  1.00  0.00     0.241 S 
HETATM   29  O   UNL     1     -42.253  58.229 -60.201  1.00  0.00    -0.206 OA
HETATM   30  O   UNL     1     -42.640  55.733 -60.141  1.00  0.00    -0.206 OA
BRANCH  28  31
HETATM   31  N   UNL     1     -44.595  57.362 -60.501  1.00  0.00    -0.211 NA
HETATM   32  H   UNL     1     -44.510  57.686 -61.466  1.00  0.00     0.140 HD
BRANCH  31  33
HETATM   33  C   UNL     1     -45.617  56.353 -60.235  1.00  0.00     0.071 A 
HETATM   34  C   UNL     1     -46.925  56.748 -59.609  1.00  0.00     0.022 A 
HETATM   35  C   UNL     1     -46.883  56.283 -61.037  1.00  0.00     0.022 A 
ENDBRANCH  31  33
ENDBRANCH  28  31
ENDBRANCH  25  28
ENDBRANCH   2  22
TORSDOF 8
ENDMDL
MODEL 2
REMARK VINA RESULT:      -8.3      1.259      1.813
REMARK  8 active torsions:
REMARK  status: ('A' for Active; 'I' for Inactive)
REMARK    1  A    between atoms: N_4  and  C_5 
REMARK    2  A    between atoms: C_14  and  C_15 
REMARK    3  A    between atoms: C_15  and  C_16 
REMARK    4  A    between atoms: C_16  and  C_17 
REMARK       I    between atoms: C_17  and  N_18 
REMARK    5  A    between atoms: N_18  and  C_19 
REMARK    6  A    between atoms: C_22  and  S_23 
REMARK    7  A    between atoms: S_23  and  N_24 
REMARK    8  A    between atoms: N_24  and  C_25 
ROOT
HETATM    1  C   UNL     1     -43.565  58.218 -53.350  1.00  0.00     0.222 C 
HETATM    2  N   UNL     1     -44.350  57.514 -54.246  1.00  0.00    -0.327 N 
HETATM    3  O   UNL     1     -42.518  58.806 -53.600  1.00  0.00    -0.273 OA
HETATM    4  H   UNL     1     -45.192  57.086 -53.883  1.00  0.00     0.169 HD
ENDROOT
BRANCH   1   5
HETATM    5  C   UNL     1     -44.117  58.222 -51.934  1.00  0.00     0.108 C 
BRANCH   5   6
HETATM    6  C   UNL     1     -44.045  56.836 -51.302  1.00  0.00     0.055 C 
BRANCH   6   7
HETATM    7  C   UNL     1     -42.739  56.117 -51.372  1.00  0.00     0.030 A 
HETATM    8  C   UNL     1     -41.476  56.343 -50.968  1.00  0.00     0.014 A 
HETATM    9  C   UNL     1     -40.931  57.530 -50.247  1.00  0.00     0.064 C 
HETATM   10  N   UNL     1     -40.608  55.315 -51.321  1.00  0.00    -0.199 NA
HETATM   11  N   UNL     1     -41.355  54.388 -52.057  1.00  0.00    -0.238 N 
HETATM   12  H   UNL     1     -39.798  55.670 -51.834  1.00  0.00     0.153 HD
HETATM   13  C   UNL     1     -42.682  54.806 -52.100  1.00  0.00     0.270 A 
HETATM   14  O   UNL     1     -43.665  54.285 -52.601  1.00  0.00    -0.266 OA
BRANCH  11  15
HETATM   15  C   UNL     1     -40.764  53.204 -52.547  1.00  0.00     0.055 A 
HETATM   16  C   UNL     1     -40.089  52.321 -51.689  1.00  0.00     0.034 A 
HETATM   17  C   UNL     1     -39.513  51.143 -52.178  1.00  0.00     0.044 A 
HETATM   18  C   UNL     1     -39.607  50.842 -53.528  1.00  0.00     0.116 A 
HETATM   19  F   UNL     1     -39.056  49.714 -53.996  1.00  0.00    -0.206 F 
HETATM   20  C   UNL     1     -40.264  51.698 -54.401  1.00  0.00     0.044 A 
HETATM   21  C   UNL     1     -40.837  52.876 -53.912  1.00  0.00     0.034 A 
ENDBRANCH  11  15
ENDBRANCH   6   7
ENDBRANCH   5   6
ENDBRANCH   1   5
BRANCH   2  22
HETATM   22  C   UNL     1     -44.085  57.276 -55.611  1.00  0.00     0.034 A 
HETATM   23  C   UNL     1     -43.176  56.321 -56.075  1.00  0.00     0.031 A 
HETATM   24  C   UNL     1     -42.987  56.126 -57.446  1.00  0.00     0.027 A 
HETATM   25  C   UNL     1     -43.721  56.882 -58.361  1.00  0.00     0.074 A 
HETATM   26  C   UNL     1     -44.615  57.857 -57.916  1.00  0.00     0.027 A 
HETATM   27  C   UNL     1     -44.794  58.049 -56.543  1.00  0.00     0.031 A 
BRANCH  25  28
HETATM   28  S   UNL     1     -43.490  56.620 -60.101  1.00  0.00     0.241 S 
HETATM   29  O   UNL     1     -42.118  56.212 -60.311  1.00  0.00    -0.206 OA
HETATM   30  O   UNL     1     -44.599  55.838 -60.600  1.00  0.00    -0.206 OA
BRANCH  28  31
HETATM   31  N   UNL     1     -43.605  58.207 -60.681  1.00  0.00    -0.211 NA
HETATM   32  H   UNL     1     -44.436  58.662 -60.300  1.00  0.00     0.140 HD
BRANCH  31  33
HETATM   33  C   UNL     1     -42.374  58.993 -60.693  1.00  0.00     0.071 A 
HETATM   34  C   UNL     1     -42.413  60.454 -61.041  1.00  0.00     0.022 A 
HETATM   35  C   UNL     1     -42.085  60.022 -59.641  1.00  0.00     0.022 A 
ENDBRANCH  31  33
ENDBRANCH  28  31
ENDBRANCH  25  28
ENDBRANCH   2  22
TORSDOF 8
ENDMDL
MODEL 3
REMARK VINA RESULT:      -8.0      1.547      2.291
REMARK  8 active torsions:
REMARK  status: ('A' for Active; 'I' for Inactive)
REMARK    1  A    between atoms: N_4  and  C_5 
REMARK    2  A    between atoms: C_14  and  C_15 
REMARK    3  A    between atoms: C_15  and  C_16 
REMARK    4  A    between atoms: C_16  and  C_17 
REMARK       I    between atoms: C_17  and  N_18 
REMARK    5  A    between atoms: N_18  and  C_19 
REMARK    6  A    between atoms: C_22  and  S_23 
REMARK    7  A    between atoms: S_23  and  N_24 
REMARK    8  A    between atoms: N_24  and  C_25 
ROOT
HETATM    1  C   UNL     1     -42.328  59.857 -54.056  1.00  0.00     0.222 C 
HETATM    2  N   UNL     1     -43.443  59.392 -54.730  1.00  0.00    -0.327 N 
HETATM    3  O   UNL     1     -41.160  59.758 -54.420  1.00  0.00    -0.273 OA
HETATM    4  H   UNL     1     -44.344  59.556 -54.298  1.00  0.00     0.169 HD
ENDROOT
BRANCH   1   5
HETATM    5  C   UNL     1     -42.658  60.548 -52.744  1.00  0.00     0.108 C 
BRANCH   5   6
HETATM    6  C   UNL     1     -42.323  59.665 -51.546  1.00  0.00     0.055 C 
BRANCH   6   7
HETATM    7  C   UNL     1     -42.582  58.201 -51.680  1.00  0.00     0.030 A 
HETATM    8  C   UNL     1     -43.653  57.389 -51.623  1.00  0.00     0.014 A 
HETATM    9  C   UNL     1     -45.078  57.749 -51.368  1.00  0.00     0.064 C 
HETATM   10  N   UNL     1     -43.321  56.051 -51.806  1.00  0.00    -0.199 NA
HETATM   11  N   UNL     1     -41.928  55.992 -51.930  1.00  0.00    -0.238 N 
HETATM   12  H   UNL     1     -43.676  55.471 -51.042  1.00  0.00     0.153 HD
HETATM   13  C   UNL     1     -41.413  57.284 -51.892  1.00  0.00     0.270 A 
HETATM   14  O   UNL     1     -40.267  57.689 -51.999  1.00  0.00    -0.266 OA
BRANCH  11  15
HETATM   15  C   UNL     1     -41.270  54.763 -52.151  1.00  0.00     0.055 A 
HETATM   16  C   UNL     1     -40.606  54.097 -51.109  1.00  0.00     0.034 A 
HETATM   17  C   UNL     1     -39.963  52.874 -51.331  1.00  0.00     0.044 A 
HETATM   18  C   UNL     1     -39.979  52.311 -52.597  1.00  0.00     0.116 A 
HETATM   19  F   UNL     1     -39.365  51.139 -52.809  1.00  0.00    -0.206 F 
HETATM   20  C   UNL     1     -40.624  52.947 -53.648  1.00  0.00     0.044 A 
HETATM   21  C   UNL     1     -41.264  54.170 -53.426  1.00  0.00     0.034 A 
ENDBRANCH  11  15
ENDBRANCH   6   7
ENDBRANCH   5   6
ENDBRANCH   1   5
BRANCH   2  22
HETATM   22  C   UNL     1     -43.470  58.662 -55.937  1.00  0.00     0.034 A 
HETATM   23  C   UNL     1     -43.714  59.231 -57.189  1.00  0.00     0.031 A 
HETATM   24  C   UNL     1     -43.698  58.444 -58.345  1.00  0.00     0.027 A 
HETATM   25  C   UNL     1     -43.425  57.079 -58.248  1.00  0.00     0.074 A 
HETATM   26  C   UNL     1     -43.204  56.488 -57.004  1.00  0.00     0.027 A 
HETATM   27  C   UNL     1     -43.227  57.283 -55.853  1.00  0.00     0.031 A 
BRANCH  25  28
HETATM   28  S   UNL     1     -43.392  56.085 -59.719  1.00  0.00     0.241 S 
HETATM   29  O   UNL     1     -42.200  56.432 -60.463  1.00  0.00    -0.206 OA
HETATM   30  O   UNL     1     -43.688  54.717 -59.356  1.00  0.00    -0.206 OA
BRANCH  28  31
HETATM   31  N   UNL     1     -44.694  56.742 -60.578  1.00  0.00    -0.211 NA
HETATM   32  H   UNL     1     -44.427  56.907 -61.550  1.00  0.00     0.140 HD
BRANCH  31  33
HETATM   33  C   UNL     1     -46.003  56.137 -60.350  1.00  0.00     0.071 A 
HETATM   34  C   UNL     1     -47.046  56.869 -59.553  1.00  0.00     0.022 A 
HETATM   35  C   UNL     1     -47.239  56.653 -61.027  1.00  0.00     0.022 A 
ENDBRANCH  31  33
ENDBRANCH  28  31
ENDBRANCH  25  28
ENDBRANCH   2  22
TORSDOF 8
ENDMDL
MODEL 4
REMARK VINA RESULT:      -7.8      1.754      2.489
REMARK  8 active torsions:
REMARK  status: ('A' for Active; 'I' for Inactive)
REMARK    1  A    between atoms: N_4  and  C_5 
REMARK    2  A    between atoms: C_14  and  C_15 
REMARK    3  A    between atoms: C_15  and  C_16 
REMARK    4  A    between atoms: C_16  and  C_17 
REMARK       I    between atoms: C_17  and  N_18 
REMARK    5  A    between atoms: N_18  and  C_19 
REMARK    6  A    between atoms: C_22  and  S_23 
REMARK    7  A    between atoms: S_23  and  N_24 
REMARK    8  A    between atoms: N_24  and  C_25 
ROOT
HETATM    1  C   UNL     1     -44.691  58.831 -53.627  1.00  0.00     0.222 C 
HETATM    2  N   UNL     1     -44.754  57.651 -54.347  1.00  0.00    -0.327 N 
HETATM    3  O   UNL     1     -44.477  59.952 -54.079  1.00  0.00    -0.273 OA
HETATM    4  H   UNL     1     -44.944  56.804 -53.826  1.00  0.00     0.169 HD
ENDROOT
BRANCH   1   5
HETATM    5  C   UNL     1     -44.919  58.645 -52.137  1.00  0.00     0.108 C 
BRANCH   5   6
HETATM    6  C   UNL     1     -43.604  58.460 -51.387  1.00  0.00     0.055 C 
BRANCH   6   7
HETATM    7  C   UNL     1     -42.515  57.716 -52.087  1.00  0.00     0.030 A 
HETATM    8  C   UNL     1     -41.483  58.023 -52.892  1.00  0.00     0.014 A 
HETATM    9  C   UNL     1     -41.068  59.364 -53.399  1.00  0.00     0.064 C 
HETATM   10  N   UNL     1     -40.763  56.903 -53.292  1.00  0.00    -0.199 NA
HETATM   11  N   UNL     1     -41.414  55.788 -52.754  1.00  0.00    -0.238 N 
HETATM   12  H   UNL     1     -40.676  56.859 -54.310  1.00  0.00     0.153 HD
HETATM   13  C   UNL     1     -42.484  56.220 -51.975  1.00  0.00     0.270 A 
HETATM   14  O   UNL     1     -43.287  55.591 -51.306  1.00  0.00    -0.266 OA
BRANCH  11  15
HETATM   15  C   UNL     1     -40.915  54.484 -52.959  1.00  0.00     0.055 A 
HETATM   16  C   UNL     1     -40.479  53.695 -51.883  1.00  0.00     0.034 A 
HETATM   17  C   UNL     1     -39.994  52.399 -52.091  1.00  0.00     0.044 A 
HETATM   18  C   UNL     1     -39.940  51.886 -53.377  1.00  0.00     0.116 A 
HETATM   19  F   UNL     1     -39.476  50.645 -53.576  1.00  0.00    -0.206 F 
HETATM   20  C   UNL     1     -40.359  52.643 -54.462  1.00  0.00     0.044 A 
HETATM   21  C   UNL     1     -40.842  53.938 -54.253  1.00  0.00     0.034 A 
ENDBRANCH  11  15
ENDBRANCH   6   7
ENDBRANCH   5   6
ENDBRANCH   1   5
BRANCH   2  22
HETATM   22  C   UNL     1     -44.530  57.479 -55.729  1.00  0.00     0.034 A 
HETATM   23  C   UNL     1     -45.356  58.006 -56.725  1.00  0.00     0.031 A 
HETATM   24  C   UNL     1     -45.053  57.814 -58.076  1.00  0.00     0.027 A 
HETATM   25  C   UNL     1     -43.908  57.100 -58.434  1.00  0.00     0.074 A 
HETATM   26  C   UNL     1     -43.085  56.545 -57.454  1.00  0.00     0.027 A 
HETATM   27  C   UNL     1     -43.399  56.738 -56.104  1.00  0.00     0.031 A 
BRANCH  25  28
HETATM   28  S   UNL     1     -43.518  56.871 -60.150  1.00  0.00     0.241 S 
HETATM   29  O   UNL     1     -42.193  56.296 -60.233  1.00  0.00    -0.206 OA
HETATM   30  O   UNL     1     -44.654  56.258 -60.803  1.00  0.00    -0.206 OA
BRANCH  28  31
HETATM   31  N   UNL     1     -43.368  58.478 -60.661  1.00  0.00    -0.211 NA
HETATM   32  H   UNL     1     -44.261  58.964 -60.563  1.00  0.00     0.140 HD
BRANCH  31  33
HETATM   33  C   UNL     1     -42.177  59.199 -60.220  1.00  0.00     0.071 A 
HETATM   34  C   UNL     1     -41.860  60.555 -60.787  1.00  0.00     0.022 A 
HETATM   35  C   UNL     1     -42.270  60.417 -59.349  1.00  0.00     0.022 A 
ENDBRANCH  31  33
ENDBRANCH  28  31
ENDBRANCH  25  28
ENDBRANCH   2  22
TORSDOF 8
ENDMDL
MODEL 5
REMARK VINA RESULT:      -7.6      1.858      2.574
REMARK  8 active torsions:
REMARK  status: ('A' for Active; 'I' for Inactive)
REMARK    1  A    between atoms: N_4  and  C_5 
REMARK    2  A    between atoms: C_14  and  C_15 
REMARK    3  A    between atoms: C_15  and  C_16 
REMARK    4  A    between atoms: C_16  and  C_17 
REMARK       I    between atoms: C_17  and  N_18 
REMARK    5  A    between atoms: N_18  and  C_19 
REMARK    6  A    between atoms: C_22  and  S_23 
REMARK    7  A    between atoms: S_23  and  N_24 
REMARK    8  A    between atoms: N_24  and  C_25 
ROOT
HETATM    1  C   UNL     1     -41.014  58.275 -52.220  1.00  0.00     0.222 C 
HETATM    2  N   UNL     1     -42.209  57.770 -52.701  1.00  0.00    -0.327 N 
HETATM    3  O   UNL     1     -40.298  59.106 -52.770  1.00  0.00    -0.273 OA
HETATM    4  H   UNL     1     -42.687  57.089 -52.124  1.00  0.00     0.169 HD
ENDROOT
BRANCH   1   5
HETATM    5  C   UNL     1     -40.612  57.699 -50.873  1.00  0.00     0.108 C 
BRANCH   5   6
HETATM    6  C   UNL     1     -41.587  56.621 -50.411  1.00  0.00     0.055 C 
BRANCH   6   7
HETATM    7  C   UNL     1     -41.110  55.207 -50.438  1.00  0.00     0.030 A 
HETATM    8  C   UNL     1     -40.677  54.305 -49.539  1.00  0.00     0.014 A 
HETATM    9  C   UNL     1     -40.515  54.468 -48.065  1.00  0.00     0.064 C 
HETATM   10  N   UNL     1     -40.325  53.093 -50.123  1.00  0.00    -0.199 NA
HETATM   11  N   UNL     1     -40.487  53.246 -51.505  1.00  0.00    -0.238 N 
HETATM   12  H   UNL     1     -39.376  52.815 -49.863  1.00  0.00     0.153 HD
HETATM   13  C   UNL     1     -40.997  54.515 -51.764  1.00  0.00     0.270 A 
HETATM   14  O   UNL     1     -41.315  55.045 -52.816  1.00  0.00    -0.266 OA
BRANCH  11  15
HETATM   15  C   UNL     1     -40.231  52.176 -52.389  1.00  0.00     0.055 A 
HETATM   16  C   UNL     1     -40.471  52.299 -53.766  1.00  0.00     0.034 A 
HETATM   17  C   UNL     1     -40.207  51.240 -54.641  1.00  0.00     0.044 A 
HETATM   18  C   UNL     1     -39.700  50.050 -54.142  1.00  0.00     0.116 A 
HETATM   19  F   UNL     1     -39.446  49.035 -54.979  1.00  0.00    -0.206 F 
HETATM   20  C   UNL     1     -39.455  49.896 -52.785  1.00  0.00     0.044 A 
HETATM   21  C   UNL     1     -39.723  50.955 -51.912  1.00  0.00     0.034 A 
ENDBRANCH  11  15
ENDBRANCH   6   7
ENDBRANCH   5   6
ENDBRANCH   1   5
BRANCH   2  22
HETATM   22  C   UNL     1     -42.822  58.057 -53.939  1.00  0.00     0.034 A 
HETATM   23  C   UNL     1     -43.876  58.960 -54.099  1.00  0.00     0.031 A 
HETATM   24  C   UNL     1     -44.414  59.211 -55.364  1.00  0.00     0.027 A 
HETATM   25  C   UNL     1     -43.886  58.562 -56.481  1.00  0.00     0.074 A 
HETATM   26  C   UNL     1     -42.851  57.638 -56.339  1.00  0.00     0.027 A 
HETATM   27  C   UNL     1     -42.322  57.390 -55.068  1.00  0.00     0.031 A 
BRANCH  25  28
HETATM   28  S   UNL     1     -44.561  58.893 -58.089  1.00  0.00     0.241 S 
HETATM   29  O   UNL     1     -45.559  59.932 -57.948  1.00  0.00    -0.206 OA
HETATM   30  O   UNL     1     -43.470  59.012 -59.031  1.00  0.00    -0.206 OA
BRANCH  28  31
HETATM   31  N   UNL     1     -45.412  57.458 -58.381  1.00  0.00    -0.211 NA
HETATM   32  H   UNL     1     -46.113  57.310 -57.653  1.00  0.00     0.140 HD
BRANCH  31  33
HETATM   33  C   UNL     1     -45.833  57.213 -59.757  1.00  0.00     0.071 A 
HETATM   34  C   UNL     1     -45.544  55.892 -60.413  1.00  0.00     0.022 A 
HETATM   35  C   UNL     1     -46.958  56.275 -60.082  1.00  0.00     0.022 A 
ENDBRANCH  31  33
ENDBRANCH  28  31
ENDBRANCH  25  28
ENDBRANCH   2  22
TORSDOF 8
ENDMDL
MODEL 6
REMARK VINA RESULT:      -7.3      2.689      3.623
REMARK  8 active torsions:
REMARK  status: ('A' for Active; 'I' for Inactive)
REMARK    1  A    between atoms: N_4  and  C_5 
REMARK    2  A    between atoms: C_14  and  C_15 
REMARK    3  A    between atoms: C_15  and  C_16 
REMARK    4  A    between atoms: C_16  and  C_17 
REMARK       I    between atoms: C_17  and  N_18 
REMARK    5  A    between atoms: N_18  and  C_19 
REMARK    6  A    between atoms: C_22  and  S_23 
REMARK    7  A    between atoms: S_23  and  N_24 
REMARK    8  A    between atoms: N_24  and  C_25 
ROOT
HETATM    1  C   UNL     1     -40.701  58.474 -52.186  1.00  0.00     0.222 C 
HETATM    2  N   UNL     1     -41.921  58.249 -52.798  1.00  0.00    -0.327 N 
HETATM    3  O   UNL     1     -39.744  59.077 -52.663  1.00  0.00    -0.273 OA
HETATM    4  H   UNL     1     -42.614  57.735 -52.268  1.00  0.00     0.169 HD
ENDROOT
BRANCH   1   5
HETATM    5  C   UNL     1     -40.608  57.892 -50.786  1.00  0.00     0.108 C 
BRANCH   5   6
HETATM    6  C   UNL     1     -41.663  56.813 -50.558  1.00  0.00     0.055 C 
BRANCH   6   7
HETATM    7  C   UNL     1     -41.205  55.393 -50.572  1.00  0.00     0.030 A 
HETATM    8  C   UNL     1     -40.812  54.484 -49.662  1.00  0.00     0.014 A 
HETATM    9  C   UNL     1     -40.692  54.643 -48.183  1.00  0.00     0.064 C 
HETATM   10  N   UNL     1     -40.460  53.267 -50.237  1.00  0.00    -0.199 NA
HETATM   11  N   UNL     1     -40.579  53.424 -51.623  1.00  0.00    -0.238 N 
HETATM   12  H   UNL     1     -39.524  52.975 -49.949  1.00  0.00     0.153 HD
HETATM   13  C   UNL     1     -41.062  54.700 -51.895  1.00  0.00     0.270 A 
HETATM   14  O   UNL     1     -41.341  55.236 -52.955  1.00  0.00    -0.266 OA
BRANCH  11  15
HETATM   15  C   UNL     1     -40.311  52.352 -52.500  1.00  0.00     0.055 A 
HETATM   16  C   UNL     1     -40.549  52.466 -53.879  1.00  0.00     0.034 A 
HETATM   17  C   UNL     1     -40.273  51.404 -54.747  1.00  0.00     0.044 A 
HETATM   18  C   UNL     1     -39.759  50.220 -54.241  1.00  0.00     0.116 A 
HETATM   19  F   UNL     1     -39.494  49.203 -55.072  1.00  0.00    -0.206 F 
HETATM   20  C   UNL     1     -39.518  50.075 -52.882  1.00  0.00     0.044 A 
HETATM   21  C   UNL     1     -39.796  51.137 -52.016  1.00  0.00     0.034 A 
ENDBRANCH  11  15
ENDBRANCH   6   7
ENDBRANCH   5   6
ENDBRANCH   1   5
BRANCH   2  22
HETATM   22  C   UNL     1     -42.299  58.608 -54.109  1.00  0.00     0.034 A 
HETATM   23  C   UNL     1     -42.040  57.827 -55.238  1.00  0.00     0.031 A 
HETATM   24  C   UNL     1     -42.471  58.239 -56.503  1.00  0.00     0.027 A 
HETATM   25  C   UNL     1     -43.177  59.435 -56.637  1.00  0.00     0.074 A 
HETATM   26  C   UNL     1     -43.423  60.240 -55.525  1.00  0.00     0.027 A 
HETATM   27  C   UNL     1     -42.984  59.822 -54.265  1.00  0.00     0.031 A 
BRANCH  25  28
HETATM   28  S   UNL     1     -43.735  59.948 -58.242  1.00  0.00     0.241 S 
HETATM   29  O   UNL     1     -44.262  58.785 -58.923  1.00  0.00    -0.206 OA
HETATM   30  O   UNL     1     -44.514  61.158 -58.094  1.00  0.00    -0.206 OA
BRANCH  28  31
HETATM   31  N   UNL     1     -42.261  60.308 -58.994  1.00  0.00    -0.211 NA
HETATM   32  H   UNL     1     -42.416  60.552 -59.973  1.00  0.00     0.140 HD
BRANCH  31  33
HETATM   33  C   UNL     1     -41.332  61.151 -58.246  1.00  0.00     0.071 A 
HETATM   34  C   UNL     1     -40.461  62.141 -58.968  1.00  0.00     0.022 A 
HETATM   35  C   UNL     1     -41.567  62.622 -58.072  1.00  0.00     0.022 A 
ENDBRANCH  31  33
ENDBRANCH  28  31
ENDBRANCH  25  28
ENDBRANCH   2  22
TORSDOF 8
ENDMDL
MODEL 7
REMARK VINA RESULT:      -7.3      3.741      8.568
REMARK  8 active torsions:
REMARK  status: ('A' for Active; 'I' for Inactive)
REMARK    1  A    between atoms: N_4  and  C_5 
REMARK    2  A    between atoms: C_14  and  C_15 
REMARK    3  A    between atoms: C_15  and  C_16 
REMARK    4  A    between atoms: C_16  and  C_17 
REMARK       I    between atoms: C_17  and  N_18 
REMARK    5  A    between atoms: N_18  and  C_19 
REMARK    6  A    between atoms: C_22  and  S_23 
REMARK    7  A    between atoms: S_23  and  N_24 
REMARK    8  A    between atoms: N_24  and  C_25 
ROOT
HETATM    1  C   UNL     1     -42.719  55.550 -57.105  1.00  0.00     0.222 C 
HETATM    2  N   UNL     1     -41.678  55.829 -56.238  1.00  0.00    -0.327 N 
HETATM    3  O   UNL     1     -43.514  54.619 -57.018  1.00  0.00    -0.273 OA
HETATM    4  H   UNL     1     -41.111  56.641 -56.446  1.00  0.00     0.169 HD
ENDROOT
BRANCH   1   5
HETATM    5  C   UNL     1     -42.830  56.537 -58.255  1.00  0.00     0.108 C 
BRANCH   5   6
HETATM    6  C   UNL     1     -43.017  57.965 -57.752  1.00  0.00     0.055 C 
BRANCH   6   7
HETATM    7  C   UNL     1     -44.099  58.203 -56.752  1.00  0.00     0.030 A 
HETATM    8  C   UNL     1     -45.443  58.262 -56.762  1.00  0.00     0.014 A 
HETATM    9  C   UNL     1     -46.371  58.097 -57.919  1.00  0.00     0.064 C 
HETATM   10  N   UNL     1     -45.977  58.543 -55.509  1.00  0.00    -0.199 NA
HETATM   11  N   UNL     1     -44.896  58.738 -54.642  1.00  0.00    -0.238 N 
HETATM   12  H   UNL     1     -46.607  59.348 -55.544  1.00  0.00     0.153 HD
HETATM   13  C   UNL     1     -43.711  58.513 -55.336  1.00  0.00     0.270 A 
HETATM   14  O   UNL     1     -42.550  58.539 -54.960  1.00  0.00    -0.266 OA
BRANCH  11  15
HETATM   15  C   UNL     1     -45.102  59.021 -53.275  1.00  0.00     0.055 A 
HETATM   16  C   UNL     1     -45.628  60.254 -52.860  1.00  0.00     0.034 A 
HETATM   17  C   UNL     1     -45.841  60.527 -51.504  1.00  0.00     0.044 A 
HETATM   18  C   UNL     1     -45.527  59.567 -50.554  1.00  0.00     0.116 A 
HETATM   19  F   UNL     1     -45.731  59.827 -49.256  1.00  0.00    -0.206 F 
HETATM   20  C   UNL     1     -45.002  58.339 -50.933  1.00  0.00     0.044 A 
HETATM   21  C   UNL     1     -44.788  58.069 -52.288  1.00  0.00     0.034 A 
ENDBRANCH  11  15
ENDBRANCH   6   7
ENDBRANCH   5   6
ENDBRANCH   1   5
BRANCH   2  22
HETATM   22  C   UNL     1     -41.276  55.076 -55.114  1.00  0.00     0.034 A 
HETATM   23  C   UNL     1     -41.582  55.419 -53.795  1.00  0.00     0.031 A 
HETATM   24  C   UNL     1     -41.170  54.607 -52.734  1.00  0.00     0.027 A 
HETATM   25  C   UNL     1     -40.457  53.436 -52.996  1.00  0.00     0.074 A 
HETATM   26  C   UNL     1     -40.121  53.090 -54.305  1.00  0.00     0.027 A 
HETATM   27  C   UNL     1     -40.533  53.912 -55.359  1.00  0.00     0.031 A 
BRANCH  25  28
HETATM   28  S   UNL     1     -39.948  52.399 -51.648  1.00  0.00     0.241 S 
HETATM   29  O   UNL     1     -41.100  51.641 -51.210  1.00  0.00    -0.206 OA
HETATM   30  O   UNL     1     -38.707  51.751 -52.010  1.00  0.00    -0.206 OA
BRANCH  28  31
HETATM   31  N   UNL     1     -39.658  53.556 -50.447  1.00  0.00    -0.211 NA
HETATM   32  H   UNL     1     -39.369  54.439 -50.870  1.00  0.00     0.140 HD
BRANCH  31  33
HETATM   33  C   UNL     1     -40.633  53.635 -49.362  1.00  0.00     0.071 A 
HETATM   34  C   UNL     1     -40.224  54.160 -48.014  1.00  0.00     0.022 A 
HETATM   35  C   UNL     1     -41.165  54.951 -48.876  1.00  0.00     0.022 A 
ENDBRANCH  31  33
ENDBRANCH  28  31
ENDBRANCH  25  28
ENDBRANCH   2  22
TORSDOF 8
ENDMDL
MODEL 8
REMARK VINA RESULT:      -7.2      4.096      7.386
REMARK  8 active torsions:
REMARK  status: ('A' for Active; 'I' for Inactive)
REMARK    1  A    between atoms: N_4  and  C_5 
REMARK    2  A    between atoms: C_14  and  C_15 
REMARK    3  A    between atoms: C_15  and  C_16 
REMARK    4  A    between atoms: C_16  and  C_17 
REMARK       I    between atoms: C_17  and  N_18 
REMARK    5  A    between atoms: N_18  and  C_19 
REMARK    6  A    between atoms: C_22  and  S_23 
REMARK    7  A    between atoms: S_23  and  N_24 
REMARK    8  A    between atoms: N_24  and  C_25 
ROOT
HETATM    1  C   UNL     1     -44.668  58.429 -54.172  1.00  0.00     0.222 C 
HETATM    2  N   UNL     1     -44.470  58.484 -52.804  1.00  0.00    -0.327 N 
HETATM    3  O   UNL     1     -45.098  59.331 -54.885  1.00  0.00    -0.273 OA
HETATM    4  H   UNL     1     -44.103  57.652 -52.359  1.00  0.00     0.169 HD
ENDROOT
BRANCH   1   5
HETATM    5  C   UNL     1     -44.294  57.091 -54.786  1.00  0.00     0.108 C 
BRANCH   5   6
HETATM    6  C   UNL     1     -42.788  56.975 -55.000  1.00  0.00     0.055 C 
BRANCH   6   7
HETATM    7  C   UNL     1     -42.028  56.099 -54.061  1.00  0.00     0.030 A 
HETATM    8  C   UNL     1     -41.416  56.242 -52.871  1.00  0.00     0.014 A 
HETATM    9  C   UNL     1     -41.289  57.470 -52.034  1.00  0.00     0.064 C 
HETATM   10  N   UNL     1     -40.821  55.065 -52.431  1.00  0.00    -0.199 NA
HETATM   11  N   UNL     1     -41.012  54.111 -53.437  1.00  0.00    -0.238 N 
HETATM   12  H   UNL     1     -39.834  55.208 -52.202  1.00  0.00     0.153 HD
HETATM   13  C   UNL     1     -41.775  54.674 -54.456  1.00  0.00     0.270 A 
HETATM   14  O   UNL     1     -42.198  54.192 -55.494  1.00  0.00    -0.266 OA
BRANCH  11  15
HETATM   15  C   UNL     1     -40.541  52.790 -53.286  1.00  0.00     0.055 A 
HETATM   16  C   UNL     1     -39.968  52.357 -52.080  1.00  0.00     0.034 A 
HETATM   17  C   UNL     1     -39.511  51.043 -51.931  1.00  0.00     0.044 A 
HETATM   18  C   UNL     1     -39.623  50.154 -52.989  1.00  0.00     0.116 A 
HETATM   19  F   UNL     1     -39.186  48.895 -52.847  1.00  0.00    -0.206 F 
HETATM   20  C   UNL     1     -40.181  50.553 -54.195  1.00  0.00     0.044 A 
HETATM   21  C   UNL     1     -40.635  51.868 -54.343  1.00  0.00     0.034 A 
ENDBRANCH  11  15
ENDBRANCH   6   7
ENDBRANCH   5   6
ENDBRANCH   1   5
BRANCH   2  22
HETATM   22  C   UNL     1     -44.773  59.555 -51.938  1.00  0.00     0.034 A 
HETATM   23  C   UNL     1     -46.061  60.061 -51.742  1.00  0.00     0.031 A 
HETATM   24  C   UNL     1     -46.284  61.110 -50.845  1.00  0.00     0.027 A 
HETATM   25  C   UNL     1     -45.214  61.650 -50.130  1.00  0.00     0.074 A 
HETATM   26  C   UNL     1     -43.918  61.175 -50.332  1.00  0.00     0.027 A 
HETATM   27  C   UNL     1     -43.703  60.128 -51.234  1.00  0.00     0.031 A 
BRANCH  25  28
HETATM   28  S   UNL     1     -45.504  62.972 -48.982  1.00  0.00     0.241 S 
HETATM   29  O   UNL     1     -44.222  63.406 -48.470  1.00  0.00    -0.206 OA
HETATM   30  O   UNL     1     -46.437  63.902 -49.577  1.00  0.00    -0.206 OA
BRANCH  28  31
HETATM   31  N   UNL     1     -46.260  62.137 -47.718  1.00  0.00    -0.211 NA
HETATM   32  H   UNL     1     -47.259  62.045 -47.904  1.00  0.00     0.140 HD
BRANCH  31  33
HETATM   33  C   UNL     1     -45.575  60.951 -47.212  1.00  0.00     0.071 A 
HETATM   34  C   UNL     1     -44.836  61.004 -45.903  1.00  0.00     0.022 A 
HETATM   35  C   UNL     1     -46.091  60.187 -46.028  1.00  0.00     0.022 A 
ENDBRANCH  31  33
ENDBRANCH  28  31
ENDBRANCH  25  28
ENDBRANCH   2  22
TORSDOF 8
ENDMDL
MODEL 9
REMARK VINA RESULT:      -7.1      3.552      7.113
REMARK  8 active torsions:
REMARK  status: ('A' for Active; 'I' for Inactive)
REMARK    1  A    between atoms: N_4  and  C_5 
REMARK    2  A    between atoms: C_14  and  C_15 
REMARK    3  A    between atoms: C_15  and  C_16 
REMARK    4  A    between atoms: C_16  and  C_17 
REMARK       I    between atoms: C_17  and  N_18 
REMARK    5  A    between atoms: N_18  and  C_19 
REMARK    6  A    between atoms: C_22  and  S_23 
REMARK    7  A    between atoms: S_23  and  N_24 
REMARK    8  A    between atoms: N_24  and  C_25 
ROOT
HETATM    1  C   UNL     1     -45.352  58.913 -58.270  1.00  0.00     0.222 C 
HETATM    2  N   UNL     1     -44.643  59.616 -57.312  1.00  0.00    -0.327 N 
HETATM    3  O   UNL     1     -46.449  58.383 -58.125  1.00  0.00    -0.273 OA
HETATM    4  H   UNL     1     -43.748  59.999 -57.590  1.00  0.00     0.169 HD
ENDROOT
BRANCH   1   5
HETATM    5  C   UNL     1     -44.641  58.831 -59.610  1.00  0.00     0.108 C 
BRANCH   5   6
HETATM    6  C   UNL     1     -43.339  58.043 -59.506  1.00  0.00     0.055 C 
BRANCH   6   7
HETATM    7  C   UNL     1     -43.368  56.773 -58.724  1.00  0.00     0.030 A 
HETATM    8  C   UNL     1     -43.853  55.530 -58.896  1.00  0.00     0.014 A 
HETATM    9  C   UNL     1     -44.609  54.981 -60.059  1.00  0.00     0.064 C 
HETATM   10  N   UNL     1     -43.610  54.704 -57.803  1.00  0.00    -0.199 NA
HETATM   11  N   UNL     1     -42.975  55.489 -56.834  1.00  0.00    -0.238 N 
HETATM   12  H   UNL     1     -44.472  54.272 -57.463  1.00  0.00     0.153 HD
HETATM   13  C   UNL     1     -42.769  56.766 -57.348  1.00  0.00     0.270 A 
HETATM   14  O   UNL     1     -42.225  57.742 -56.859  1.00  0.00    -0.266 OA
BRANCH  11  15
HETATM   15  C   UNL     1     -42.571  54.935 -55.601  1.00  0.00     0.055 A 
HETATM   16  C   UNL     1     -41.269  54.443 -55.418  1.00  0.00     0.034 A 
HETATM   17  C   UNL     1     -40.869  53.904 -54.190  1.00  0.00     0.044 A 
HETATM   18  C   UNL     1     -41.771  53.851 -53.138  1.00  0.00     0.116 A 
HETATM   19  F   UNL     1     -41.388  53.336 -51.962  1.00  0.00    -0.206 F 
HETATM   20  C   UNL     1     -43.066  54.326 -53.289  1.00  0.00     0.044 A 
HETATM   21  C   UNL     1     -43.465  54.862 -54.518  1.00  0.00     0.034 A 
ENDBRANCH  11  15
ENDBRANCH   6   7
ENDBRANCH   5   6
ENDBRANCH   1   5
BRANCH   2  22
HETATM   22  C   UNL     1     -45.000  59.819 -55.962  1.00  0.00     0.034 A 
HETATM   23  C   UNL     1     -44.891  58.842 -54.969  1.00  0.00     0.031 A 
HETATM   24  C   UNL     1     -45.241  59.128 -53.647  1.00  0.00     0.027 A 
HETATM   25  C   UNL     1     -45.693  60.406 -53.312  1.00  0.00     0.074 A 
HETATM   26  C   UNL     1     -45.833  61.387 -54.293  1.00  0.00     0.027 A 
HETATM   27  C   UNL     1     -45.484  61.090 -55.615  1.00  0.00     0.031 A 
BRANCH  25  28
HETATM   28  S   UNL     1     -46.123  60.770 -51.629  1.00  0.00     0.241 S 
HETATM   29  O   UNL     1     -47.056  61.877 -51.637  1.00  0.00    -0.206 OA
HETATM   30  O   UNL     1     -46.425  59.529 -50.951  1.00  0.00    -0.206 OA
BRANCH  28  31
HETATM   31  N   UNL     1     -44.658  61.392 -51.052  1.00  0.00    -0.211 NA
HETATM   32  H   UNL     1     -44.833  62.144 -50.383  1.00  0.00     0.140 HD
BRANCH  31  33
HETATM   33  C   UNL     1     -43.628  60.420 -50.693  1.00  0.00     0.071 A 
HETATM   34  C   UNL     1     -42.454  60.192 -51.603  1.00  0.00     0.022 A 
HETATM   35  C   UNL     1     -42.255  60.848 -50.267  1.00  0.00     0.022 A 
ENDBRANCH  31  33
ENDBRANCH  28  31
ENDBRANCH  25  28
ENDBRANCH   2  22
TORSDOF 8
ENDMDL
MODEL 10
REMARK VINA RESULT:      -7.0      7.522     10.442
REMARK  8 active torsions:
REMARK  status: ('A' for Active; 'I' for Inactive)
REMARK    1  A    between atoms: N_4  and  C_5 
REMARK    2  A    between atoms: C_14  and  C_15 
REMARK    3  A    between atoms: C_15  and  C_16 
REMARK    4  A    between atoms: C_16  and  C_17 
REMARK       I    between atoms: C_17  and  N_18 
REMARK    5  A    between atoms: N_18  and  C_19 
REMARK    6  A    between atoms: C_22  and  S_23 
REMARK    7  A    between atoms: S_23  and  N_24 
REMARK    8  A    between atoms: N_24  and  C_25 
ROOT
HETATM    1  C   UNL     1     -44.873  60.514 -50.283  1.00  0.00     0.222 C 
HETATM    2  N   UNL     1     -45.466  59.411 -50.873  1.00  0.00    -0.327 N 
HETATM    3  O   UNL     1     -43.742  60.938 -50.498  1.00  0.00    -0.273 OA
HETATM    4  H   UNL     1     -46.413  59.192 -50.591  1.00  0.00     0.169 HD
ENDROOT
BRANCH   1   5
HETATM    5  C   UNL     1     -45.771  61.221 -49.282  1.00  0.00     0.108 C 
BRANCH   5   6
HETATM    6  C   UNL     1     -45.312  60.976 -47.848  1.00  0.00     0.055 C 
BRANCH   6   7
HETATM    7  C   UNL     1     -45.170  62.168 -46.961  1.00  0.00     0.030 A 
HETATM    8  C   UNL     1     -45.152  63.504 -47.115  1.00  0.00     0.014 A 
HETATM    9  C   UNL     1     -45.272  64.295 -48.374  1.00  0.00     0.064 C 
HETATM   10  N   UNL     1     -44.966  64.180 -45.914  1.00  0.00    -0.199 NA
HETATM   11  N   UNL     1     -44.793  63.206 -44.923  1.00  0.00    -0.238 N 
HETATM   12  H   UNL     1     -44.180  64.832 -45.970  1.00  0.00     0.153 HD
HETATM   13  C   UNL     1     -44.938  61.946 -45.496  1.00  0.00     0.270 A 
HETATM   14  O   UNL     1     -44.899  60.834 -44.994  1.00  0.00    -0.266 OA
BRANCH  11  15
HETATM   15  C   UNL     1     -44.602  63.569 -43.573  1.00  0.00     0.055 A 
HETATM   16  C   UNL     1     -43.439  63.201 -42.879  1.00  0.00     0.034 A 
HETATM   17  C   UNL     1     -43.250  63.571 -41.543  1.00  0.00     0.044 A 
HETATM   18  C   UNL     1     -44.224  64.312 -40.893  1.00  0.00     0.116 A 
HETATM   19  F   UNL     1     -44.043  64.668 -39.614  1.00  0.00    -0.206 F 
HETATM   20  C   UNL     1     -45.387  64.688 -41.550  1.00  0.00     0.044 A 
HETATM   21  C   UNL     1     -45.575  64.315 -42.885  1.00  0.00     0.034 A 
ENDBRANCH  11  15
ENDBRANCH   6   7
ENDBRANCH   5   6
ENDBRANCH   1   5
BRANCH   2  22
HETATM   22  C   UNL     1     -44.881  58.516 -51.792  1.00  0.00     0.034 A 
HETATM   23  C   UNL     1     -44.855  58.721 -53.174  1.00  0.00     0.031 A 
HETATM   24  C   UNL     1     -44.232  57.799 -54.020  1.00  0.00     0.027 A 
HETATM   25  C   UNL     1     -43.620  56.667 -53.478  1.00  0.00     0.074 A 
HETATM   26  C   UNL     1     -43.658  56.432 -52.104  1.00  0.00     0.027 A 
HETATM   27  C   UNL     1     -44.288  57.359 -51.266  1.00  0.00     0.031 A 
BRANCH  25  28
HETATM   28  S   UNL     1     -42.817  55.505 -54.553  1.00  0.00     0.241 S 
HETATM   29  O   UNL     1     -43.716  54.389 -54.753  1.00  0.00    -0.206 OA
HETATM   30  O   UNL     1     -42.246  56.228 -55.668  1.00  0.00    -0.206 OA
BRANCH  28  31
HETATM   31  N   UNL     1     -41.579  54.940 -53.546  1.00  0.00    -0.211 NA
HETATM   32  H   UNL     1     -41.491  55.542 -52.725  1.00  0.00     0.140 HD
BRANCH  31  33
HETATM   33  C   UNL     1     -41.529  53.499 -53.312  1.00  0.00     0.071 A 
HETATM   34  C   UNL     1     -40.587  52.637 -54.105  1.00  0.00     0.022 A 
HETATM   35  C   UNL     1     -40.356  52.851 -52.637  1.00  0.00     0.022 A 
ENDBRANCH  31  33
ENDBRANCH  28  31
ENDBRANCH  25  28
ENDBRANCH   2  22
TORSDOF 8
ENDMDL
