MODEL 1
REMARK VINA RESULT:      -8.7      0.000      0.000
REMARK  4 active torsions:
REMARK  status: ('A' for Active; 'I' for Inactive)
REMARK    1  A    between atoms: N_4  and  C_5 
REMARK    2  A    between atoms: C_14  and  C_15 
REMARK       I    between atoms: C_15  and  N_16 
REMARK    3  A    between atoms: N_16  and  N_17 
REMARK       I    between atoms: N_17  and  C_18 
REMARK       I    between atoms: C_18  and  N_19 
REMARK    4  A    between atoms: N_19  and  C_20 
ROOT
HETATM    1  C   UNL     1     -41.684  59.087 -53.863  1.00  0.00     0.277 C 
HETATM    2  N   UNL     1     -42.658  59.543 -54.729  1.00  0.00    -0.261 N 
HETATM    3  O   UNL     1     -40.708  59.781 -53.580  1.00  0.00    -0.265 OA
HETATM    4  H   UNL     1     -43.418  58.943 -55.052  1.00  0.00     0.190 HD
ENDROOT
BRANCH   1   5
HETATM    5  C   UNL     1     -41.906  57.751 -53.327  1.00  0.00     0.077 A 
HETATM    6  S   UNL     1     -40.961  56.388 -53.881  1.00  0.00    -0.064 SA
HETATM    7  C   UNL     1     -41.755  55.372 -52.828  1.00  0.00     0.113 A 
HETATM    8  N   UNL     1     -41.763  54.057 -52.435  1.00  0.00    -0.226 N 
HETATM    9  C   UNL     1     -42.684  56.009 -52.108  1.00  0.00     0.027 A 
HETATM   10  N   UNL     1     -42.743  53.876 -51.471  1.00  0.00    -0.171 NA
HETATM   11  C   UNL     1     -43.299  55.088 -51.279  1.00  0.00     0.064 A 
HETATM   12  C   UNL     1     -44.399  55.276 -50.308  1.00  0.00     0.073 C 
HETATM   13  C   UNL     1     -42.815  57.375 -52.337  1.00  0.00     0.041 A 
BRANCH   8  14
HETATM   14  C   UNL     1     -40.953  52.956 -52.844  1.00  0.00     0.059 A 
HETATM   15  C   UNL     1     -40.076  52.375 -51.913  1.00  0.00     0.031 A 
HETATM   16  C   UNL     1     -39.254  51.304 -52.280  1.00  0.00     0.002 A 
HETATM   17  C   UNL     1     -39.299  50.804 -53.577  1.00  0.00     0.000 A 
HETATM   18  C   UNL     1     -40.168  51.370 -54.507  1.00  0.00     0.002 A 
HETATM   19  C   UNL     1     -40.991  52.442 -54.145  1.00  0.00     0.031 A 
ENDBRANCH   8  14
ENDBRANCH   1   5
BRANCH   2  20
HETATM   20  N   UNL     1     -42.472  60.740 -55.439  1.00  0.00    -0.249 N 
HETATM   21  C   UNL     1     -41.960  60.603 -56.722  1.00  0.00     0.339 C 
HETATM   22  N   UNL     1     -41.700  61.821 -57.308  1.00  0.00    -0.308 N 
HETATM   23  O   UNL     1     -41.814  59.492 -57.223  1.00  0.00    -0.245 OA
HETATM   24  H   UNL     1     -41.930  62.634 -56.758  1.00  0.00     0.170 HD
HETATM   25  H   UNL     1     -42.221  61.542 -54.866  1.00  0.00     0.192 HD
BRANCH  22  26
HETATM   26  C   UNL     1     -41.220  62.056 -58.613  1.00  0.00     0.036 A 
HETATM   27  C   UNL     1     -41.888  61.658 -59.775  1.00  0.00     0.031 A 
HETATM   28  C   UNL     1     -41.355  61.943 -61.037  1.00  0.00     0.026 A 
HETATM   29  C   UNL     1     -40.148  62.625 -61.143  1.00  0.00     0.034 A 
HETATM   30 CL   UNL     1     -39.496  62.980 -62.694  1.00  0.00    -0.084 Cl
HETATM   31  C   UNL     1     -39.467  63.024 -59.997  1.00  0.00     0.026 A 
HETATM   32  C   UNL     1     -40.002  62.740 -58.735  1.00  0.00     0.031 A 
ENDBRANCH  22  26
ENDBRANCH   2  20
TORSDOF 4
ENDMDL
MODEL 2
REMARK VINA RESULT:      -8.6      1.940      2.328
REMARK  4 active torsions:
REMARK  status: ('A' for Active; 'I' for Inactive)
REMARK    1  A    between atoms: N_4  and  C_5 
REMARK    2  A    between atoms: C_14  and  C_15 
REMARK       I    between atoms: C_15  and  N_16 
REMARK    3  A    between atoms: N_16  and  N_17 
REMARK       I    between atoms: N_17  and  C_18 
REMARK       I    between atoms: C_18  and  N_19 
REMARK    4  A    between atoms: N_19  and  C_20 
ROOT
HETATM    1  C   UNL     1     -41.674  58.036 -52.144  1.00  0.00     0.277 C 
HETATM    2  N   UNL     1     -41.722  58.189 -53.515  1.00  0.00    -0.261 N 
HETATM    3  O   UNL     1     -41.909  58.979 -51.389  1.00  0.00    -0.265 OA
HETATM    4  H   UNL     1     -41.432  57.447 -54.153  1.00  0.00     0.190 HD
ENDROOT
BRANCH   1   5
HETATM    5  C   UNL     1     -41.330  56.699 -51.680  1.00  0.00     0.077 A 
HETATM    6  S   UNL     1     -41.118  55.379 -52.806  1.00  0.00    -0.064 SA
HETATM    7  C   UNL     1     -40.739  54.339 -51.563  1.00  0.00     0.113 A 
HETATM    8  N   UNL     1     -40.377  53.032 -51.353  1.00  0.00    -0.226 N 
HETATM    9  C   UNL     1     -40.780  54.937 -50.368  1.00  0.00     0.027 A 
HETATM   10  N   UNL     1     -40.222  52.815 -49.992  1.00  0.00    -0.171 NA
HETATM   11  C   UNL     1     -40.471  53.999 -49.401  1.00  0.00     0.064 A 
HETATM   12  C   UNL     1     -40.401  54.144 -47.930  1.00  0.00     0.073 C 
HETATM   13  C   UNL     1     -41.102  56.291 -50.364  1.00  0.00     0.041 A 
BRANCH   8  14
HETATM   14  C   UNL     1     -40.146  51.969 -52.276  1.00  0.00     0.059 A 
HETATM   15  C   UNL     1     -39.703  50.728 -51.788  1.00  0.00     0.031 A 
HETATM   16  C   UNL     1     -39.450  49.667 -52.662  1.00  0.00     0.002 A 
HETATM   17  C   UNL     1     -39.637  49.831 -54.031  1.00  0.00     0.000 A 
HETATM   18  C   UNL     1     -40.079  51.056 -54.526  1.00  0.00     0.002 A 
HETATM   19  C   UNL     1     -40.332  52.122 -53.656  1.00  0.00     0.031 A 
ENDBRANCH   8  14
ENDBRANCH   1   5
BRANCH   2  20
HETATM   20  N   UNL     1     -41.875  59.465 -54.082  1.00  0.00    -0.249 N 
HETATM   21  C   UNL     1     -42.034  59.494 -55.460  1.00  0.00     0.339 C 
HETATM   22  N   UNL     1     -42.063  60.779 -55.951  1.00  0.00    -0.308 N 
HETATM   23  O   UNL     1     -42.161  58.452 -56.098  1.00  0.00    -0.245 OA
HETATM   24  H   UNL     1     -41.991  61.516 -55.265  1.00  0.00     0.170 HD
HETATM   25  H   UNL     1     -41.368  60.207 -53.605  1.00  0.00     0.192 HD
BRANCH  22  26
HETATM   26  C   UNL     1     -42.254  61.179 -57.290  1.00  0.00     0.036 A 
HETATM   27  C   UNL     1     -43.508  61.322 -57.890  1.00  0.00     0.031 A 
HETATM   28  C   UNL     1     -43.618  61.739 -59.222  1.00  0.00     0.026 A 
HETATM   29  C   UNL     1     -42.472  62.013 -59.960  1.00  0.00     0.034 A 
HETATM   30 CL   UNL     1     -42.607  62.532 -61.594  1.00  0.00    -0.084 Cl
HETATM   31  C   UNL     1     -41.215  61.871 -59.379  1.00  0.00     0.026 A 
HETATM   32  C   UNL     1     -41.107  61.455 -58.047  1.00  0.00     0.031 A 
ENDBRANCH  22  26
ENDBRANCH   2  20
TORSDOF 4
ENDMDL
MODEL 3
REMARK VINA RESULT:      -8.5      5.099      5.660
REMARK  4 active torsions:
REMARK  status: ('A' for Active; 'I' for Inactive)
REMARK    1  A    between atoms: N_4  and  C_5 
REMARK    2  A    between atoms: C_14  and  C_15 
REMARK       I    between atoms: C_15  and  N_16 
REMARK    3  A    between atoms: N_16  and  N_17 
REMARK       I    between atoms: N_17  and  C_18 
REMARK       I    between atoms: C_18  and  N_19 
REMARK    4  A    between atoms: N_19  and  C_20 
ROOT
HETATM    1  C   UNL     1     -43.852  57.403 -56.914  1.00  0.00     0.277 C 
HETATM    2  N   UNL     1     -44.553  56.666 -57.848  1.00  0.00    -0.261 N 
HETATM    3  O   UNL     1     -43.558  58.580 -57.121  1.00  0.00    -0.265 OA
HETATM    4  H   UNL     1     -44.715  55.665 -57.736  1.00  0.00     0.190 HD
ENDROOT
BRANCH   1   5
HETATM    5  C   UNL     1     -43.499  56.687 -55.695  1.00  0.00     0.077 A 
HETATM    6  S   UNL     1     -42.480  55.267 -55.745  1.00  0.00    -0.064 SA
HETATM    7  C   UNL     1     -42.544  55.126 -54.088  1.00  0.00     0.113 A 
HETATM    8  N   UNL     1     -42.057  54.337 -53.076  1.00  0.00    -0.226 N 
HETATM    9  C   UNL     1     -43.296  56.078 -53.524  1.00  0.00     0.027 A 
HETATM   10  N   UNL     1     -42.547  54.798 -51.863  1.00  0.00    -0.171 NA
HETATM   11  C   UNL     1     -43.305  55.872 -52.157  1.00  0.00     0.064 A 
HETATM   12  C   UNL     1     -44.000  56.627 -51.091  1.00  0.00     0.073 C 
HETATM   13  C   UNL     1     -43.863  57.010 -54.387  1.00  0.00     0.041 A 
BRANCH   8  14
HETATM   14  C   UNL     1     -41.178  53.214 -53.110  1.00  0.00     0.059 A 
HETATM   15  C   UNL     1     -40.381  52.940 -51.986  1.00  0.00     0.031 A 
HETATM   16  C   UNL     1     -39.495  51.859 -51.986  1.00  0.00     0.002 A 
HETATM   17  C   UNL     1     -39.396  51.039 -53.107  1.00  0.00     0.000 A 
HETATM   18  C   UNL     1     -40.184  51.299 -54.225  1.00  0.00     0.002 A 
HETATM   19  C   UNL     1     -41.071  52.381 -54.230  1.00  0.00     0.031 A 
ENDBRANCH   8  14
ENDBRANCH   1   5
BRANCH   2  20
HETATM   20  N   UNL     1     -44.800  57.193 -59.126  1.00  0.00    -0.249 N 
HETATM   21  C   UNL     1     -46.132  57.448 -59.422  1.00  0.00     0.339 C 
HETATM   22  N   UNL     1     -46.304  57.852 -60.726  1.00  0.00    -0.308 N 
HETATM   23  O   UNL     1     -46.998  57.335 -58.560  1.00  0.00    -0.245 OA
HETATM   24  H   UNL     1     -45.463  57.933 -61.278  1.00  0.00     0.170 HD
HETATM   25  H   UNL     1     -44.162  56.872 -59.851  1.00  0.00     0.192 HD
BRANCH  22  26
HETATM   26  C   UNL     1     -47.509  58.234 -61.351  1.00  0.00     0.036 A 
HETATM   27  C   UNL     1     -47.980  59.549 -61.400  1.00  0.00     0.031 A 
HETATM   28  C   UNL     1     -49.180  59.853 -62.054  1.00  0.00     0.026 A 
HETATM   29  C   UNL     1     -49.915  58.841 -62.661  1.00  0.00     0.034 A 
HETATM   30 CL   UNL     1     -51.386  59.217 -63.469  1.00  0.00    -0.084 Cl
HETATM   31  C   UNL     1     -49.463  57.526 -62.618  1.00  0.00     0.026 A 
HETATM   32  C   UNL     1     -48.263  57.224 -61.964  1.00  0.00     0.031 A 
ENDBRANCH  22  26
ENDBRANCH   2  20
TORSDOF 4
ENDMDL
MODEL 4
REMARK VINA RESULT:      -8.3      2.480      2.866
REMARK  4 active torsions:
REMARK  status: ('A' for Active; 'I' for Inactive)
REMARK    1  A    between atoms: N_4  and  C_5 
REMARK    2  A    between atoms: C_14  and  C_15 
REMARK       I    between atoms: C_15  and  N_16 
REMARK    3  A    between atoms: N_16  and  N_17 
REMARK       I    between atoms: N_17  and  C_18 
REMARK       I    between atoms: C_18  and  N_19 
REMARK    4  A    between atoms: N_19  and  C_20 
ROOT
HETATM    1  C   UNL     1     -43.699  56.616 -55.134  1.00  0.00     0.277 C 
HETATM    2  N   UNL     1     -43.540  56.248 -56.455  1.00  0.00    -0.261 N 
HETATM    3  O   UNL     1     -44.467  57.523 -54.813  1.00  0.00    -0.265 OA
HETATM    4  H   UNL     1     -42.835  55.569 -56.746  1.00  0.00     0.190 HD
ENDROOT
BRANCH   1   5
HETATM    5  C   UNL     1     -42.904  55.858 -54.177  1.00  0.00     0.077 A 
HETATM    6  S   UNL     1     -42.362  54.235 -54.539  1.00  0.00    -0.064 SA
HETATM    7  C   UNL     1     -41.569  54.143 -53.078  1.00  0.00     0.113 A 
HETATM    8  N   UNL     1     -40.786  53.278 -52.355  1.00  0.00    -0.226 N 
HETATM    9  C   UNL     1     -41.709  55.256 -52.351  1.00  0.00     0.027 A 
HETATM   10  N   UNL     1     -40.462  53.864 -51.141  1.00  0.00    -0.171 NA
HETATM   11  C   UNL     1     -41.036  55.082 -51.155  1.00  0.00     0.064 A 
HETATM   12  C   UNL     1     -40.903  56.000 -50.003  1.00  0.00     0.073 C 
HETATM   13  C   UNL     1     -42.453  56.282 -52.926  1.00  0.00     0.041 A 
BRANCH   8  14
HETATM   14  C   UNL     1     -40.294  51.978 -52.674  1.00  0.00     0.059 A 
HETATM   15  C   UNL     1     -40.258  51.575 -54.020  1.00  0.00     0.031 A 
HETATM   16  C   UNL     1     -39.798  50.303 -54.372  1.00  0.00     0.002 A 
HETATM   17  C   UNL     1     -39.367  49.420 -53.386  1.00  0.00     0.000 A 
HETATM   18  C   UNL     1     -39.394  49.810 -52.049  1.00  0.00     0.002 A 
HETATM   19  C   UNL     1     -39.855  51.082 -51.692  1.00  0.00     0.031 A 
ENDBRANCH   8  14
ENDBRANCH   1   5
BRANCH   2  20
HETATM   20  N   UNL     1     -44.121  57.013 -57.480  1.00  0.00    -0.249 N 
HETATM   21  C   UNL     1     -43.295  57.967 -58.057  1.00  0.00     0.339 C 
HETATM   22  N   UNL     1     -43.967  58.749 -58.969  1.00  0.00    -0.308 N 
HETATM   23  O   UNL     1     -42.105  58.027 -57.763  1.00  0.00    -0.245 OA
HETATM   24  H   UNL     1     -44.939  58.521 -59.116  1.00  0.00     0.170 HD
HETATM   25  H   UNL     1     -45.116  57.191 -57.367  1.00  0.00     0.192 HD
BRANCH  22  26
HETATM   26  C   UNL     1     -43.433  59.780 -59.769  1.00  0.00     0.036 A 
HETATM   27  C   UNL     1     -43.766  61.130 -59.628  1.00  0.00     0.031 A 
HETATM   28  C   UNL     1     -43.181  62.099 -60.451  1.00  0.00     0.026 A 
HETATM   29  C   UNL     1     -42.260  61.721 -61.421  1.00  0.00     0.034 A 
HETATM   30 CL   UNL     1     -41.536  62.912 -62.428  1.00  0.00    -0.084 Cl
HETATM   31  C   UNL     1     -41.920  60.380 -61.579  1.00  0.00     0.026 A 
HETATM   32  C   UNL     1     -42.506  59.413 -60.754  1.00  0.00     0.031 A 
ENDBRANCH  22  26
ENDBRANCH   2  20
TORSDOF 4
ENDMDL
MODEL 5
REMARK VINA RESULT:      -8.2      4.380     10.774
REMARK  4 active torsions:
REMARK  status: ('A' for Active; 'I' for Inactive)
REMARK    1  A    between atoms: N_4  and  C_5 
REMARK    2  A    between atoms: C_14  and  C_15 
REMARK       I    between atoms: C_15  and  N_16 
REMARK    3  A    between atoms: N_16  and  N_17 
REMARK       I    between atoms: N_17  and  C_18 
REMARK       I    between atoms: C_18  and  N_19 
REMARK    4  A    between atoms: N_19  and  C_20 
ROOT
HETATM    1  C   UNL     1     -43.332  56.482 -59.137  1.00  0.00     0.277 C 
HETATM    2  N   UNL     1     -43.661  56.443 -57.797  1.00  0.00    -0.261 N 
HETATM    3  O   UNL     1     -43.101  55.451 -59.767  1.00  0.00    -0.265 OA
HETATM    4  H   UNL     1     -43.756  57.291 -57.237  1.00  0.00     0.190 HD
ENDROOT
BRANCH   1   5
HETATM    5  C   UNL     1     -43.285  57.814 -59.726  1.00  0.00     0.077 A 
HETATM    6  S   UNL     1     -41.883  58.840 -59.526  1.00  0.00    -0.064 SA
HETATM    7  C   UNL     1     -42.584  60.029 -60.456  1.00  0.00     0.113 A 
HETATM    8  N   UNL     1     -42.310  61.279 -60.953  1.00  0.00    -0.226 N 
HETATM    9  C   UNL     1     -43.804  59.689 -60.884  1.00  0.00     0.027 A 
HETATM   10  N   UNL     1     -43.402  61.729 -61.679  1.00  0.00    -0.171 NA
HETATM   11  C   UNL     1     -44.312  60.738 -61.629  1.00  0.00     0.064 A 
HETATM   12  C   UNL     1     -45.623  60.872 -62.300  1.00  0.00     0.073 C 
HETATM   13  C   UNL     1     -44.262  58.429 -60.510  1.00  0.00     0.041 A 
BRANCH   8  14
HETATM   14  C   UNL     1     -41.143  62.092 -60.840  1.00  0.00     0.059 A 
HETATM   15  C   UNL     1     -40.497  62.519 -62.012  1.00  0.00     0.031 A 
HETATM   16  C   UNL     1     -39.342  63.304 -61.944  1.00  0.00     0.002 A 
HETATM   17  C   UNL     1     -38.821  63.671 -60.707  1.00  0.00     0.000 A 
HETATM   18  C   UNL     1     -39.456  63.256 -59.539  1.00  0.00     0.002 A 
HETATM   19  C   UNL     1     -40.611  62.470 -59.602  1.00  0.00     0.031 A 
ENDBRANCH   8  14
ENDBRANCH   1   5
BRANCH   2  20
HETATM   20  N   UNL     1     -43.573  55.237 -57.080  1.00  0.00    -0.249 N 
HETATM   21  C   UNL     1     -42.849  55.295 -55.897  1.00  0.00     0.339 C 
HETATM   22  N   UNL     1     -42.713  54.056 -55.314  1.00  0.00    -0.308 N 
HETATM   23  O   UNL     1     -42.438  56.368 -55.466  1.00  0.00    -0.245 OA
HETATM   24  H   UNL     1     -43.163  53.290 -55.792  1.00  0.00     0.170 HD
HETATM   25  H   UNL     1     -43.556  54.399 -57.656  1.00  0.00     0.192 HD
BRANCH  22  26
HETATM   26  C   UNL     1     -42.080  53.752 -54.091  1.00  0.00     0.036 A 
HETATM   27  C   UNL     1     -40.853  53.090 -53.991  1.00  0.00     0.031 A 
HETATM   28  C   UNL     1     -40.279  52.838 -52.740  1.00  0.00     0.026 A 
HETATM   29  C   UNL     1     -40.932  53.244 -51.582  1.00  0.00     0.034 A 
HETATM   30 CL   UNL     1     -40.224  52.939 -50.045  1.00  0.00    -0.084 Cl
HETATM   31  C   UNL     1     -42.157  53.900 -51.663  1.00  0.00     0.026 A 
HETATM   32  C   UNL     1     -42.729  54.152 -52.915  1.00  0.00     0.031 A 
ENDBRANCH  22  26
ENDBRANCH   2  20
TORSDOF 4
ENDMDL
MODEL 6
REMARK VINA RESULT:      -8.1     17.918     21.304
REMARK  4 active torsions:
REMARK  status: ('A' for Active; 'I' for Inactive)
REMARK    1  A    between atoms: N_4  and  C_5 
REMARK    2  A    between atoms: C_14  and  C_15 
REMARK       I    between atoms: C_15  and  N_16 
REMARK    3  A    between atoms: N_16  and  N_17 
REMARK       I    between atoms: N_17  and  C_18 
REMARK       I    between atoms: C_18  and  N_19 
REMARK    4  A    between atoms: N_19  and  C_20 
ROOT
HETATM    1  C   UNL     1     -32.963  40.477 -52.637  1.00  0.00     0.277 C 
HETATM    2  N   UNL     1     -33.004  40.163 -51.293  1.00  0.00    -0.261 N 
HETATM    3  O   UNL     1     -31.892  40.600 -53.231  1.00  0.00    -0.265 OA
HETATM    4  H   UNL     1     -33.877  40.158 -50.765  1.00  0.00     0.190 HD
ENDROOT
BRANCH   1   5
HETATM    5  C   UNL     1     -34.262  40.646 -53.275  1.00  0.00     0.077 A 
HETATM    6  S   UNL     1     -34.409  40.727 -55.016  1.00  0.00    -0.064 SA
HETATM    7  C   UNL     1     -36.063  40.867 -54.899  1.00  0.00     0.113 A 
HETATM    8  N   UNL     1     -37.172  40.975 -55.701  1.00  0.00    -0.226 N 
HETATM    9  C   UNL     1     -36.487  40.867 -53.631  1.00  0.00     0.027 A 
HETATM   10  N   UNL     1     -38.302  41.075 -54.903  1.00  0.00    -0.171 NA
HETATM   11  C   UNL     1     -37.863  41.004 -53.632  1.00  0.00     0.064 A 
HETATM   12  C   UNL     1     -38.807  41.081 -52.496  1.00  0.00     0.073 C 
HETATM   13  C   UNL     1     -35.508  40.733 -52.652  1.00  0.00     0.041 A 
BRANCH   8  14
HETATM   14  C   UNL     1     -37.298  40.982 -57.122  1.00  0.00     0.059 A 
HETATM   15  C   UNL     1     -36.881  42.117 -57.836  1.00  0.00     0.031 A 
HETATM   16  C   UNL     1     -37.002  42.169 -59.228  1.00  0.00     0.002 A 
HETATM   17  C   UNL     1     -37.540  41.089 -59.921  1.00  0.00     0.000 A 
HETATM   18  C   UNL     1     -37.954  39.957 -59.223  1.00  0.00     0.002 A 
HETATM   19  C   UNL     1     -37.836  39.901 -57.830  1.00  0.00     0.031 A 
ENDBRANCH   8  14
ENDBRANCH   1   5
BRANCH   2  20
HETATM   20  N   UNL     1     -31.823  40.143 -50.534  1.00  0.00    -0.249 N 
HETATM   21  C   UNL     1     -31.970  39.767 -49.205  1.00  0.00     0.339 C 
HETATM   22  N   UNL     1     -30.793  39.881 -48.502  1.00  0.00    -0.308 N 
HETATM   23  O   UNL     1     -33.050  39.359 -48.786  1.00  0.00    -0.245 OA
HETATM   24  H   UNL     1     -29.991  40.191 -49.029  1.00  0.00     0.170 HD
HETATM   25  H   UNL     1     -31.132  40.841 -50.799  1.00  0.00     0.192 HD
BRANCH  22  26
HETATM   26  C   UNL     1     -30.569  39.545 -47.150  1.00  0.00     0.036 A 
HETATM   27  C   UNL     1     -30.779  38.270 -46.618  1.00  0.00     0.031 A 
HETATM   28  C   UNL     1     -30.518  38.009 -45.268  1.00  0.00     0.026 A 
HETATM   29  C   UNL     1     -30.048  39.025 -44.443  1.00  0.00     0.034 A 
HETATM   30 CL   UNL     1     -29.723  38.702 -42.786  1.00  0.00    -0.084 Cl
HETATM   31  C   UNL     1     -29.839  40.302 -44.955  1.00  0.00     0.026 A 
HETATM   32  C   UNL     1     -30.099  40.560 -46.306  1.00  0.00     0.031 A 
ENDBRANCH  22  26
ENDBRANCH   2  20
TORSDOF 4
ENDMDL
MODEL 7
REMARK VINA RESULT:      -8.0      5.655      7.793
REMARK  4 active torsions:
REMARK  status: ('A' for Active; 'I' for Inactive)
REMARK    1  A    between atoms: N_4  and  C_5 
REMARK    2  A    between atoms: C_14  and  C_15 
REMARK       I    between atoms: C_15  and  N_16 
REMARK    3  A    between atoms: N_16  and  N_17 
REMARK       I    between atoms: N_17  and  C_18 
REMARK       I    between atoms: C_18  and  N_19 
REMARK    4  A    between atoms: N_19  and  C_20 
ROOT
HETATM    1  C   UNL     1     -42.427  59.440 -52.704  1.00  0.00     0.277 C 
HETATM    2  N   UNL     1     -43.749  59.762 -52.470  1.00  0.00    -0.261 N 
HETATM    3  O   UNL     1     -41.518  60.201 -52.372  1.00  0.00    -0.265 OA
HETATM    4  H   UNL     1     -44.516  59.192 -52.828  1.00  0.00     0.190 HD
ENDROOT
BRANCH   1   5
HETATM    5  C   UNL     1     -42.206  58.158 -53.358  1.00  0.00     0.077 A 
HETATM    6  S   UNL     1     -41.373  56.858 -52.537  1.00  0.00    -0.064 SA
HETATM    7  C   UNL     1     -41.577  55.857 -53.852  1.00  0.00     0.113 A 
HETATM    8  N   UNL     1     -41.303  54.574 -54.254  1.00  0.00    -0.226 N 
HETATM    9  C   UNL     1     -42.220  56.461 -54.857  1.00  0.00     0.027 A 
HETATM   10  N   UNL     1     -41.764  54.395 -55.550  1.00  0.00    -0.171 NA
HETATM   11  C   UNL     1     -42.328  55.565 -55.905  1.00  0.00     0.064 A 
HETATM   12  C   UNL     1     -42.930  55.744 -57.244  1.00  0.00     0.073 C 
HETATM   13  C   UNL     1     -42.618  57.776 -54.636  1.00  0.00     0.041 A 
BRANCH   8  14
HETATM   14  C   UNL     1     -40.677  53.494 -53.563  1.00  0.00     0.059 A 
HETATM   15  C   UNL     1     -40.242  52.378 -54.298  1.00  0.00     0.031 A 
HETATM   16  C   UNL     1     -39.637  51.293 -53.657  1.00  0.00     0.002 A 
HETATM   17  C   UNL     1     -39.459  51.310 -52.277  1.00  0.00     0.000 A 
HETATM   18  C   UNL     1     -39.883  52.413 -51.539  1.00  0.00     0.002 A 
HETATM   19  C   UNL     1     -40.490  53.501 -52.176  1.00  0.00     0.031 A 
ENDBRANCH   8  14
ENDBRANCH   1   5
BRANCH   2  20
HETATM   20  N   UNL     1     -44.096  61.040 -52.002  1.00  0.00    -0.249 N 
HETATM   21  C   UNL     1     -44.691  61.078 -50.748  1.00  0.00     0.339 C 
HETATM   22  N   UNL     1     -45.104  62.347 -50.410  1.00  0.00    -0.308 N 
HETATM   23  O   UNL     1     -44.775  60.063 -50.063  1.00  0.00    -0.245 OA
HETATM   24  H   UNL     1     -44.906  63.071 -51.085  1.00  0.00     0.170 HD
HETATM   25  H   UNL     1     -44.373  61.699 -52.725  1.00  0.00     0.192 HD
BRANCH  22  26
HETATM   26  C   UNL     1     -45.703  62.757 -49.201  1.00  0.00     0.036 A 
HETATM   27  C   UNL     1     -47.079  62.935 -49.033  1.00  0.00     0.031 A 
HETATM   28  C   UNL     1     -47.602  63.329 -47.796  1.00  0.00     0.026 A 
HETATM   29  C   UNL     1     -46.748  63.549 -46.721  1.00  0.00     0.034 A 
HETATM   30 CL   UNL     1     -47.391  64.028 -45.199  1.00  0.00    -0.084 Cl
HETATM   31  C   UNL     1     -45.374  63.382 -46.872  1.00  0.00     0.026 A 
HETATM   32  C   UNL     1     -44.854  62.987 -48.109  1.00  0.00     0.031 A 
ENDBRANCH  22  26
ENDBRANCH   2  20
TORSDOF 4
ENDMDL
MODEL 8
REMARK VINA RESULT:      -8.0      5.862     10.033
REMARK  4 active torsions:
REMARK  status: ('A' for Active; 'I' for Inactive)
REMARK    1  A    between atoms: N_4  and  C_5 
REMARK    2  A    between atoms: C_14  and  C_15 
REMARK       I    between atoms: C_15  and  N_16 
REMARK    3  A    between atoms: N_16  and  N_17 
REMARK       I    between atoms: N_17  and  C_18 
REMARK       I    between atoms: C_18  and  N_19 
REMARK    4  A    between atoms: N_19  and  C_20 
ROOT
HETATM    1  C   UNL     1     -44.147  58.332 -53.162  1.00  0.00     0.277 C 
HETATM    2  N   UNL     1     -42.923  57.941 -52.659  1.00  0.00    -0.261 N 
HETATM    3  O   UNL     1     -44.605  57.828 -54.187  1.00  0.00    -0.265 OA
HETATM    4  H   UNL     1     -42.485  58.418 -51.870  1.00  0.00     0.190 HD
ENDROOT
BRANCH   1   5
HETATM    5  C   UNL     1     -44.834  59.362 -52.395  1.00  0.00     0.077 A 
HETATM    6  S   UNL     1     -44.527  59.571 -50.686  1.00  0.00    -0.064 SA
HETATM    7  C   UNL     1     -45.584  60.856 -50.624  1.00  0.00     0.113 A 
HETATM    8  N   UNL     1     -46.075  61.776 -49.731  1.00  0.00    -0.226 N 
HETATM    9  C   UNL     1     -46.148  61.111 -51.809  1.00  0.00     0.027 A 
HETATM   10  N   UNL     1     -46.987  62.596 -50.378  1.00  0.00    -0.171 NA
HETATM   11  C   UNL     1     -47.018  62.175 -51.657  1.00  0.00     0.064 A 
HETATM   12  C   UNL     1     -47.897  62.827 -52.652  1.00  0.00     0.073 C 
HETATM   13  C   UNL     1     -45.755  60.299 -52.868  1.00  0.00     0.041 A 
BRANCH   8  14
HETATM   14  C   UNL     1     -45.781  61.985 -48.351  1.00  0.00     0.059 A 
HETATM   15  C   UNL     1     -45.552  63.294 -47.895  1.00  0.00     0.031 A 
HETATM   16  C   UNL     1     -45.245  63.539 -46.553  1.00  0.00     0.002 A 
HETATM   17  C   UNL     1     -45.165  62.481 -45.652  1.00  0.00     0.000 A 
HETATM   18  C   UNL     1     -45.394  61.179 -46.092  1.00  0.00     0.002 A 
HETATM   19  C   UNL     1     -45.700  60.929 -47.434  1.00  0.00     0.031 A 
ENDBRANCH   8  14
ENDBRANCH   1   5
BRANCH   2  20
HETATM   20  N   UNL     1     -42.093  57.082 -53.398  1.00  0.00    -0.249 N 
HETATM   21  C   UNL     1     -41.900  55.820 -52.854  1.00  0.00     0.339 C 
HETATM   22  N   UNL     1     -40.990  55.080 -53.573  1.00  0.00    -0.308 N 
HETATM   23  O   UNL     1     -42.529  55.462 -51.861  1.00  0.00    -0.245 OA
HETATM   24  H   UNL     1     -40.608  55.526 -54.394  1.00  0.00     0.170 HD
HETATM   25  H   UNL     1     -41.344  57.545 -53.907  1.00  0.00     0.192 HD
BRANCH  22  26
HETATM   26  C   UNL     1     -40.589  53.749 -53.333  1.00  0.00     0.036 A 
HETATM   27  C   UNL     1     -40.208  53.263 -52.079  1.00  0.00     0.031 A 
HETATM   28  C   UNL     1     -39.838  51.923 -51.916  1.00  0.00     0.026 A 
HETATM   29  C   UNL     1     -39.845  51.064 -53.009  1.00  0.00     0.034 A 
HETATM   30 CL   UNL     1     -39.396  49.416 -52.806  1.00  0.00    -0.084 Cl
HETATM   31  C   UNL     1     -40.217  51.532 -54.265  1.00  0.00     0.026 A 
HETATM   32  C   UNL     1     -40.588  52.872 -54.426  1.00  0.00     0.031 A 
ENDBRANCH  22  26
ENDBRANCH   2  20
TORSDOF 4
ENDMDL
MODEL 9
REMARK VINA RESULT:      -8.0      5.417      9.887
REMARK  4 active torsions:
REMARK  status: ('A' for Active; 'I' for Inactive)
REMARK    1  A    between atoms: N_4  and  C_5 
REMARK    2  A    between atoms: C_14  and  C_15 
REMARK       I    between atoms: C_15  and  N_16 
REMARK    3  A    between atoms: N_16  and  N_17 
REMARK       I    between atoms: N_17  and  C_18 
REMARK       I    between atoms: C_18  and  N_19 
REMARK    4  A    between atoms: N_19  and  C_20 
ROOT
HETATM    1  C   UNL     1     -41.706  59.253 -53.316  1.00  0.00     0.277 C 
HETATM    2  N   UNL     1     -42.349  58.105 -53.734  1.00  0.00    -0.261 N 
HETATM    3  O   UNL     1     -40.502  59.416 -53.510  1.00  0.00    -0.265 OA
HETATM    4  H   UNL     1     -43.321  57.911 -53.493  1.00  0.00     0.190 HD
ENDROOT
BRANCH   1   5
HETATM    5  C   UNL     1     -42.553  60.229 -52.644  1.00  0.00     0.077 A 
HETATM    6  S   UNL     1     -43.023  60.018 -50.973  1.00  0.00    -0.064 SA
HETATM    7  C   UNL     1     -43.858  61.458 -50.995  1.00  0.00     0.113 A 
HETATM    8  N   UNL     1     -44.599  62.261 -50.164  1.00  0.00    -0.226 N 
HETATM    9  C   UNL     1     -43.803  62.061 -52.187  1.00  0.00     0.027 A 
HETATM   10  N   UNL     1     -45.035  63.370 -50.873  1.00  0.00    -0.171 NA
HETATM   11  C   UNL     1     -44.534  63.233 -52.115  1.00  0.00     0.064 A 
HETATM   12  C   UNL     1     -44.803  64.245 -53.161  1.00  0.00     0.073 C 
HETATM   13  C   UNL     1     -43.063  61.416 -53.173  1.00  0.00     0.041 A 
BRANCH   8  14
HETATM   14  C   UNL     1     -44.933  62.119 -48.785  1.00  0.00     0.059 A 
HETATM   15  C   UNL     1     -45.474  60.901 -48.338  1.00  0.00     0.031 A 
HETATM   16  C   UNL     1     -45.829  60.728 -46.996  1.00  0.00     0.002 A 
HETATM   17  C   UNL     1     -45.648  61.766 -46.088  1.00  0.00     0.000 A 
HETATM   18  C   UNL     1     -45.110  62.977 -46.519  1.00  0.00     0.002 A 
HETATM   19  C   UNL     1     -44.754  63.155 -47.860  1.00  0.00     0.031 A 
ENDBRANCH   8  14
ENDBRANCH   1   5
BRANCH   2  20
HETATM   20  N   UNL     1     -41.610  57.023 -54.240  1.00  0.00    -0.249 N 
HETATM   21  C   UNL     1     -41.512  55.920 -53.402  1.00  0.00     0.339 C 
HETATM   22  N   UNL     1     -40.682  54.952 -53.918  1.00  0.00    -0.308 N 
HETATM   23  O   UNL     1     -42.147  55.872 -52.353  1.00  0.00    -0.245 OA
HETATM   24  H   UNL     1     -40.281  55.148 -54.823  1.00  0.00     0.170 HD
HETATM   25  H   UNL     1     -40.835  57.281 -54.847  1.00  0.00     0.192 HD
BRANCH  22  26
HETATM   26  C   UNL     1     -40.389  53.691 -53.359  1.00  0.00     0.036 A 
HETATM   27  C   UNL     1     -40.234  52.521 -54.108  1.00  0.00     0.031 A 
HETATM   28  C   UNL     1     -39.927  51.308 -53.482  1.00  0.00     0.026 A 
HETATM   29  C   UNL     1     -39.776  51.259 -52.101  1.00  0.00     0.034 A 
HETATM   30 CL   UNL     1     -39.394  49.768 -51.332  1.00  0.00    -0.084 Cl
HETATM   31  C   UNL     1     -39.932  52.412 -51.338  1.00  0.00     0.026 A 
HETATM   32  C   UNL     1     -40.238  53.625 -51.967  1.00  0.00     0.031 A 
ENDBRANCH  22  26
ENDBRANCH   2  20
TORSDOF 4
ENDMDL
MODEL 10
REMARK VINA RESULT:      -7.6      3.968      4.524
REMARK  4 active torsions:
REMARK  status: ('A' for Active; 'I' for Inactive)
REMARK    1  A    between atoms: N_4  and  C_5 
REMARK    2  A    between atoms: C_14  and  C_15 
REMARK       I    between atoms: C_15  and  N_16 
REMARK    3  A    between atoms: N_16  and  N_17 
REMARK       I    between atoms: N_17  and  C_18 
REMARK       I    between atoms: C_18  and  N_19 
REMARK    4  A    between atoms: N_19  and  C_20 
ROOT
HETATM    1  C   UNL     1     -42.252  58.262 -55.369  1.00  0.00     0.277 C 
HETATM    2  N   UNL     1     -43.380  57.981 -56.114  1.00  0.00    -0.261 N 
HETATM    3  O   UNL     1     -41.603  59.290 -55.560  1.00  0.00    -0.265 OA
HETATM    4  H   UNL     1     -43.870  57.089 -56.038  1.00  0.00     0.190 HD
ENDROOT
BRANCH   1   5
HETATM    5  C   UNL     1     -41.907  57.266 -54.364  1.00  0.00     0.077 A 
HETATM    6  S   UNL     1     -41.513  55.624 -54.819  1.00  0.00    -0.064 SA
HETATM    7  C   UNL     1     -41.232  55.220 -53.229  1.00  0.00     0.113 A 
HETATM    8  N   UNL     1     -40.841  54.148 -52.466  1.00  0.00    -0.226 N 
HETATM    9  C   UNL     1     -41.433  56.248 -52.398  1.00  0.00     0.027 A 
HETATM   10  N   UNL     1     -40.830  54.520 -51.130  1.00  0.00    -0.171 NA
HETATM   11  C   UNL     1     -41.194  55.817 -51.106  1.00  0.00     0.064 A 
HETATM   12  C   UNL     1     -41.296  56.555 -49.829  1.00  0.00     0.073 C 
HETATM   13  C   UNL     1     -41.810  57.452 -52.984  1.00  0.00     0.041 A 
BRANCH   8  14
HETATM   14  C   UNL     1     -40.462  52.825 -52.841  1.00  0.00     0.059 A 
HETATM   15  C   UNL     1     -39.831  52.003 -51.892  1.00  0.00     0.031 A 
HETATM   16  C   UNL     1     -39.431  50.706 -52.226  1.00  0.00     0.002 A 
HETATM   17  C   UNL     1     -39.657  50.215 -53.508  1.00  0.00     0.000 A 
HETATM   18  C   UNL     1     -40.285  51.019 -54.456  1.00  0.00     0.002 A 
HETATM   19  C   UNL     1     -40.687  52.319 -54.127  1.00  0.00     0.031 A 
ENDBRANCH   8  14
ENDBRANCH   1   5
BRANCH   2  20
HETATM   20  N   UNL     1     -43.716  58.777 -57.222  1.00  0.00    -0.249 N 
HETATM   21  C   UNL     1     -45.044  58.720 -57.620  1.00  0.00     0.339 C 
HETATM   22  N   UNL     1     -45.269  59.434 -58.775  1.00  0.00    -0.308 N 
HETATM   23  O   UNL     1     -45.873  58.109 -56.952  1.00  0.00    -0.245 OA
HETATM   24  H   UNL     1     -44.469  59.915 -59.160  1.00  0.00     0.170 HD
HETATM   25  H   UNL     1     -42.974  58.886 -57.909  1.00  0.00     0.192 HD
BRANCH  22  26
HETATM   26  C   UNL     1     -46.500  59.628 -59.434  1.00  0.00     0.036 A 
HETATM   27  C   UNL     1     -47.455  60.572 -59.043  1.00  0.00     0.031 A 
HETATM   28  C   UNL     1     -48.649  60.717 -59.759  1.00  0.00     0.026 A 
HETATM   29  C   UNL     1     -48.894  59.916 -60.868  1.00  0.00     0.034 A 
HETATM   30 CL   UNL     1     -50.359  60.099 -61.751  1.00  0.00    -0.084 Cl
HETATM   31  C   UNL     1     -47.957  58.968 -61.269  1.00  0.00     0.026 A 
HETATM   32  C   UNL     1     -46.763  58.826 -60.552  1.00  0.00     0.031 A 
ENDBRANCH  22  26
ENDBRANCH   2  20
TORSDOF 4
ENDMDL
