MODEL 1
REMARK VINA RESULT:      -8.5      0.000      0.000
REMARK  6 active torsions:
REMARK  status: ('A' for Active; 'I' for Inactive)
REMARK    1  A    between atoms: C_2  and  C_3 
REMARK    2  A    between atoms: C_7  and  C_8 
REMARK       I    between atoms: C_8  and  N_9 
REMARK    3  A    between atoms: N_9  and  C_10 
REMARK    4  A    between atoms: C_12  and  N_13 
REMARK       I    between atoms: N_13  and  C_14 
REMARK    5  A    between atoms: C_14  and  C_15 
REMARK    6  A    between atoms: C_23  and  O_24 
ROOT
HETATM    1  C   UNL     1     -44.197  56.635 -53.706  1.00  0.00     0.037 A 
HETATM    2  C   UNL     1     -43.348  55.521 -53.737  1.00  0.00     0.062 A 
HETATM    3  C   UNL     1     -42.673  55.103 -52.586  1.00  0.00     0.070 A 
HETATM    4  C   UNL     1     -42.820  55.829 -51.387  1.00  0.00     0.095 A 
HETATM    5  C   UNL     1     -43.643  56.956 -51.364  1.00  0.00     0.041 A 
HETATM    6  C   UNL     1     -44.332  57.351 -52.517  1.00  0.00     0.032 A 
ENDROOT
BRANCH   1   7
HETATM    7  N   UNL     1     -44.869  56.963 -54.902  1.00  0.00    -0.322 N 
HETATM    8  C   UNL     1     -44.400  57.735 -55.945  1.00  0.00     0.274 C 
HETATM    9  O   UNL     1     -43.321  58.317 -55.969  1.00  0.00    -0.266 OA
HETATM   10  H   UNL     1     -45.842  56.688 -54.946  1.00  0.00     0.169 HD
BRANCH   8  11
HETATM   11  C   UNL     1     -45.329  57.869 -57.041  1.00  0.00     0.120 A 
HETATM   12  N   UNL     1     -46.659  58.108 -56.825  1.00  0.00    -0.273 N 
HETATM   13  N   UNL     1     -47.391  58.196 -57.946  1.00  0.00    -0.179 NA
HETATM   14  H   UNL     1     -47.120  58.208 -55.925  1.00  0.00     0.189 HD
HETATM   15  C   UNL     1     -46.497  58.048 -58.930  1.00  0.00     0.056 A 
HETATM   16  C   UNL     1     -45.194  57.837 -58.416  1.00  0.00     0.065 A 
BRANCH  15  17
HETATM   17  C   UNL     1     -46.919  58.136 -60.358  1.00  0.00     0.056 C 
HETATM   18  C   UNL     1     -47.339  56.791 -60.929  1.00  0.00     0.011 C 
ENDBRANCH  15  17
ENDBRANCH   8  11
ENDBRANCH   1   7
BRANCH   3  19
HETATM   19  N   UNL     1     -41.871  53.939 -52.533  1.00  0.00    -0.320 N 
HETATM   20  C   UNL     1     -40.802  53.606 -53.338  1.00  0.00     0.256 C 
HETATM   21  O   UNL     1     -40.235  54.341 -54.138  1.00  0.00    -0.267 OA
HETATM   22  H   UNL     1     -42.149  53.300 -51.795  1.00  0.00     0.169 HD
BRANCH  20  23
HETATM   23  C   UNL     1     -40.304  52.208 -53.183  1.00  0.00     0.035 A 
HETATM   24  C   UNL     1     -39.903  51.705 -51.941  1.00  0.00     0.059 A 
HETATM   25  C   UNL     1     -39.488  50.381 -51.844  1.00  0.00     0.117 A 
HETATM   26  F   UNL     1     -39.108  49.900 -50.652  1.00  0.00    -0.206 F 
HETATM   27  C   UNL     1     -39.472  49.546 -52.955  1.00  0.00     0.042 A 
HETATM   28  C   UNL     1     -39.884  50.038 -54.192  1.00  0.00     0.004 A 
HETATM   29  C   UNL     1     -40.304  51.366 -54.305  1.00  0.00     0.017 A 
ENDBRANCH  20  23
ENDBRANCH   3  19
BRANCH   4  30
HETATM   30  O   UNL     1     -42.122  55.338 -50.308  1.00  0.00    -0.354 OA
HETATM   31  C   UNL     1     -41.133  56.190 -49.739  1.00  0.00     0.210 C 
ENDBRANCH   4  30
TORSDOF 6
ENDMDL
MODEL 2
REMARK VINA RESULT:      -8.3      1.635      2.095
REMARK  6 active torsions:
REMARK  status: ('A' for Active; 'I' for Inactive)
REMARK    1  A    between atoms: C_2  and  C_3 
REMARK    2  A    between atoms: C_7  and  C_8 
REMARK       I    between atoms: C_8  and  N_9 
REMARK    3  A    between atoms: N_9  and  C_10 
REMARK    4  A    between atoms: C_12  and  N_13 
REMARK       I    between atoms: N_13  and  C_14 
REMARK    5  A    between atoms: C_14  and  C_15 
REMARK    6  A    between atoms: C_23  and  O_24 
ROOT
HETATM    1  C   UNL     1     -44.359  57.319 -55.217  1.00  0.00     0.037 A 
HETATM    2  C   UNL     1     -43.541  56.219 -54.926  1.00  0.00     0.062 A 
HETATM    3  C   UNL     1     -42.860  56.135 -53.708  1.00  0.00     0.070 A 
HETATM    4  C   UNL     1     -42.969  57.184 -52.773  1.00  0.00     0.095 A 
HETATM    5  C   UNL     1     -43.760  58.293 -53.075  1.00  0.00     0.041 A 
HETATM    6  C   UNL     1     -44.456  58.355 -54.289  1.00  0.00     0.032 A 
ENDROOT
BRANCH   1   7
HETATM    7  N   UNL     1     -45.039  57.304 -56.452  1.00  0.00    -0.322 N 
HETATM    8  C   UNL     1     -44.542  57.656 -57.691  1.00  0.00     0.274 C 
HETATM    9  O   UNL     1     -43.420  58.102 -57.905  1.00  0.00    -0.266 OA
HETATM   10  H   UNL     1     -46.032  57.116 -56.402  1.00  0.00     0.169 HD
BRANCH   8  11
HETATM   11  C   UNL     1     -45.492  57.513 -58.768  1.00  0.00     0.120 A 
HETATM   12  N   UNL     1     -45.921  56.281 -59.183  1.00  0.00    -0.273 N 
HETATM   13  N   UNL     1     -46.795  56.318 -60.201  1.00  0.00    -0.179 NA
HETATM   14  H   UNL     1     -45.637  55.381 -58.809  1.00  0.00     0.189 HD
HETATM   15  C   UNL     1     -46.971  57.624 -60.430  1.00  0.00     0.056 A 
HETATM   16  C   UNL     1     -46.175  58.413 -59.563  1.00  0.00     0.065 A 
BRANCH  15  17
HETATM   17  C   UNL     1     -47.928  58.088 -61.476  1.00  0.00     0.056 C 
HETATM   18  C   UNL     1     -48.523  56.941 -62.277  1.00  0.00     0.011 C 
ENDBRANCH  15  17
ENDBRANCH   8  11
ENDBRANCH   1   7
BRANCH   3  19
HETATM   19  N   UNL     1     -42.090  55.013 -53.323  1.00  0.00    -0.320 N 
HETATM   20  C   UNL     1     -40.910  54.561 -53.876  1.00  0.00     0.256 C 
HETATM   21  O   UNL     1     -40.215  55.152 -54.693  1.00  0.00    -0.267 OA
HETATM   22  H   UNL     1     -42.489  54.510 -52.536  1.00  0.00     0.169 HD
BRANCH  20  23
HETATM   23  C   UNL     1     -40.459  53.222 -53.397  1.00  0.00     0.035 A 
HETATM   24  C   UNL     1     -40.214  52.169 -54.285  1.00  0.00     0.059 A 
HETATM   25  C   UNL     1     -39.751  50.954 -53.791  1.00  0.00     0.117 A 
HETATM   26  F   UNL     1     -39.513  49.948 -54.643  1.00  0.00    -0.206 F 
HETATM   27  C   UNL     1     -39.520  50.768 -52.433  1.00  0.00     0.042 A 
HETATM   28  C   UNL     1     -39.749  51.818 -51.546  1.00  0.00     0.004 A 
HETATM   29  C   UNL     1     -40.213  53.045 -52.028  1.00  0.00     0.017 A 
ENDBRANCH  20  23
ENDBRANCH   3  19
BRANCH   4  30
HETATM   30  O   UNL     1     -42.268  57.008 -51.602  1.00  0.00    -0.354 OA
HETATM   31  C   UNL     1     -41.347  58.032 -51.243  1.00  0.00     0.210 C 
ENDBRANCH   4  30
TORSDOF 6
ENDMDL
MODEL 3
REMARK VINA RESULT:      -8.2      3.965      6.454
REMARK  6 active torsions:
REMARK  status: ('A' for Active; 'I' for Inactive)
REMARK    1  A    between atoms: C_2  and  C_3 
REMARK    2  A    between atoms: C_7  and  C_8 
REMARK       I    between atoms: C_8  and  N_9 
REMARK    3  A    between atoms: N_9  and  C_10 
REMARK    4  A    between atoms: C_12  and  N_13 
REMARK       I    between atoms: N_13  and  C_14 
REMARK    5  A    between atoms: C_14  and  C_15 
REMARK    6  A    between atoms: C_23  and  O_24 
ROOT
HETATM    1  C   UNL     1     -44.211  58.095 -52.472  1.00  0.00     0.037 A 
HETATM    2  C   UNL     1     -43.435  56.976 -52.144  1.00  0.00     0.062 A 
HETATM    3  C   UNL     1     -43.221  55.954 -53.075  1.00  0.00     0.070 A 
HETATM    4  C   UNL     1     -43.820  56.034 -54.348  1.00  0.00     0.095 A 
HETATM    5  C   UNL     1     -44.617  57.135 -54.665  1.00  0.00     0.041 A 
HETATM    6  C   UNL     1     -44.804  58.162 -53.732  1.00  0.00     0.032 A 
ENDROOT
BRANCH   1   7
HETATM    7  N   UNL     1     -44.342  59.095 -51.487  1.00  0.00    -0.322 N 
HETATM    8  C   UNL     1     -45.376  59.259 -50.587  1.00  0.00     0.274 C 
HETATM    9  O   UNL     1     -46.394  58.576 -50.543  1.00  0.00    -0.266 OA
HETATM   10  H   UNL     1     -43.651  59.834 -51.519  1.00  0.00     0.169 HD
BRANCH   8  11
HETATM   11  C   UNL     1     -45.205  60.377 -49.691  1.00  0.00     0.120 A 
HETATM   12  N   UNL     1     -45.402  60.248 -48.343  1.00  0.00    -0.273 N 
HETATM   13  N   UNL     1     -45.213  61.381 -47.649  1.00  0.00    -0.179 NA
HETATM   14  H   UNL     1     -45.678  59.406 -47.846  1.00  0.00     0.189 HD
HETATM   15  C   UNL     1     -44.841  62.271 -48.576  1.00  0.00     0.056 A 
HETATM   16  C   UNL     1     -44.824  61.693 -49.869  1.00  0.00     0.065 A 
BRANCH  15  17
HETATM   17  C   UNL     1     -44.485  63.667 -48.189  1.00  0.00     0.056 C 
HETATM   18  C   UNL     1     -44.973  64.031 -46.795  1.00  0.00     0.011 C 
ENDBRANCH  15  17
ENDBRANCH   8  11
ENDBRANCH   1   7
BRANCH   3  19
HETATM   19  N   UNL     1     -42.379  54.844 -52.833  1.00  0.00    -0.320 N 
HETATM   20  C   UNL     1     -41.119  54.605 -53.342  1.00  0.00     0.256 C 
HETATM   21  O   UNL     1     -40.421  55.400 -53.959  1.00  0.00    -0.267 OA
HETATM   22  H   UNL     1     -42.790  54.166 -52.199  1.00  0.00     0.169 HD
BRANCH  20  23
HETATM   23  C   UNL     1     -40.580  53.239 -53.083  1.00  0.00     0.035 A 
HETATM   24  C   UNL     1     -40.354  52.329 -54.121  1.00  0.00     0.059 A 
HETATM   25  C   UNL     1     -39.808  51.084 -53.829  1.00  0.00     0.117 A 
HETATM   26  F   UNL     1     -39.589  50.216 -54.826  1.00  0.00    -0.206 F 
HETATM   27  C   UNL     1     -39.473  50.729 -52.527  1.00  0.00     0.042 A 
HETATM   28  C   UNL     1     -39.682  51.637 -51.491  1.00  0.00     0.004 A 
HETATM   29  C   UNL     1     -40.230  52.892 -51.769  1.00  0.00     0.017 A 
ENDBRANCH  20  23
ENDBRANCH   3  19
BRANCH   4  30
HETATM   30  O   UNL     1     -43.546  54.986 -55.197  1.00  0.00    -0.354 OA
HETATM   31  C   UNL     1     -42.951  55.310 -56.449  1.00  0.00     0.210 C 
ENDBRANCH   4  30
TORSDOF 6
ENDMDL
MODEL 4
REMARK VINA RESULT:      -7.7      2.612      2.714
REMARK  6 active torsions:
REMARK  status: ('A' for Active; 'I' for Inactive)
REMARK    1  A    between atoms: C_2  and  C_3 
REMARK    2  A    between atoms: C_7  and  C_8 
REMARK       I    between atoms: C_8  and  N_9 
REMARK    3  A    between atoms: N_9  and  C_10 
REMARK    4  A    between atoms: C_12  and  N_13 
REMARK       I    between atoms: N_13  and  C_14 
REMARK    5  A    between atoms: C_14  and  C_15 
REMARK    6  A    between atoms: C_23  and  O_24 
ROOT
HETATM    1  C   UNL     1     -43.039  57.455 -53.955  1.00  0.00     0.037 A 
HETATM    2  C   UNL     1     -42.249  56.299 -53.903  1.00  0.00     0.062 A 
HETATM    3  C   UNL     1     -42.276  55.463 -52.783  1.00  0.00     0.070 A 
HETATM    4  C   UNL     1     -43.082  55.802 -51.677  1.00  0.00     0.095 A 
HETATM    5  C   UNL     1     -43.847  56.969 -51.718  1.00  0.00     0.041 A 
HETATM    6  C   UNL     1     -43.829  57.786 -52.855  1.00  0.00     0.032 A 
ENDROOT
BRANCH   1   7
HETATM    7  N   UNL     1     -42.980  58.219 -55.139  1.00  0.00    -0.322 N 
HETATM    8  C   UNL     1     -42.101  59.241 -55.437  1.00  0.00     0.274 C 
HETATM    9  O   UNL     1     -41.252  59.692 -54.676  1.00  0.00    -0.266 OA
HETATM   10  H   UNL     1     -43.736  58.069 -55.795  1.00  0.00     0.169 HD
BRANCH   8  11
HETATM   11  C   UNL     1     -42.290  59.816 -56.747  1.00  0.00     0.120 A 
HETATM   12  N   UNL     1     -43.171  60.842 -56.956  1.00  0.00    -0.273 N 
HETATM   13  N   UNL     1     -43.239  61.257 -58.231  1.00  0.00    -0.179 NA
HETATM   14  H   UNL     1     -43.760  61.289 -56.260  1.00  0.00     0.189 HD
HETATM   15  C   UNL     1     -42.340  60.498 -58.867  1.00  0.00     0.056 A 
HETATM   16  C   UNL     1     -41.723  59.578 -57.984  1.00  0.00     0.065 A 
BRANCH  15  17
HETATM   17  C   UNL     1     -42.077  60.693 -60.323  1.00  0.00     0.056 C 
HETATM   18  C   UNL     1     -41.890  59.379 -61.065  1.00  0.00     0.011 C 
ENDBRANCH  15  17
ENDBRANCH   8  11
ENDBRANCH   1   7
BRANCH   3  19
HETATM   19  N   UNL     1     -41.568  54.241 -52.705  1.00  0.00    -0.320 N 
HETATM   20  C   UNL     1     -40.626  53.747 -53.584  1.00  0.00     0.256 C 
HETATM   21  O   UNL     1     -40.097  54.359 -54.504  1.00  0.00    -0.267 OA
HETATM   22  H   UNL     1     -41.810  53.694 -51.886  1.00  0.00     0.169 HD
BRANCH  20  23
HETATM   23  C   UNL     1     -40.226  52.329 -53.352  1.00  0.00     0.035 A 
HETATM   24  C   UNL     1     -39.857  51.868 -52.084  1.00  0.00     0.059 A 
HETATM   25  C   UNL     1     -39.536  50.526 -51.914  1.00  0.00     0.117 A 
HETATM   26  F   UNL     1     -39.187  50.085 -50.698  1.00  0.00    -0.206 F 
HETATM   27  C   UNL     1     -39.581  49.631 -52.977  1.00  0.00     0.042 A 
HETATM   28  C   UNL     1     -39.962  50.083 -54.240  1.00  0.00     0.004 A 
HETATM   29  C   UNL     1     -40.288  51.428 -54.426  1.00  0.00     0.017 A 
ENDBRANCH  20  23
ENDBRANCH   3  19
BRANCH   4  30
HETATM   30  O   UNL     1     -43.048  54.916 -50.625  1.00  0.00    -0.354 OA
HETATM   31  C   UNL     1     -44.253  54.217 -50.333  1.00  0.00     0.210 C 
ENDBRANCH   4  30
TORSDOF 6
ENDMDL
MODEL 5
REMARK VINA RESULT:      -7.7      3.353      3.789
REMARK  6 active torsions:
REMARK  status: ('A' for Active; 'I' for Inactive)
REMARK    1  A    between atoms: C_2  and  C_3 
REMARK    2  A    between atoms: C_7  and  C_8 
REMARK       I    between atoms: C_8  and  N_9 
REMARK    3  A    between atoms: N_9  and  C_10 
REMARK    4  A    between atoms: C_12  and  N_13 
REMARK       I    between atoms: N_13  and  C_14 
REMARK    5  A    between atoms: C_14  and  C_15 
REMARK    6  A    between atoms: C_23  and  O_24 
ROOT
HETATM    1  C   UNL     1     -41.756  58.507 -53.731  1.00  0.00     0.037 A 
HETATM    2  C   UNL     1     -41.165  57.242 -53.849  1.00  0.00     0.062 A 
HETATM    3  C   UNL     1     -41.291  56.294 -52.829  1.00  0.00     0.070 A 
HETATM    4  C   UNL     1     -41.994  56.624 -51.652  1.00  0.00     0.095 A 
HETATM    5  C   UNL     1     -42.558  57.894 -51.523  1.00  0.00     0.041 A 
HETATM    6  C   UNL     1     -42.444  58.826 -52.561  1.00  0.00     0.032 A 
ENDROOT
BRANCH   1   7
HETATM    7  N   UNL     1     -41.611  59.387 -54.823  1.00  0.00    -0.322 N 
HETATM    8  C   UNL     1     -42.589  59.801 -55.705  1.00  0.00     0.274 C 
HETATM    9  O   UNL     1     -43.752  59.412 -55.709  1.00  0.00    -0.266 OA
HETATM   10  H   UNL     1     -40.662  59.657 -55.044  1.00  0.00     0.169 HD
BRANCH   8  11
HETATM   11  C   UNL     1     -42.122  60.725 -56.710  1.00  0.00     0.120 A 
HETATM   12  N   UNL     1     -42.467  62.049 -56.679  1.00  0.00    -0.273 N 
HETATM   13  N   UNL     1     -41.961  62.773 -57.689  1.00  0.00    -0.179 NA
HETATM   14  H   UNL     1     -43.058  62.507 -55.991  1.00  0.00     0.189 HD
HETATM   15  C   UNL     1     -41.227  61.894 -58.381  1.00  0.00     0.056 A 
HETATM   16  C   UNL     1     -41.299  60.600 -57.812  1.00  0.00     0.065 A 
BRANCH  15  17
HETATM   17  C   UNL     1     -40.448  62.332 -59.576  1.00  0.00     0.056 C 
HETATM   18  C   UNL     1     -41.202  62.115 -60.879  1.00  0.00     0.011 C 
ENDBRANCH  15  17
ENDBRANCH   8  11
ENDBRANCH   1   7
BRANCH   3  19
HETATM   19  N   UNL     1     -40.791  54.975 -52.926  1.00  0.00    -0.320 N 
HETATM   20  C   UNL     1     -41.302  53.924 -53.658  1.00  0.00     0.256 C 
HETATM   21  O   UNL     1     -42.186  53.987 -54.505  1.00  0.00    -0.267 OA
HETATM   22  H   UNL     1     -39.951  54.828 -52.376  1.00  0.00     0.169 HD
BRANCH  20  23
HETATM   23  C   UNL     1     -40.684  52.596 -53.377  1.00  0.00     0.035 A 
HETATM   24  C   UNL     1     -40.549  51.623 -54.373  1.00  0.00     0.059 A 
HETATM   25  C   UNL     1     -39.924  50.418 -54.069  1.00  0.00     0.117 A 
HETATM   26  F   UNL     1     -39.792  49.489 -55.025  1.00  0.00    -0.206 F 
HETATM   27  C   UNL     1     -39.425  50.164 -52.796  1.00  0.00     0.042 A 
HETATM   28  C   UNL     1     -39.544  51.136 -51.805  1.00  0.00     0.004 A 
HETATM   29  C   UNL     1     -40.168  52.351 -52.096  1.00  0.00     0.017 A 
ENDBRANCH  20  23
ENDBRANCH   3  19
BRANCH   4  30
HETATM   30  O   UNL     1     -42.071  55.625 -50.709  1.00  0.00    -0.354 OA
HETATM   31  C   UNL     1     -41.241  55.759 -49.561  1.00  0.00     0.210 C 
ENDBRANCH   4  30
TORSDOF 6
ENDMDL
MODEL 6
REMARK VINA RESULT:      -7.6      4.457      9.269
REMARK  6 active torsions:
REMARK  status: ('A' for Active; 'I' for Inactive)
REMARK    1  A    between atoms: C_2  and  C_3 
REMARK    2  A    between atoms: C_7  and  C_8 
REMARK       I    between atoms: C_8  and  N_9 
REMARK    3  A    between atoms: N_9  and  C_10 
REMARK    4  A    between atoms: C_12  and  N_13 
REMARK       I    between atoms: N_13  and  C_14 
REMARK    5  A    between atoms: C_14  and  C_15 
REMARK    6  A    between atoms: C_23  and  O_24 
ROOT
HETATM    1  C   UNL     1     -43.343  56.508 -53.267  1.00  0.00     0.037 A 
HETATM    2  C   UNL     1     -43.304  57.450 -52.231  1.00  0.00     0.062 A 
HETATM    3  C   UNL     1     -44.085  58.608 -52.285  1.00  0.00     0.070 A 
HETATM    4  C   UNL     1     -44.899  58.850 -53.410  1.00  0.00     0.095 A 
HETATM    5  C   UNL     1     -44.916  57.926 -54.455  1.00  0.00     0.041 A 
HETATM    6  C   UNL     1     -44.147  56.758 -54.378  1.00  0.00     0.032 A 
ENDROOT
BRANCH   1   7
HETATM    7  N   UNL     1     -42.553  55.351 -53.112  1.00  0.00    -0.322 N 
HETATM    8  C   UNL     1     -41.263  55.147 -53.560  1.00  0.00     0.274 C 
HETATM    9  O   UNL     1     -40.610  55.941 -54.229  1.00  0.00    -0.266 OA
HETATM   10  H   UNL     1     -43.027  54.546 -52.723  1.00  0.00     0.169 HD
BRANCH   8  11
HETATM   11  C   UNL     1     -40.722  53.853 -53.225  1.00  0.00     0.120 A 
HETATM   12  N   UNL     1     -40.276  53.570 -51.962  1.00  0.00    -0.273 N 
HETATM   13  N   UNL     1     -39.792  52.327 -51.815  1.00  0.00    -0.179 NA
HETATM   14  H   UNL     1     -40.270  54.199 -51.164  1.00  0.00     0.189 HD
HETATM   15  C   UNL     1     -39.967  51.767 -53.017  1.00  0.00     0.056 A 
HETATM   16  C   UNL     1     -40.541  52.681 -53.934  1.00  0.00     0.065 A 
BRANCH  15  17
HETATM   17  C   UNL     1     -39.592  50.342 -53.252  1.00  0.00     0.056 C 
HETATM   18  C   UNL     1     -39.817  49.906 -54.691  1.00  0.00     0.011 C 
ENDBRANCH  15  17
ENDBRANCH   8  11
ENDBRANCH   1   7
BRANCH   3  19
HETATM   19  N   UNL     1     -44.153  59.552 -51.233  1.00  0.00    -0.320 N 
HETATM   20  C   UNL     1     -45.143  59.698 -50.284  1.00  0.00     0.256 C 
HETATM   21  O   UNL     1     -46.064  58.919 -50.067  1.00  0.00    -0.267 OA
HETATM   22  H   UNL     1     -43.353  60.176 -51.209  1.00  0.00     0.169 HD
BRANCH  20  23
HETATM   23  C   UNL     1     -45.043  60.928 -49.448  1.00  0.00     0.035 A 
HETATM   24  C   UNL     1     -45.490  60.954 -48.122  1.00  0.00     0.059 A 
HETATM   25  C   UNL     1     -45.333  62.115 -47.372  1.00  0.00     0.117 A 
HETATM   26  F   UNL     1     -45.758  62.136 -46.102  1.00  0.00    -0.206 F 
HETATM   27  C   UNL     1     -44.733  63.247 -47.911  1.00  0.00     0.042 A 
HETATM   28  C   UNL     1     -44.272  63.222 -49.226  1.00  0.00     0.004 A 
HETATM   29  C   UNL     1     -44.423  62.063 -49.992  1.00  0.00     0.017 A 
ENDBRANCH  20  23
ENDBRANCH   3  19
BRANCH   4  30
HETATM   30  O   UNL     1     -45.636  60.011 -53.369  1.00  0.00    -0.354 OA
HETATM   31  C   UNL     1     -45.509  60.893 -54.479  1.00  0.00     0.210 C 
ENDBRANCH   4  30
TORSDOF 6
ENDMDL
MODEL 7
REMARK VINA RESULT:      -7.4      4.402      9.393
REMARK  6 active torsions:
REMARK  status: ('A' for Active; 'I' for Inactive)
REMARK    1  A    between atoms: C_2  and  C_3 
REMARK    2  A    between atoms: C_7  and  C_8 
REMARK       I    between atoms: C_8  and  N_9 
REMARK    3  A    between atoms: N_9  and  C_10 
REMARK    4  A    between atoms: C_12  and  N_13 
REMARK       I    between atoms: N_13  and  C_14 
REMARK    5  A    between atoms: C_14  and  C_15 
REMARK    6  A    between atoms: C_23  and  O_24 
ROOT
HETATM    1  C   UNL     1     -43.066  56.207 -54.968  1.00  0.00     0.037 A 
HETATM    2  C   UNL     1     -42.532  56.891 -56.067  1.00  0.00     0.062 A 
HETATM    3  C   UNL     1     -43.204  57.980 -56.629  1.00  0.00     0.070 A 
HETATM    4  C   UNL     1     -44.451  58.377 -56.105  1.00  0.00     0.095 A 
HETATM    5  C   UNL     1     -44.997  57.678 -55.028  1.00  0.00     0.041 A 
HETATM    6  C   UNL     1     -44.303  56.603 -54.460  1.00  0.00     0.032 A 
ENDROOT
BRANCH   1   7
HETATM    7  N   UNL     1     -42.303  55.145 -54.440  1.00  0.00    -0.322 N 
HETATM    8  C   UNL     1     -41.488  55.167 -53.327  1.00  0.00     0.274 C 
HETATM    9  O   UNL     1     -41.250  56.155 -52.641  1.00  0.00    -0.266 OA
HETATM   10  H   UNL     1     -42.271  54.306 -55.006  1.00  0.00     0.169 HD
BRANCH   8  11
HETATM   11  C   UNL     1     -40.854  53.904 -53.037  1.00  0.00     0.120 A 
HETATM   12  N   UNL     1     -40.453  53.580 -51.769  1.00  0.00    -0.273 N 
HETATM   13  N   UNL     1     -39.871  52.375 -51.667  1.00  0.00    -0.179 NA
HETATM   14  H   UNL     1     -40.546  54.155 -50.936  1.00  0.00     0.189 HD
HETATM   15  C   UNL     1     -39.930  51.880 -52.909  1.00  0.00     0.056 A 
HETATM   16  C   UNL     1     -40.532  52.800 -53.803  1.00  0.00     0.065 A 
BRANCH  15  17
HETATM   17  C   UNL     1     -39.419  50.511 -53.205  1.00  0.00     0.056 C 
HETATM   18  C   UNL     1     -40.020  49.922 -54.471  1.00  0.00     0.011 C 
ENDBRANCH  15  17
ENDBRANCH   8  11
ENDBRANCH   1   7
BRANCH   3  19
HETATM   19  N   UNL     1     -42.677  58.762 -57.683  1.00  0.00    -0.320 N 
HETATM   20  C   UNL     1     -41.891  59.893 -57.592  1.00  0.00     0.256 C 
HETATM   21  O   UNL     1     -41.356  60.328 -56.580  1.00  0.00    -0.267 OA
HETATM   22  H   UNL     1     -42.927  58.411 -58.601  1.00  0.00     0.169 HD
BRANCH  20  23
HETATM   23  C   UNL     1     -41.682  60.624 -58.875  1.00  0.00     0.035 A 
HETATM   24  C   UNL     1     -40.923  61.797 -58.936  1.00  0.00     0.059 A 
HETATM   25  C   UNL     1     -40.722  62.415 -60.166  1.00  0.00     0.117 A 
HETATM   26  F   UNL     1     -39.991  63.537 -60.223  1.00  0.00    -0.206 F 
HETATM   27  C   UNL     1     -41.254  61.886 -61.336  1.00  0.00     0.042 A 
HETATM   28  C   UNL     1     -41.999  60.709 -61.282  1.00  0.00     0.004 A 
HETATM   29  C   UNL     1     -42.209  60.077 -60.055  1.00  0.00     0.017 A 
ENDBRANCH  20  23
ENDBRANCH   3  19
BRANCH   4  30
HETATM   30  O   UNL     1     -45.033  59.463 -56.719  1.00  0.00    -0.354 OA
HETATM   31  C   UNL     1     -46.262  59.235 -57.399  1.00  0.00     0.210 C 
ENDBRANCH   4  30
TORSDOF 6
ENDMDL
MODEL 8
REMARK VINA RESULT:      -7.3      3.394      3.917
REMARK  6 active torsions:
REMARK  status: ('A' for Active; 'I' for Inactive)
REMARK    1  A    between atoms: C_2  and  C_3 
REMARK    2  A    between atoms: C_7  and  C_8 
REMARK       I    between atoms: C_8  and  N_9 
REMARK    3  A    between atoms: N_9  and  C_10 
REMARK    4  A    between atoms: C_12  and  N_13 
REMARK       I    between atoms: N_13  and  C_14 
REMARK    5  A    between atoms: C_14  and  C_15 
REMARK    6  A    between atoms: C_23  and  O_24 
ROOT
HETATM    1  C   UNL     1     -42.679  58.389 -55.609  1.00  0.00     0.037 A 
HETATM    2  C   UNL     1     -41.899  57.266 -55.302  1.00  0.00     0.062 A 
HETATM    3  C   UNL     1     -42.114  56.545 -54.124  1.00  0.00     0.070 A 
HETATM    4  C   UNL     1     -43.105  56.970 -53.216  1.00  0.00     0.095 A 
HETATM    5  C   UNL     1     -43.862  58.105 -53.508  1.00  0.00     0.041 A 
HETATM    6  C   UNL     1     -43.653  58.805 -54.703  1.00  0.00     0.032 A 
ENDROOT
BRANCH   1   7
HETATM    7  N   UNL     1     -42.421  59.034 -56.837  1.00  0.00    -0.322 N 
HETATM    8  C   UNL     1     -42.645  58.544 -58.108  1.00  0.00     0.274 C 
HETATM    9  O   UNL     1     -43.061  57.421 -58.373  1.00  0.00    -0.266 OA
HETATM   10  H   UNL     1     -41.917  59.909 -56.774  1.00  0.00     0.169 HD
BRANCH   8  11
HETATM   11  C   UNL     1     -42.289  59.461 -59.163  1.00  0.00     0.120 A 
HETATM   12  N   UNL     1     -42.081  59.029 -60.445  1.00  0.00    -0.273 N 
HETATM   13  N   UNL     1     -41.746  60.002 -61.306  1.00  0.00    -0.179 NA
HETATM   14  H   UNL     1     -42.144  58.073 -60.782  1.00  0.00     0.189 HD
HETATM   15  C   UNL     1     -41.776  61.115 -60.564  1.00  0.00     0.056 A 
HETATM   16  C   UNL     1     -42.106  60.829 -59.217  1.00  0.00     0.065 A 
BRANCH  15  17
HETATM   17  C   UNL     1     -41.504  62.446 -61.181  1.00  0.00     0.056 C 
HETATM   18  C   UNL     1     -40.021  62.695 -61.407  1.00  0.00     0.011 C 
ENDBRANCH  15  17
ENDBRANCH   8  11
ENDBRANCH   1   7
BRANCH   3  19
HETATM   19  N   UNL     1     -41.418  55.357 -53.800  1.00  0.00    -0.320 N 
HETATM   20  C   UNL     1     -41.658  54.079 -54.262  1.00  0.00     0.256 C 
HETATM   21  O   UNL     1     -42.407  53.764 -55.179  1.00  0.00    -0.267 OA
HETATM   22  H   UNL     1     -40.655  55.509 -53.149  1.00  0.00     0.169 HD
BRANCH  20  23
HETATM   23  C   UNL     1     -40.901  53.001 -53.563  1.00  0.00     0.035 A 
HETATM   24  C   UNL     1     -40.480  51.847 -54.233  1.00  0.00     0.059 A 
HETATM   25  C   UNL     1     -39.738  50.892 -53.545  1.00  0.00     0.117 A 
HETATM   26  F   UNL     1     -39.332  49.790 -54.189  1.00  0.00    -0.206 F 
HETATM   27  C   UNL     1     -39.400  51.066 -52.207  1.00  0.00     0.042 A 
HETATM   28  C   UNL     1     -39.804  52.221 -51.540  1.00  0.00     0.004 A 
HETATM   29  C   UNL     1     -40.550  53.189 -52.218  1.00  0.00     0.017 A 
ENDBRANCH  20  23
ENDBRANCH   3  19
BRANCH   4  30
HETATM   30  O   UNL     1     -43.246  56.193 -52.089  1.00  0.00    -0.354 OA
HETATM   31  C   UNL     1     -44.107  56.690 -51.070  1.00  0.00     0.210 C 
ENDBRANCH   4  30
TORSDOF 6
ENDMDL
MODEL 9
REMARK VINA RESULT:      -7.3     15.873     18.357
REMARK  6 active torsions:
REMARK  status: ('A' for Active; 'I' for Inactive)
REMARK    1  A    between atoms: C_2  and  C_3 
REMARK    2  A    between atoms: C_7  and  C_8 
REMARK       I    between atoms: C_8  and  N_9 
REMARK    3  A    between atoms: N_9  and  C_10 
REMARK    4  A    between atoms: C_12  and  N_13 
REMARK       I    between atoms: N_13  and  C_14 
REMARK    5  A    between atoms: C_14  and  C_15 
REMARK    6  A    between atoms: C_23  and  O_24 
ROOT
HETATM    1  C   UNL     1     -36.728  39.356 -49.493  1.00  0.00     0.037 A 
HETATM    2  C   UNL     1     -36.804  39.858 -50.799  1.00  0.00     0.062 A 
HETATM    3  C   UNL     1     -35.667  39.920 -51.611  1.00  0.00     0.070 A 
HETATM    4  C   UNL     1     -34.422  39.502 -51.100  1.00  0.00     0.095 A 
HETATM    5  C   UNL     1     -34.341  39.029 -49.790  1.00  0.00     0.041 A 
HETATM    6  C   UNL     1     -35.491  38.951 -48.995  1.00  0.00     0.032 A 
ENDROOT
BRANCH   1   7
HETATM    7  N   UNL     1     -37.930  39.294 -48.758  1.00  0.00    -0.322 N 
HETATM    8  C   UNL     1     -38.711  38.182 -48.516  1.00  0.00     0.274 C 
HETATM    9  O   UNL     1     -38.505  37.059 -48.962  1.00  0.00    -0.266 OA
HETATM   10  H   UNL     1     -38.313  40.185 -48.470  1.00  0.00     0.169 HD
BRANCH   8  11
HETATM   11  C   UNL     1     -39.878  38.448 -47.710  1.00  0.00     0.120 A 
HETATM   12  N   UNL     1     -40.954  39.128 -48.213  1.00  0.00    -0.273 N 
HETATM   13  N   UNL     1     -41.954  39.302 -47.334  1.00  0.00    -0.179 NA
HETATM   14  H   UNL     1     -41.051  39.505 -49.151  1.00  0.00     0.189 HD
HETATM   15  C   UNL     1     -41.527  38.678 -46.230  1.00  0.00     0.056 A 
HETATM   16  C   UNL     1     -40.234  38.131 -46.413  1.00  0.00     0.065 A 
BRANCH  15  17
HETATM   17  C   UNL     1     -42.394  38.604 -45.019  1.00  0.00     0.056 C 
HETATM   18  C   UNL     1     -43.222  37.330 -44.967  1.00  0.00     0.011 C 
ENDBRANCH  15  17
ENDBRANCH   8  11
ENDBRANCH   1   7
BRANCH   3  19
HETATM   19  N   UNL     1     -35.697  40.335 -52.962  1.00  0.00    -0.320 N 
HETATM   20  C   UNL     1     -35.967  41.594 -53.459  1.00  0.00     0.256 C 
HETATM   21  O   UNL     1     -36.058  42.629 -52.810  1.00  0.00    -0.267 OA
HETATM   22  H   UNL     1     -35.483  39.586 -53.612  1.00  0.00     0.169 HD
BRANCH  20  23
HETATM   23  C   UNL     1     -36.146  41.666 -54.938  1.00  0.00     0.035 A 
HETATM   24  C   UNL     1     -37.330  41.249 -55.556  1.00  0.00     0.059 A 
HETATM   25  C   UNL     1     -37.462  41.379 -56.934  1.00  0.00     0.117 A 
HETATM   26  F   UNL     1     -38.598  40.983 -57.523  1.00  0.00    -0.206 F 
HETATM   27  C   UNL     1     -36.444  41.923 -57.709  1.00  0.00     0.042 A 
HETATM   28  C   UNL     1     -35.268  42.354 -57.096  1.00  0.00     0.004 A 
HETATM   29  C   UNL     1     -35.121  42.230 -55.713  1.00  0.00     0.017 A 
ENDBRANCH  20  23
ENDBRANCH   3  19
BRANCH   4  30
HETATM   30  O   UNL     1     -33.363  39.593 -51.975  1.00  0.00    -0.354 OA
HETATM   31  C   UNL     1     -32.240  38.758 -51.715  1.00  0.00     0.210 C 
ENDBRANCH   4  30
TORSDOF 6
ENDMDL
MODEL 10
REMARK VINA RESULT:      -7.2      5.127      9.551
REMARK  6 active torsions:
REMARK  status: ('A' for Active; 'I' for Inactive)
REMARK    1  A    between atoms: C_2  and  C_3 
REMARK    2  A    between atoms: C_7  and  C_8 
REMARK       I    between atoms: C_8  and  N_9 
REMARK    3  A    between atoms: N_9  and  C_10 
REMARK    4  A    between atoms: C_12  and  N_13 
REMARK       I    between atoms: N_13  and  C_14 
REMARK    5  A    between atoms: C_14  and  C_15 
REMARK    6  A    between atoms: C_23  and  O_24 
ROOT
HETATM    1  C   UNL     1     -41.707  58.148 -52.438  1.00  0.00     0.037 A 
HETATM    2  C   UNL     1     -42.158  58.695 -51.230  1.00  0.00     0.062 A 
HETATM    3  C   UNL     1     -42.628  60.011 -51.171  1.00  0.00     0.070 A 
HETATM    4  C   UNL     1     -42.618  60.809 -52.333  1.00  0.00     0.095 A 
HETATM    5  C   UNL     1     -42.142  60.272 -53.530  1.00  0.00     0.041 A 
HETATM    6  C   UNL     1     -41.696  58.946 -53.581  1.00  0.00     0.032 A 
ENDROOT
BRANCH   1   7
HETATM    7  N   UNL     1     -41.287  56.802 -52.415  1.00  0.00    -0.322 N 
HETATM    8  C   UNL     1     -42.010  55.688 -52.792  1.00  0.00     0.274 C 
HETATM    9  O   UNL     1     -43.180  55.693 -53.159  1.00  0.00    -0.266 OA
HETATM   10  H   UNL     1     -40.393  56.630 -51.972  1.00  0.00     0.169 HD
BRANCH   8  11
HETATM   11  C   UNL     1     -41.287  54.447 -52.666  1.00  0.00     0.120 A 
HETATM   12  N   UNL     1     -41.080  53.861 -51.446  1.00  0.00    -0.273 N 
HETATM   13  N   UNL     1     -40.381  52.716 -51.497  1.00  0.00    -0.179 NA
HETATM   14  H   UNL     1     -41.388  54.210 -50.543  1.00  0.00     0.189 HD
HETATM   15  C   UNL     1     -40.159  52.530 -52.803  1.00  0.00     0.056 A 
HETATM   16  C   UNL     1     -40.701  53.586 -53.575  1.00  0.00     0.065 A 
BRANCH  15  17
HETATM   17  C   UNL     1     -39.439  51.315 -53.285  1.00  0.00     0.056 C 
HETATM   18  C   UNL     1     -40.224  50.547 -54.335  1.00  0.00     0.011 C 
ENDBRANCH  15  17
ENDBRANCH   8  11
ENDBRANCH   1   7
BRANCH   3  19
HETATM   19  N   UNL     1     -43.175  60.591 -50.003  1.00  0.00    -0.320 N 
HETATM   20  C   UNL     1     -44.503  60.695 -49.647  1.00  0.00     0.256 C 
HETATM   21  O   UNL     1     -45.450  60.144 -50.196  1.00  0.00    -0.267 OA
HETATM   22  H   UNL     1     -42.468  60.959 -49.375  1.00  0.00     0.169 HD
BRANCH  20  23
HETATM   23  C   UNL     1     -44.776  61.561 -48.464  1.00  0.00     0.035 A 
HETATM   24  C   UNL     1     -44.824  61.039 -47.167  1.00  0.00     0.059 A 
HETATM   25  C   UNL     1     -45.038  61.897 -46.094  1.00  0.00     0.117 A 
HETATM   26  F   UNL     1     -45.079  61.395 -44.852  1.00  0.00    -0.206 F 
HETATM   27  C   UNL     1     -45.198  63.265 -46.284  1.00  0.00     0.042 A 
HETATM   28  C   UNL     1     -45.137  63.792 -47.573  1.00  0.00     0.004 A 
HETATM   29  C   UNL     1     -44.922  62.942 -48.660  1.00  0.00     0.017 A 
ENDBRANCH  20  23
ENDBRANCH   3  19
BRANCH   4  30
HETATM   30  O   UNL     1     -43.106  62.086 -52.178  1.00  0.00    -0.354 OA
HETATM   31  C   UNL     1     -44.237  62.443 -52.966  1.00  0.00     0.210 C 
ENDBRANCH   4  30
TORSDOF 6
ENDMDL
