MODEL 1
REMARK VINA RESULT:      -8.9      0.000      0.000
REMARK  5 active torsions:
REMARK  status: ('A' for Active; 'I' for Inactive)
REMARK    1  A    between atoms: C_5  and  C_6 
REMARK    2  A    between atoms: C_10  and  C_11 
REMARK       I    between atoms: C_11  and  N_12 
REMARK    3  A    between atoms: N_12  and  N_13 
REMARK       I    between atoms: N_13  and  C_14 
REMARK       I    between atoms: C_14  and  N_15 
REMARK    4  A    between atoms: N_15  and  C_16 
REMARK    5  A    between atoms: C_16  and  C_17 
ROOT
HETATM    1  C   UNL     1     -42.242  58.649 -51.339  1.00  0.00     0.288 C 
HETATM    2  N   UNL     1     -43.388  58.953 -50.638  1.00  0.00    -0.261 N 
HETATM    3  O   UNL     1     -41.561  59.507 -51.897  1.00  0.00    -0.264 OA
HETATM    4  H   UNL     1     -43.914  58.259 -50.110  1.00  0.00     0.190 HD
ENDROOT
BRANCH   2   5
HETATM    5  N   UNL     1     -43.692  60.288 -50.330  1.00  0.00    -0.249 N 
HETATM    6  C   UNL     1     -44.973  60.520 -49.878  1.00  0.00     0.334 C 
HETATM    7  N   UNL     1     -45.217  61.849 -49.638  1.00  0.00    -0.341 N 
HETATM    8  O   UNL     1     -45.779  59.615 -49.680  1.00  0.00    -0.246 OA
HETATM    9  H   UNL     1     -44.393  62.372 -49.377  1.00  0.00     0.164 HD
HETATM   10  H   UNL     1     -43.226  60.990 -50.899  1.00  0.00     0.192 HD
BRANCH   7  11
HETATM   11  C   UNL     1     -46.465  62.208 -48.992  1.00  0.00     0.129 C 
BRANCH  11  12
HETATM   12  C   UNL     1     -46.356  62.481 -47.485  1.00  0.00     0.004 C 
HETATM   13  C   UNL     1     -46.412  63.981 -47.155  1.00  0.00     0.010 C 
HETATM   14  C   UNL     1     -46.338  64.260 -45.643  1.00  0.00    -0.018 C 
HETATM   15  C   UNL     1     -45.128  63.554 -45.014  1.00  0.00     0.004 C 
HETATM   16  C   UNL     1     -47.643  63.887 -44.931  1.00  0.00     0.010 C 
HETATM   17  C   UNL     1     -45.054  62.068 -45.356  1.00  0.00     0.001 C 
HETATM   18  C   UNL     1     -45.111  61.832 -46.863  1.00  0.00     0.006 C 
ENDBRANCH  11  12
ENDBRANCH   7  11
ENDBRANCH   2   5
BRANCH   1  19
HETATM   19  C   UNL     1     -41.901  57.251 -51.354  1.00  0.00     0.121 A 
HETATM   20  N   UNL     1     -42.164  56.423 -50.299  1.00  0.00    -0.272 N 
HETATM   21  N   UNL     1     -41.824  55.141 -50.508  1.00  0.00    -0.174 NA
HETATM   22  H   UNL     1     -42.592  56.678 -49.415  1.00  0.00     0.189 HD
HETATM   23  C   UNL     1     -41.297  55.125 -51.742  1.00  0.00     0.089 A 
HETATM   24  C   UNL     1     -41.320  56.433 -52.301  1.00  0.00     0.071 A 
BRANCH  23  25
HETATM   25  C   UNL     1     -40.814  53.891 -52.372  1.00  0.00    -0.006 A 
HETATM   26  C   UNL     1     -40.092  52.947 -51.630  1.00  0.00     0.014 A 
HETATM   27  C   UNL     1     -39.667  51.749 -52.213  1.00  0.00     0.007 A 
HETATM   28  C   UNL     1     -39.943  51.477 -53.557  1.00  0.00    -0.062 A 
HETATM   29  C   UNL     1     -39.519  50.184 -54.188  1.00  0.00     0.048 C 
HETATM   30  C   UNL     1     -40.657  52.419 -54.305  1.00  0.00     0.007 A 
HETATM   31  C   UNL     1     -41.085  53.614 -53.719  1.00  0.00     0.014 A 
ENDBRANCH  23  25
ENDBRANCH   1  19
TORSDOF 5
ENDMDL
MODEL 2
REMARK VINA RESULT:      -8.6      1.429      1.964
REMARK  5 active torsions:
REMARK  status: ('A' for Active; 'I' for Inactive)
REMARK    1  A    between atoms: C_5  and  C_6 
REMARK    2  A    between atoms: C_10  and  C_11 
REMARK       I    between atoms: C_11  and  N_12 
REMARK    3  A    between atoms: N_12  and  N_13 
REMARK       I    between atoms: N_13  and  C_14 
REMARK       I    between atoms: C_14  and  N_15 
REMARK    4  A    between atoms: N_15  and  C_16 
REMARK    5  A    between atoms: C_16  and  C_17 
ROOT
HETATM    1  C   UNL     1     -44.076  57.164 -50.994  1.00  0.00     0.288 C 
HETATM    2  N   UNL     1     -43.790  58.509 -50.932  1.00  0.00    -0.261 N 
HETATM    3  O   UNL     1     -45.110  56.685 -50.533  1.00  0.00    -0.264 OA
HETATM    4  H   UNL     1     -42.974  58.922 -51.379  1.00  0.00     0.190 HD
ENDROOT
BRANCH   2   5
HETATM    5  N   UNL     1     -44.785  59.424 -50.552  1.00  0.00    -0.249 N 
HETATM    6  C   UNL     1     -44.333  60.654 -50.126  1.00  0.00     0.334 C 
HETATM    7  N   UNL     1     -45.352  61.483 -49.728  1.00  0.00    -0.341 N 
HETATM    8  O   UNL     1     -43.146  60.967 -50.145  1.00  0.00    -0.246 OA
HETATM    9  H   UNL     1     -46.227  61.304 -50.199  1.00  0.00     0.164 HD
HETATM   10  H   UNL     1     -45.618  59.022 -50.132  1.00  0.00     0.192 HD
BRANCH   7  11
HETATM   11  C   UNL     1     -45.031  62.864 -49.425  1.00  0.00     0.129 C 
BRANCH  11  12
HETATM   12  C   UNL     1     -45.582  63.376 -48.087  1.00  0.00     0.004 C 
HETATM   13  C   UNL     1     -45.114  62.525 -46.896  1.00  0.00     0.010 C 
HETATM   14  C   UNL     1     -45.635  63.052 -45.547  1.00  0.00    -0.018 C 
HETATM   15  C   UNL     1     -47.158  63.243 -45.584  1.00  0.00     0.004 C 
HETATM   16  C   UNL     1     -44.915  64.337 -45.123  1.00  0.00     0.010 C 
HETATM   17  C   UNL     1     -47.632  64.069 -46.777  1.00  0.00     0.001 C 
HETATM   18  C   UNL     1     -47.112  63.505 -48.097  1.00  0.00     0.006 C 
ENDBRANCH  11  12
ENDBRANCH   7  11
ENDBRANCH   2   5
BRANCH   1  19
HETATM   19  C   UNL     1     -43.074  56.367 -51.652  1.00  0.00     0.121 A 
HETATM   20  N   UNL     1     -41.976  56.920 -52.248  1.00  0.00    -0.272 N 
HETATM   21  N   UNL     1     -41.122  56.024 -52.767  1.00  0.00    -0.174 NA
HETATM   22  H   UNL     1     -41.750  57.908 -52.315  1.00  0.00     0.189 HD
HETATM   23  C   UNL     1     -41.688  54.832 -52.522  1.00  0.00     0.089 A 
HETATM   24  C   UNL     1     -42.919  55.007 -51.831  1.00  0.00     0.071 A 
BRANCH  23  25
HETATM   25  C   UNL     1     -41.054  53.568 -52.913  1.00  0.00    -0.006 A 
HETATM   26  C   UNL     1     -40.203  52.893 -52.027  1.00  0.00     0.014 A 
HETATM   27  C   UNL     1     -39.630  51.666 -52.377  1.00  0.00     0.007 A 
HETATM   28  C   UNL     1     -39.885  51.096 -53.628  1.00  0.00    -0.062 A 
HETATM   29  C   UNL     1     -39.300  49.767 -54.005  1.00  0.00     0.048 C 
HETATM   30  C   UNL     1     -40.726  51.768 -54.519  1.00  0.00     0.007 A 
HETATM   31  C   UNL     1     -41.302  52.993 -54.167  1.00  0.00     0.014 A 
ENDBRANCH  23  25
ENDBRANCH   1  19
TORSDOF 5
ENDMDL
MODEL 3
REMARK VINA RESULT:      -8.4      7.747      9.730
REMARK  5 active torsions:
REMARK  status: ('A' for Active; 'I' for Inactive)
REMARK    1  A    between atoms: C_5  and  C_6 
REMARK    2  A    between atoms: C_10  and  C_11 
REMARK       I    between atoms: C_11  and  N_12 
REMARK    3  A    between atoms: N_12  and  N_13 
REMARK       I    between atoms: N_13  and  C_14 
REMARK       I    between atoms: C_14  and  N_15 
REMARK    4  A    between atoms: N_15  and  C_16 
REMARK    5  A    between atoms: C_16  and  C_17 
ROOT
HETATM    1  C   UNL     1     -42.743  56.540 -57.241  1.00  0.00     0.288 C 
HETATM    2  N   UNL     1     -42.404  57.844 -56.953  1.00  0.00    -0.261 N 
HETATM    3  O   UNL     1     -43.149  56.191 -58.347  1.00  0.00    -0.264 OA
HETATM    4  H   UNL     1     -41.996  58.126 -56.065  1.00  0.00     0.190 HD
ENDROOT
BRANCH   2   5
HETATM    5  N   UNL     1     -42.279  58.784 -57.989  1.00  0.00    -0.249 N 
HETATM    6  C   UNL     1     -41.814  60.025 -57.615  1.00  0.00     0.334 C 
HETATM    7  N   UNL     1     -41.758  60.908 -58.665  1.00  0.00    -0.341 N 
HETATM    8  O   UNL     1     -41.456  60.281 -56.469  1.00  0.00    -0.246 OA
HETATM    9  H   UNL     1     -41.609  60.464 -59.560  1.00  0.00     0.164 HD
HETATM   10  H   UNL     1     -42.961  58.708 -58.739  1.00  0.00     0.192 HD
BRANCH   7  11
HETATM   11  C   UNL     1     -41.121  62.192 -58.446  1.00  0.00     0.129 C 
BRANCH  11  12
HETATM   12  C   UNL     1     -40.644  62.901 -59.720  1.00  0.00     0.004 C 
HETATM   13  C   UNL     1     -40.907  62.072 -60.987  1.00  0.00     0.010 C 
HETATM   14  C   UNL     1     -40.463  62.792 -62.272  1.00  0.00    -0.018 C 
HETATM   15  C   UNL     1     -39.006  63.264 -62.160  1.00  0.00     0.004 C 
HETATM   16  C   UNL     1     -41.404  63.946 -62.633  1.00  0.00     0.010 C 
HETATM   17  C   UNL     1     -38.731  64.071 -60.892  1.00  0.00     0.001 C 
HETATM   18  C   UNL     1     -39.168  63.317 -59.639  1.00  0.00     0.006 C 
ENDBRANCH  11  12
ENDBRANCH   7  11
ENDBRANCH   2   5
BRANCH   1  19
HETATM   19  C   UNL     1     -42.572  55.622 -56.146  1.00  0.00     0.121 A 
HETATM   20  N   UNL     1     -43.613  55.228 -55.353  1.00  0.00    -0.272 N 
HETATM   21  N   UNL     1     -43.280  54.328 -54.414  1.00  0.00    -0.174 NA
HETATM   22  H   UNL     1     -44.580  55.529 -55.421  1.00  0.00     0.189 HD
HETATM   23  C   UNL     1     -41.962  54.135 -54.579  1.00  0.00     0.089 A 
HETATM   24  C   UNL     1     -41.480  54.937 -55.652  1.00  0.00     0.071 A 
BRANCH  23  25
HETATM   25  C   UNL     1     -41.198  53.193 -53.755  1.00  0.00    -0.006 A 
HETATM   26  C   UNL     1     -41.010  53.433 -52.387  1.00  0.00     0.014 A 
HETATM   27  C   UNL     1     -40.319  52.517 -51.586  1.00  0.00     0.007 A 
HETATM   28  C   UNL     1     -39.791  51.348 -52.141  1.00  0.00    -0.062 A 
HETATM   29  C   UNL     1     -39.075  50.342 -51.289  1.00  0.00     0.048 C 
HETATM   30  C   UNL     1     -39.970  51.106 -53.506  1.00  0.00     0.007 A 
HETATM   31  C   UNL     1     -40.663  52.020 -54.305  1.00  0.00     0.014 A 
ENDBRANCH  23  25
ENDBRANCH   1  19
TORSDOF 5
ENDMDL
MODEL 4
REMARK VINA RESULT:      -8.3      1.669      2.309
REMARK  5 active torsions:
REMARK  status: ('A' for Active; 'I' for Inactive)
REMARK    1  A    between atoms: C_5  and  C_6 
REMARK    2  A    between atoms: C_10  and  C_11 
REMARK       I    between atoms: C_11  and  N_12 
REMARK    3  A    between atoms: N_12  and  N_13 
REMARK       I    between atoms: N_13  and  C_14 
REMARK       I    between atoms: C_14  and  N_15 
REMARK    4  A    between atoms: N_15  and  C_16 
REMARK    5  A    between atoms: C_16  and  C_17 
ROOT
HETATM    1  C   UNL     1     -41.485  58.507 -52.507  1.00  0.00     0.288 C 
HETATM    2  N   UNL     1     -42.056  58.575 -51.256  1.00  0.00    -0.261 N 
HETATM    3  O   UNL     1     -41.164  59.509 -53.143  1.00  0.00    -0.264 OA
HETATM    4  H   UNL     1     -42.254  57.750 -50.693  1.00  0.00     0.190 HD
ENDROOT
BRANCH   2   5
HETATM    5  N   UNL     1     -42.071  59.790 -50.553  1.00  0.00    -0.249 N 
HETATM    6  C   UNL     1     -43.281  60.447 -50.523  1.00  0.00     0.334 C 
HETATM    7  N   UNL     1     -43.216  61.647 -49.860  1.00  0.00    -0.341 N 
HETATM    8  O   UNL     1     -44.305  59.973 -51.008  1.00  0.00    -0.246 OA
HETATM    9  H   UNL     1     -42.509  61.673 -49.138  1.00  0.00     0.164 HD
HETATM   10  H   UNL     1     -41.209  60.327 -50.582  1.00  0.00     0.192 HD
BRANCH   7  11
HETATM   11  C   UNL     1     -44.455  62.354 -49.602  1.00  0.00     0.129 C 
BRANCH  11  12
HETATM   12  C   UNL     1     -44.844  62.455 -48.120  1.00  0.00     0.004 C 
HETATM   13  C   UNL     1     -45.605  61.214 -47.628  1.00  0.00     0.010 C 
HETATM   14  C   UNL     1     -45.969  61.292 -46.135  1.00  0.00    -0.018 C 
HETATM   15  C   UNL     1     -46.699  62.605 -45.817  1.00  0.00     0.004 C 
HETATM   16  C   UNL     1     -44.741  61.098 -45.239  1.00  0.00     0.010 C 
HETATM   17  C   UNL     1     -45.960  63.842 -46.322  1.00  0.00     0.001 C 
HETATM   18  C   UNL     1     -45.633  63.735 -47.810  1.00  0.00     0.006 C 
ENDBRANCH  11  12
ENDBRANCH   7  11
ENDBRANCH   2   5
BRANCH   1  19
HETATM   19  C   UNL     1     -41.286  57.171 -53.004  1.00  0.00     0.121 A 
HETATM   20  N   UNL     1     -41.298  56.877 -54.338  1.00  0.00    -0.272 N 
HETATM   21  N   UNL     1     -41.045  55.590 -54.621  1.00  0.00    -0.174 NA
HETATM   22  H   UNL     1     -41.457  57.524 -55.104  1.00  0.00     0.189 HD
HETATM   23  C   UNL     1     -40.879  55.004 -53.424  1.00  0.00     0.089 A 
HETATM   24  C   UNL     1     -41.032  55.964 -52.384  1.00  0.00     0.071 A 
BRANCH  23  25
HETATM   25  C   UNL     1     -40.557  53.580 -53.286  1.00  0.00    -0.006 A 
HETATM   26  C   UNL     1     -40.593  52.730 -54.400  1.00  0.00     0.014 A 
HETATM   27  C   UNL     1     -40.245  51.380 -54.284  1.00  0.00     0.007 A 
HETATM   28  C   UNL     1     -39.868  50.849 -53.046  1.00  0.00    -0.062 A 
HETATM   29  C   UNL     1     -39.464  49.411 -52.912  1.00  0.00     0.048 C 
HETATM   30  C   UNL     1     -39.838  51.690 -51.930  1.00  0.00     0.007 A 
HETATM   31  C   UNL     1     -40.181  53.041 -52.048  1.00  0.00     0.014 A 
ENDBRANCH  23  25
ENDBRANCH   1  19
TORSDOF 5
ENDMDL
MODEL 5
REMARK VINA RESULT:      -8.2      7.713     10.263
REMARK  5 active torsions:
REMARK  status: ('A' for Active; 'I' for Inactive)
REMARK    1  A    between atoms: C_5  and  C_6 
REMARK    2  A    between atoms: C_10  and  C_11 
REMARK       I    between atoms: C_11  and  N_12 
REMARK    3  A    between atoms: N_12  and  N_13 
REMARK       I    between atoms: N_13  and  C_14 
REMARK       I    between atoms: C_14  and  N_15 
REMARK    4  A    between atoms: N_15  and  C_16 
REMARK    5  A    between atoms: C_16  and  C_17 
ROOT
HETATM    1  C   UNL     1     -43.302  56.239 -55.866  1.00  0.00     0.288 C 
HETATM    2  N   UNL     1     -43.478  56.182 -57.230  1.00  0.00    -0.261 N 
HETATM    3  O   UNL     1     -43.961  56.984 -55.144  1.00  0.00    -0.264 OA
HETATM    4  H   UNL     1     -42.991  55.514 -57.823  1.00  0.00     0.190 HD
ENDROOT
BRANCH   2   5
HETATM    5  N   UNL     1     -44.590  56.800 -57.823  1.00  0.00    -0.249 N 
HETATM    6  C   UNL     1     -45.014  56.252 -59.014  1.00  0.00     0.334 C 
HETATM    7  N   UNL     1     -46.075  56.929 -59.561  1.00  0.00    -0.341 N 
HETATM    8  O   UNL     1     -44.507  55.243 -59.496  1.00  0.00    -0.246 OA
HETATM    9  H   UNL     1     -46.662  57.384 -58.876  1.00  0.00     0.164 HD
HETATM   10  H   UNL     1     -44.670  57.802 -57.675  1.00  0.00     0.192 HD
BRANCH   7  11
HETATM   11  C   UNL     1     -46.729  56.354 -60.720  1.00  0.00     0.129 C 
BRANCH  11  12
HETATM   12  C   UNL     1     -47.465  57.362 -61.612  1.00  0.00     0.004 C 
HETATM   13  C   UNL     1     -47.692  58.711 -60.910  1.00  0.00     0.010 C 
HETATM   14  C   UNL     1     -48.400  59.739 -61.810  1.00  0.00    -0.018 C 
HETATM   15  C   UNL     1     -49.688  59.151 -62.406  1.00  0.00     0.004 C 
HETATM   16  C   UNL     1     -47.468  60.277 -62.901  1.00  0.00     0.010 C 
HETATM   17  C   UNL     1     -49.474  57.801 -63.087  1.00  0.00     0.001 C 
HETATM   18  C   UNL     1     -48.787  56.803 -62.157  1.00  0.00     0.006 C 
ENDBRANCH  11  12
ENDBRANCH   7  11
ENDBRANCH   2   5
BRANCH   1  19
HETATM   19  C   UNL     1     -42.293  55.349 -55.354  1.00  0.00     0.121 A 
HETATM   20  N   UNL     1     -40.976  55.462 -55.699  1.00  0.00    -0.272 N 
HETATM   21  N   UNL     1     -40.169  54.580 -55.087  1.00  0.00    -0.174 NA
HETATM   22  H   UNL     1     -40.567  56.138 -56.336  1.00  0.00     0.189 HD
HETATM   23  C   UNL     1     -40.989  53.841 -54.323  1.00  0.00     0.089 A 
HETATM   24  C   UNL     1     -42.332  54.289 -54.471  1.00  0.00     0.071 A 
BRANCH  23  25
HETATM   25  C   UNL     1     -40.496  52.763 -53.460  1.00  0.00    -0.006 A 
HETATM   26  C   UNL     1     -40.361  52.960 -52.079  1.00  0.00     0.014 A 
HETATM   27  C   UNL     1     -39.932  51.922 -51.244  1.00  0.00     0.007 A 
HETATM   28  C   UNL     1     -39.617  50.669 -51.777  1.00  0.00    -0.062 A 
HETATM   29  C   UNL     1     -39.185  49.538 -50.891  1.00  0.00     0.048 C 
HETATM   30  C   UNL     1     -39.743  50.467 -53.155  1.00  0.00     0.007 A 
HETATM   31  C   UNL     1     -40.175  51.504 -53.988  1.00  0.00     0.014 A 
ENDBRANCH  23  25
ENDBRANCH   1  19
TORSDOF 5
ENDMDL
MODEL 6
REMARK VINA RESULT:      -8.2      1.537      2.041
REMARK  5 active torsions:
REMARK  status: ('A' for Active; 'I' for Inactive)
REMARK    1  A    between atoms: C_5  and  C_6 
REMARK    2  A    between atoms: C_10  and  C_11 
REMARK       I    between atoms: C_11  and  N_12 
REMARK    3  A    between atoms: N_12  and  N_13 
REMARK       I    between atoms: N_13  and  C_14 
REMARK       I    between atoms: C_14  and  N_15 
REMARK    4  A    between atoms: N_15  and  C_16 
REMARK    5  A    between atoms: C_16  and  C_17 
ROOT
HETATM    1  C   UNL     1     -42.882  59.815 -51.880  1.00  0.00     0.288 C 
HETATM    2  N   UNL     1     -43.471  59.591 -50.656  1.00  0.00    -0.261 N 
HETATM    3  O   UNL     1     -42.656  60.945 -52.308  1.00  0.00    -0.264 OA
HETATM    4  H   UNL     1     -43.591  58.660 -50.262  1.00  0.00     0.190 HD
ENDROOT
BRANCH   2   5
HETATM    5  N   UNL     1     -43.618  60.645 -49.741  1.00  0.00    -0.249 N 
HETATM    6  C   UNL     1     -44.863  60.767 -49.164  1.00  0.00     0.334 C 
HETATM    7  N   UNL     1     -44.951  61.842 -48.315  1.00  0.00    -0.341 N 
HETATM    8  O   UNL     1     -45.770  59.966 -49.372  1.00  0.00    -0.246 OA
HETATM    9  H   UNL     1     -44.072  62.091 -47.884  1.00  0.00     0.164 HD
HETATM   10  H   UNL     1     -43.072  61.480 -49.937  1.00  0.00     0.192 HD
BRANCH   7  11
HETATM   11  C   UNL     1     -46.149  61.981 -47.510  1.00  0.00     0.129 C 
BRANCH  11  12
HETATM   12  C   UNL     1     -45.917  62.542 -46.100  1.00  0.00     0.004 C 
HETATM   13  C   UNL     1     -45.696  64.063 -46.104  1.00  0.00     0.010 C 
HETATM   14  C   UNL     1     -45.497  64.638 -44.690  1.00  0.00    -0.018 C 
HETATM   15  C   UNL     1     -44.396  63.876 -43.938  1.00  0.00     0.004 C 
HETATM   16  C   UNL     1     -46.808  64.665 -43.897  1.00  0.00     0.010 C 
HETATM   17  C   UNL     1     -44.598  62.362 -43.949  1.00  0.00     0.001 C 
HETATM   18  C   UNL     1     -44.772  61.827 -45.369  1.00  0.00     0.006 C 
ENDBRANCH  11  12
ENDBRANCH   7  11
ENDBRANCH   2   5
BRANCH   1  19
HETATM   19  C   UNL     1     -42.542  58.622 -52.609  1.00  0.00     0.121 A 
HETATM   20  N   UNL     1     -42.622  58.551 -53.971  1.00  0.00    -0.272 N 
HETATM   21  N   UNL     1     -42.218  57.378 -54.486  1.00  0.00    -0.174 NA
HETATM   22  H   UNL     1     -42.929  59.282 -54.604  1.00  0.00     0.189 HD
HETATM   23  C   UNL     1     -41.878  56.637 -53.419  1.00  0.00     0.089 A 
HETATM   24  C   UNL     1     -42.076  57.382 -52.223  1.00  0.00     0.071 A 
BRANCH  23  25
HETATM   25  C   UNL     1     -41.354  55.273 -53.547  1.00  0.00    -0.006 A 
HETATM   26  C   UNL     1     -40.814  54.828 -54.761  1.00  0.00     0.014 A 
HETATM   27  C   UNL     1     -40.273  53.543 -54.878  1.00  0.00     0.007 A 
HETATM   28  C   UNL     1     -40.274  52.672 -53.785  1.00  0.00    -0.062 A 
HETATM   29  C   UNL     1     -39.672  51.302 -53.887  1.00  0.00     0.048 C 
HETATM   30  C   UNL     1     -40.818  53.107 -52.572  1.00  0.00     0.007 A 
HETATM   31  C   UNL     1     -41.355  54.394 -52.456  1.00  0.00     0.014 A 
ENDBRANCH  23  25
ENDBRANCH   1  19
TORSDOF 5
ENDMDL
MODEL 7
REMARK VINA RESULT:      -8.2     19.131     21.146
REMARK  5 active torsions:
REMARK  status: ('A' for Active; 'I' for Inactive)
REMARK    1  A    between atoms: C_5  and  C_6 
REMARK    2  A    between atoms: C_10  and  C_11 
REMARK       I    between atoms: C_11  and  N_12 
REMARK    3  A    between atoms: N_12  and  N_13 
REMARK       I    between atoms: N_13  and  C_14 
REMARK       I    between atoms: C_14  and  N_15 
REMARK    4  A    between atoms: N_15  and  C_16 
REMARK    5  A    between atoms: C_16  and  C_17 
ROOT
HETATM    1  C   UNL     1     -36.302  42.059 -56.018  1.00  0.00     0.288 C 
HETATM    2  N   UNL     1     -37.210  41.831 -55.007  1.00  0.00    -0.261 N 
HETATM    3  O   UNL     1     -35.217  42.601 -55.822  1.00  0.00    -0.264 OA
HETATM    4  H   UNL     1     -38.075  41.314 -55.148  1.00  0.00     0.190 HD
ENDROOT
BRANCH   2   5
HETATM    5  N   UNL     1     -36.826  41.992 -53.667  1.00  0.00    -0.249 N 
HETATM    6  C   UNL     1     -36.826  40.845 -52.904  1.00  0.00     0.334 C 
HETATM    7  N   UNL     1     -36.484  41.080 -51.595  1.00  0.00    -0.341 N 
HETATM    8  O   UNL     1     -37.069  39.737 -53.373  1.00  0.00    -0.246 OA
HETATM    9  H   UNL     1     -35.871  41.873 -51.473  1.00  0.00     0.164 HD
HETATM   10  H   UNL     1     -37.076  42.879 -53.239  1.00  0.00     0.192 HD
BRANCH   7  11
HETATM   11  C   UNL     1     -36.274  39.937 -50.728  1.00  0.00     0.129 C 
BRANCH  11  12
HETATM   12  C   UNL     1     -34.808  39.512 -50.565  1.00  0.00     0.004 C 
HETATM   13  C   UNL     1     -33.840  40.704 -50.638  1.00  0.00     0.010 C 
HETATM   14  C   UNL     1     -32.371  40.290 -50.440  1.00  0.00    -0.018 C 
HETATM   15  C   UNL     1     -31.989  39.151 -51.397  1.00  0.00     0.004 C 
HETATM   16  C   UNL     1     -32.073  39.927 -48.982  1.00  0.00     0.010 C 
HETATM   17  C   UNL     1     -32.958  37.972 -51.346  1.00  0.00     0.001 C 
HETATM   18  C   UNL     1     -34.402  38.420 -51.564  1.00  0.00     0.006 C 
ENDBRANCH  11  12
ENDBRANCH   7  11
ENDBRANCH   2   5
BRANCH   1  19
HETATM   19  C   UNL     1     -36.723  41.601 -57.316  1.00  0.00     0.121 A 
HETATM   20  N   UNL     1     -36.506  42.327 -58.453  1.00  0.00    -0.272 N 
HETATM   21  N   UNL     1     -36.920  41.723 -59.578  1.00  0.00    -0.174 NA
HETATM   22  H   UNL     1     -36.062  43.237 -58.521  1.00  0.00     0.189 HD
HETATM   23  C   UNL     1     -37.450  40.560 -59.167  1.00  0.00     0.089 A 
HETATM   24  C   UNL     1     -37.352  40.452 -57.752  1.00  0.00     0.071 A 
BRANCH  23  25
HETATM   25  C   UNL     1     -38.003  39.577 -60.103  1.00  0.00    -0.006 A 
HETATM   26  C   UNL     1     -39.034  38.714 -59.704  1.00  0.00     0.014 A 
HETATM   27  C   UNL     1     -39.595  37.803 -60.605  1.00  0.00     0.007 A 
HETATM   28  C   UNL     1     -39.128  37.727 -61.920  1.00  0.00    -0.062 A 
HETATM   29  C   UNL     1     -39.741  36.776 -62.905  1.00  0.00     0.048 C 
HETATM   30  C   UNL     1     -38.096  38.580 -62.323  1.00  0.00     0.007 A 
HETATM   31  C   UNL     1     -37.538  39.493 -61.423  1.00  0.00     0.014 A 
ENDBRANCH  23  25
ENDBRANCH   1  19
TORSDOF 5
ENDMDL
MODEL 8
REMARK VINA RESULT:      -8.2     19.000     21.618
REMARK  5 active torsions:
REMARK  status: ('A' for Active; 'I' for Inactive)
REMARK    1  A    between atoms: C_5  and  C_6 
REMARK    2  A    between atoms: C_10  and  C_11 
REMARK       I    between atoms: C_11  and  N_12 
REMARK    3  A    between atoms: N_12  and  N_13 
REMARK       I    between atoms: N_13  and  C_14 
REMARK       I    between atoms: C_14  and  N_15 
REMARK    4  A    between atoms: N_15  and  C_16 
REMARK    5  A    between atoms: C_16  and  C_17 
ROOT
HETATM    1  C   UNL     1     -36.878  41.447 -53.638  1.00  0.00     0.288 C 
HETATM    2  N   UNL     1     -36.527  42.290 -54.669  1.00  0.00    -0.261 N 
HETATM    3  O   UNL     1     -37.963  40.872 -53.593  1.00  0.00    -0.264 OA
HETATM    4  H   UNL     1     -35.603  42.708 -54.751  1.00  0.00     0.190 HD
ENDROOT
BRANCH   2   5
HETATM    5  N   UNL     1     -37.305  42.336 -55.836  1.00  0.00    -0.249 N 
HETATM    6  C   UNL     1     -36.648  42.017 -57.004  1.00  0.00     0.334 C 
HETATM    7  N   UNL     1     -37.453  42.123 -58.111  1.00  0.00    -0.341 N 
HETATM    8  O   UNL     1     -35.479  41.641 -57.026  1.00  0.00    -0.246 OA
HETATM    9  H   UNL     1     -38.431  41.960 -57.917  1.00  0.00     0.164 HD
HETATM   10  H   UNL     1     -38.041  43.036 -55.850  1.00  0.00     0.192 HD
BRANCH   7  11
HETATM   11  C   UNL     1     -36.938  41.647 -59.380  1.00  0.00     0.129 C 
BRANCH  11  12
HETATM   12  C   UNL     1     -37.289  40.190 -59.712  1.00  0.00     0.004 C 
HETATM   13  C   UNL     1     -38.550  39.708 -58.978  1.00  0.00     0.010 C 
HETATM   14  C   UNL     1     -38.928  38.259 -59.334  1.00  0.00    -0.018 C 
HETATM   15  C   UNL     1     -37.730  37.318 -59.143  1.00  0.00     0.004 C 
HETATM   16  C   UNL     1     -39.510  38.153 -60.747  1.00  0.00     0.010 C 
HETATM   17  C   UNL     1     -36.466  37.802 -59.851  1.00  0.00     0.001 C 
HETATM   18  C   UNL     1     -36.114  39.235 -59.460  1.00  0.00     0.006 C 
ENDBRANCH  11  12
ENDBRANCH   7  11
ENDBRANCH   2   5
BRANCH   1  19
HETATM   19  C   UNL     1     -35.867  41.286 -52.625  1.00  0.00     0.121 A 
HETATM   20  N   UNL     1     -35.078  42.321 -52.209  1.00  0.00    -0.272 N 
HETATM   21  N   UNL     1     -34.226  42.002 -51.222  1.00  0.00    -0.174 NA
HETATM   22  H   UNL     1     -35.091  43.276 -52.554  1.00  0.00     0.189 HD
HETATM   23  C   UNL     1     -34.447  40.698 -50.991  1.00  0.00     0.089 A 
HETATM   24  C   UNL     1     -35.464  40.212 -51.859  1.00  0.00     0.071 A 
BRANCH  23  25
HETATM   25  C   UNL     1     -33.725  39.953 -49.953  1.00  0.00    -0.006 A 
HETATM   26  C   UNL     1     -32.413  40.303 -49.606  1.00  0.00     0.014 A 
HETATM   27  C   UNL     1     -31.735  39.624 -48.588  1.00  0.00     0.007 A 
HETATM   28  C   UNL     1     -32.352  38.572 -47.905  1.00  0.00    -0.062 A 
HETATM   29  C   UNL     1     -31.648  37.855 -46.791  1.00  0.00     0.048 C 
HETATM   30  C   UNL     1     -33.658  38.213 -48.251  1.00  0.00     0.007 A 
HETATM   31  C   UNL     1     -34.337  38.895 -49.266  1.00  0.00     0.014 A 
ENDBRANCH  23  25
ENDBRANCH   1  19
TORSDOF 5
ENDMDL
MODEL 9
REMARK VINA RESULT:      -8.1      7.908     11.103
REMARK  5 active torsions:
REMARK  status: ('A' for Active; 'I' for Inactive)
REMARK    1  A    between atoms: C_5  and  C_6 
REMARK    2  A    between atoms: C_10  and  C_11 
REMARK       I    between atoms: C_11  and  N_12 
REMARK    3  A    between atoms: N_12  and  N_13 
REMARK       I    between atoms: N_13  and  C_14 
REMARK       I    between atoms: C_14  and  N_15 
REMARK    4  A    between atoms: N_15  and  C_16 
REMARK    5  A    between atoms: C_16  and  C_17 
ROOT
HETATM    1  C   UNL     1     -43.235  56.882 -58.158  1.00  0.00     0.288 C 
HETATM    2  N   UNL     1     -43.243  56.034 -57.073  1.00  0.00    -0.261 N 
HETATM    3  O   UNL     1     -42.303  57.649 -58.392  1.00  0.00    -0.264 OA
HETATM    4  H   UNL     1     -43.974  55.344 -56.916  1.00  0.00     0.190 HD
ENDROOT
BRANCH   2   5
HETATM    5  N   UNL     1     -42.073  55.840 -56.322  1.00  0.00    -0.249 N 
HETATM    6  C   UNL     1     -42.044  54.703 -55.545  1.00  0.00     0.334 C 
HETATM    7  N   UNL     1     -40.893  54.597 -54.805  1.00  0.00    -0.341 N 
HETATM    8  O   UNL     1     -42.944  53.868 -55.560  1.00  0.00    -0.246 OA
HETATM    9  H   UNL     1     -40.094  55.044 -55.231  1.00  0.00     0.164 HD
HETATM   10  H   UNL     1     -41.615  56.685 -55.992  1.00  0.00     0.192 HD
BRANCH   7  11
HETATM   11  C   UNL     1     -40.657  53.363 -54.081  1.00  0.00     0.129 C 
BRANCH  11  12
HETATM   12  C   UNL     1     -40.952  53.430 -52.577  1.00  0.00     0.004 C 
HETATM   13  C   UNL     1     -40.990  54.874 -52.050  1.00  0.00     0.010 C 
HETATM   14  C   UNL     1     -41.320  54.951 -50.549  1.00  0.00    -0.018 C 
HETATM   15  C   UNL     1     -40.385  54.043 -49.736  1.00  0.00     0.004 C 
HETATM   16  C   UNL     1     -42.794  54.636 -50.273  1.00  0.00     0.010 C 
HETATM   17  C   UNL     1     -40.325  52.613 -50.266  1.00  0.00     0.001 C 
HETATM   18  C   UNL     1     -39.978  52.576 -51.752  1.00  0.00     0.006 C 
ENDBRANCH  11  12
ENDBRANCH   7  11
ENDBRANCH   2   5
BRANCH   1  19
HETATM   19  C   UNL     1     -44.398  56.788 -59.001  1.00  0.00     0.121 A 
HETATM   20  N   UNL     1     -44.957  55.590 -59.345  1.00  0.00    -0.272 N 
HETATM   21  N   UNL     1     -46.066  55.695 -60.094  1.00  0.00    -0.174 NA
HETATM   22  H   UNL     1     -44.632  54.666 -59.078  1.00  0.00     0.189 HD
HETATM   23  C   UNL     1     -46.234  57.015 -60.271  1.00  0.00     0.089 A 
HETATM   24  C   UNL     1     -45.201  57.733 -59.607  1.00  0.00     0.071 A 
BRANCH  23  25
HETATM   25  C   UNL     1     -47.363  57.567 -61.027  1.00  0.00    -0.006 A 
HETATM   26  C   UNL     1     -48.109  56.753 -61.891  1.00  0.00     0.014 A 
HETATM   27  C   UNL     1     -49.213  57.262 -62.582  1.00  0.00     0.007 A 
HETATM   28  C   UNL     1     -49.586  58.601 -62.433  1.00  0.00    -0.062 A 
HETATM   29  C   UNL     1     -50.786  59.154 -63.145  1.00  0.00     0.048 C 
HETATM   30  C   UNL     1     -48.842  59.421 -61.579  1.00  0.00     0.007 A 
HETATM   31  C   UNL     1     -47.740  58.909 -60.885  1.00  0.00     0.014 A 
ENDBRANCH  23  25
ENDBRANCH   1  19
TORSDOF 5
ENDMDL
MODEL 10
REMARK VINA RESULT:      -8.1     19.251     21.731
REMARK  5 active torsions:
REMARK  status: ('A' for Active; 'I' for Inactive)
REMARK    1  A    between atoms: C_5  and  C_6 
REMARK    2  A    between atoms: C_10  and  C_11 
REMARK       I    between atoms: C_11  and  N_12 
REMARK    3  A    between atoms: N_12  and  N_13 
REMARK       I    between atoms: N_13  and  C_14 
REMARK       I    between atoms: C_14  and  N_15 
REMARK    4  A    between atoms: N_15  and  C_16 
REMARK    5  A    between atoms: C_16  and  C_17 
ROOT
HETATM    1  C   UNL     1     -33.987  40.749 -52.643  1.00  0.00     0.288 C 
HETATM    2  N   UNL     1     -35.223  41.252 -52.303  1.00  0.00    -0.261 N 
HETATM    3  O   UNL     1     -33.596  40.684 -53.807  1.00  0.00    -0.264 OA
HETATM    4  H   UNL     1     -35.522  41.380 -51.339  1.00  0.00     0.190 HD
ENDROOT
BRANCH   2   5
HETATM    5  N   UNL     1     -35.992  41.936 -53.258  1.00  0.00    -0.249 N 
HETATM    6  C   UNL     1     -36.863  41.160 -53.990  1.00  0.00     0.334 C 
HETATM    7  N   UNL     1     -37.551  41.881 -54.934  1.00  0.00    -0.341 N 
HETATM    8  O   UNL     1     -37.021  39.961 -53.777  1.00  0.00    -0.246 OA
HETATM    9  H   UNL     1     -37.688  42.850 -54.682  1.00  0.00     0.164 HD
HETATM   10  H   UNL     1     -35.543  42.736 -53.696  1.00  0.00     0.192 HD
BRANCH   7  11
HETATM   11  C   UNL     1     -38.625  41.222 -55.650  1.00  0.00     0.129 C 
BRANCH  11  12
HETATM   12  C   UNL     1     -38.301  40.854 -57.104  1.00  0.00     0.004 C 
HETATM   13  C   UNL     1     -37.816  39.402 -57.247  1.00  0.00     0.010 C 
HETATM   14  C   UNL     1     -37.522  39.015 -58.707  1.00  0.00    -0.018 C 
HETATM   15  C   UNL     1     -36.573  40.028 -59.363  1.00  0.00     0.004 C 
HETATM   16  C   UNL     1     -38.809  38.838 -59.520  1.00  0.00     0.010 C 
HETATM   17  C   UNL     1     -37.037  41.475 -59.206  1.00  0.00     0.001 C 
HETATM   18  C   UNL     1     -37.301  41.827 -57.744  1.00  0.00     0.006 C 
ENDBRANCH  11  12
ENDBRANCH   7  11
ENDBRANCH   2   5
BRANCH   1  19
HETATM   19  C   UNL     1     -33.187  40.318 -51.527  1.00  0.00     0.121 A 
HETATM   20  N   UNL     1     -31.822  40.287 -51.574  1.00  0.00    -0.272 N 
HETATM   21  N   UNL     1     -31.240  39.907 -50.426  1.00  0.00    -0.174 NA
HETATM   22  H   UNL     1     -31.233  40.533 -52.363  1.00  0.00     0.189 HD
HETATM   23  C   UNL     1     -32.262  39.656 -49.592  1.00  0.00     0.089 A 
HETATM   24  C   UNL     1     -33.501  39.895 -50.251  1.00  0.00     0.071 A 
BRANCH  23  25
HETATM   25  C   UNL     1     -32.056  39.231 -48.204  1.00  0.00    -0.006 A 
HETATM   26  C   UNL     1     -31.016  39.776 -47.438  1.00  0.00     0.014 A 
HETATM   27  C   UNL     1     -30.840  39.407 -46.101  1.00  0.00     0.007 A 
HETATM   28  C   UNL     1     -31.693  38.472 -45.505  1.00  0.00    -0.062 A 
HETATM   29  C   UNL     1     -31.534  38.089 -44.064  1.00  0.00     0.048 C 
HETATM   30  C   UNL     1     -32.727  37.919 -46.266  1.00  0.00     0.007 A 
HETATM   31  C   UNL     1     -32.905  38.292 -47.602  1.00  0.00     0.014 A 
ENDBRANCH  23  25
ENDBRANCH   1  19
TORSDOF 5
ENDMDL
