MODEL 1
REMARK VINA RESULT:      -8.1      0.000      0.000
REMARK  6 active torsions:
REMARK  status: ('A' for Active; 'I' for Inactive)
REMARK    1  A    between atoms: C_2  and  O_3 
REMARK    2  A    between atoms: O_3  and  C_4 
REMARK    3  A    between atoms: C_4  and  C_5 
REMARK    4  A    between atoms: C_6  and  O_7 
REMARK    5  A    between atoms: C_12  and  O_13 
REMARK    6  A    between atoms: C_17  and  C_18 
ROOT
HETATM    1  C   UNL     1     -41.803  54.856 -51.111  1.00  0.00     0.133 C 
HETATM    2  C   UNL     1     -43.326  54.983 -51.446  1.00  0.00     0.073 C 
HETATM    3  C   UNL     1     -44.179  55.333 -50.216  1.00  0.00     0.047 C 
HETATM    4  C   UNL     1     -43.648  55.969 -52.606  1.00  0.00     0.097 C 
HETATM    5  C   UNL     1     -42.632  55.839 -53.680  1.00  0.00     0.042 A 
HETATM    6  C   UNL     1     -41.382  55.265 -53.582  1.00  0.00     0.030 A 
HETATM    7  C   UNL     1     -40.857  55.419 -54.876  1.00  0.00     0.190 A 
HETATM    8  N   UNL     1     -41.679  56.037 -55.715  1.00  0.00    -0.149 NA
HETATM    9  N   UNL     1     -42.771  56.269 -54.967  1.00  0.00    -0.279 N 
HETATM   10  H   UNL     1     -43.565  56.726 -55.404  1.00  0.00     0.189 HD
HETATM   11  C   UNL     1     -40.837  54.693 -52.320  1.00  0.00     0.074 C 
ENDROOT
BRANCH  11  12
HETATM   12  C   UNL     1     -40.456  53.241 -52.585  1.00  0.00    -0.048 A 
HETATM   13  C   UNL     1     -39.808  52.520 -51.562  1.00  0.00     0.011 A 
HETATM   14  C   UNL     1     -39.462  51.179 -51.738  1.00  0.00     0.043 A 
HETATM   15  C   UNL     1     -39.771  50.544 -52.933  1.00  0.00     0.116 A 
HETATM   16  F   UNL     1     -39.443  49.257 -53.098  1.00  0.00    -0.206 F 
HETATM   17  C   UNL     1     -40.419  51.225 -53.954  1.00  0.00     0.043 A 
HETATM   18  C   UNL     1     -40.763  52.567 -53.781  1.00  0.00     0.011 A 
ENDBRANCH  11  12
BRANCH   1  19
HETATM   19  C   UNL     1     -41.247  55.982 -50.264  1.00  0.00     0.267 C 
HETATM   20  O   UNL     1     -41.156  55.903 -49.045  1.00  0.00    -0.265 OA
BRANCH  19  21
HETATM   21  O   UNL     1     -40.805  57.029 -51.003  1.00  0.00    -0.316 OA
BRANCH  21  22
HETATM   22  C   UNL     1     -41.061  58.345 -50.472  1.00  0.00     0.123 C 
HETATM   23  C   UNL     1     -42.244  58.979 -51.195  1.00  0.00     0.040 C 
HETATM   24  C   UNL     1     -39.797  59.167 -50.694  1.00  0.00     0.040 C 
ENDBRANCH  21  22
ENDBRANCH  19  21
ENDBRANCH   1  19
BRANCH   2  25
HETATM   25  O   UNL     1     -43.805  53.684 -51.867  1.00  0.00    -0.389 OA
HETATM   26  H   UNL     1     -43.039  53.098 -52.007  1.00  0.00     0.210 HD
ENDBRANCH   2  25
BRANCH   7  27
HETATM   27  O   UNL     1     -39.683  55.026 -55.371  1.00  0.00    -0.343 OA
HETATM   28  H   UNL     1     -38.980  55.236 -54.738  1.00  0.00     0.219 HD
ENDBRANCH   7  27
TORSDOF 6
ENDMDL
MODEL 2
REMARK VINA RESULT:      -7.6      2.685      4.878
REMARK  6 active torsions:
REMARK  status: ('A' for Active; 'I' for Inactive)
REMARK    1  A    between atoms: C_2  and  O_3 
REMARK    2  A    between atoms: O_3  and  C_4 
REMARK    3  A    between atoms: C_4  and  C_5 
REMARK    4  A    between atoms: C_6  and  O_7 
REMARK    5  A    between atoms: C_12  and  O_13 
REMARK    6  A    between atoms: C_17  and  C_18 
ROOT
HETATM    1  C   UNL     1     -42.162  56.434 -54.224  1.00  0.00     0.133 C 
HETATM    2  C   UNL     1     -41.831  57.759 -53.461  1.00  0.00     0.073 C 
HETATM    3  C   UNL     1     -41.436  58.906 -54.405  1.00  0.00     0.047 C 
HETATM    4  C   UNL     1     -42.950  58.239 -52.492  1.00  0.00     0.097 C 
HETATM    5  C   UNL     1     -43.546  57.075 -51.790  1.00  0.00     0.042 A 
HETATM    6  C   UNL     1     -43.463  55.747 -52.153  1.00  0.00     0.030 A 
HETATM    7  C   UNL     1     -44.200  55.095 -51.152  1.00  0.00     0.190 A 
HETATM    8  N   UNL     1     -44.714  55.916 -50.246  1.00  0.00    -0.149 NA
HETATM    9  N   UNL     1     -44.285  57.126 -50.644  1.00  0.00    -0.279 N 
HETATM   10  H   UNL     1     -44.539  57.935 -50.085  1.00  0.00     0.189 HD
HETATM   11  C   UNL     1     -42.753  55.272 -53.373  1.00  0.00     0.074 C 
ENDROOT
BRANCH  11  12
HETATM   12  C   UNL     1     -41.704  54.254 -52.944  1.00  0.00    -0.048 A 
HETATM   13  C   UNL     1     -41.355  53.230 -53.847  1.00  0.00     0.011 A 
HETATM   14  C   UNL     1     -40.379  52.287 -53.519  1.00  0.00     0.043 A 
HETATM   15  C   UNL     1     -39.736  52.366 -52.292  1.00  0.00     0.116 A 
HETATM   16  F   UNL     1     -38.797  51.464 -51.981  1.00  0.00    -0.206 F 
HETATM   17  C   UNL     1     -40.050  53.370 -51.387  1.00  0.00     0.043 A 
HETATM   18  C   UNL     1     -41.028  54.313 -51.712  1.00  0.00     0.011 A 
ENDBRANCH  11  12
BRANCH   1  19
HETATM   19  C   UNL     1     -43.077  56.605 -55.418  1.00  0.00     0.267 C 
HETATM   20  O   UNL     1     -44.234  56.991 -55.308  1.00  0.00    -0.265 OA
BRANCH  19  21
HETATM   21  O   UNL     1     -42.456  56.359 -56.598  1.00  0.00    -0.316 OA
BRANCH  21  22
HETATM   22  C   UNL     1     -43.074  56.912 -57.778  1.00  0.00     0.123 C 
HETATM   23  C   UNL     1     -43.199  55.839 -58.854  1.00  0.00     0.040 C 
HETATM   24  C   UNL     1     -42.178  58.047 -58.258  1.00  0.00     0.040 C 
ENDBRANCH  21  22
ENDBRANCH  19  21
ENDBRANCH   1  19
BRANCH   2  25
HETATM   25  O   UNL     1     -40.655  57.531 -52.649  1.00  0.00    -0.389 OA
HETATM   26  H   UNL     1     -40.053  58.291 -52.749  1.00  0.00     0.210 HD
ENDBRANCH   2  25
BRANCH   7  27
HETATM   27  O   UNL     1     -44.438  53.793 -50.981  1.00  0.00    -0.343 OA
HETATM   28  H   UNL     1     -44.261  53.552 -50.060  1.00  0.00     0.219 HD
ENDBRANCH   7  27
TORSDOF 6
ENDMDL
MODEL 3
REMARK VINA RESULT:      -7.6      3.340      5.598
REMARK  6 active torsions:
REMARK  status: ('A' for Active; 'I' for Inactive)
REMARK    1  A    between atoms: C_2  and  O_3 
REMARK    2  A    between atoms: O_3  and  C_4 
REMARK    3  A    between atoms: C_4  and  C_5 
REMARK    4  A    between atoms: C_6  and  O_7 
REMARK    5  A    between atoms: C_12  and  O_13 
REMARK    6  A    between atoms: C_17  and  C_18 
ROOT
HETATM    1  C   UNL     1     -42.251  55.063 -52.584  1.00  0.00     0.133 C 
HETATM    2  C   UNL     1     -43.158  55.340 -51.340  1.00  0.00     0.073 C 
HETATM    3  C   UNL     1     -43.661  54.051 -50.670  1.00  0.00     0.047 C 
HETATM    4  C   UNL     1     -42.516  56.271 -50.270  1.00  0.00     0.097 C 
HETATM    5  C   UNL     1     -41.766  57.365 -50.936  1.00  0.00     0.042 A 
HETATM    6  C   UNL     1     -41.333  57.407 -52.244  1.00  0.00     0.030 A 
HETATM    7  C   UNL     1     -40.687  58.651 -52.328  1.00  0.00     0.190 A 
HETATM    8  N   UNL     1     -40.694  59.334 -51.189  1.00  0.00    -0.149 NA
HETATM    9  N   UNL     1     -41.378  58.536 -50.352  1.00  0.00    -0.279 N 
HETATM   10  H   UNL     1     -41.536  58.858 -49.402  1.00  0.00     0.189 HD
HETATM   11  C   UNL     1     -41.541  56.297 -53.214  1.00  0.00     0.074 C 
ENDROOT
BRANCH  11  12
HETATM   12  C   UNL     1     -42.283  56.857 -54.422  1.00  0.00    -0.048 A 
HETATM   13  C   UNL     1     -41.970  56.344 -55.697  1.00  0.00     0.011 A 
HETATM   14  C   UNL     1     -42.637  56.799 -56.836  1.00  0.00     0.043 A 
HETATM   15  C   UNL     1     -43.629  57.761 -56.709  1.00  0.00     0.116 A 
HETATM   16  F   UNL     1     -44.273  58.193 -57.801  1.00  0.00    -0.206 F 
HETATM   17  C   UNL     1     -43.966  58.276 -55.465  1.00  0.00     0.043 A 
HETATM   18  C   UNL     1     -43.298  57.825 -54.325  1.00  0.00     0.011 A 
ENDBRANCH  11  12
BRANCH   1  19
HETATM   19  C   UNL     1     -41.180  54.015 -52.363  1.00  0.00     0.267 C 
HETATM   20  O   UNL     1     -40.321  54.127 -51.498  1.00  0.00    -0.265 OA
BRANCH  19  21
HETATM   21  O   UNL     1     -41.330  52.932 -53.164  1.00  0.00    -0.316 OA
BRANCH  21  22
HETATM   22  C   UNL     1     -40.185  52.555 -53.956  1.00  0.00     0.123 C 
HETATM   23  C   UNL     1     -40.080  53.454 -55.184  1.00  0.00     0.040 C 
HETATM   24  C   UNL     1     -40.392  51.104 -54.373  1.00  0.00     0.040 C 
ENDBRANCH  21  22
ENDBRANCH  19  21
ENDBRANCH   1  19
BRANCH   2  25
HETATM   25  O   UNL     1     -44.358  56.008 -51.796  1.00  0.00    -0.389 OA
HETATM   26  H   UNL     1     -44.799  56.419 -51.030  1.00  0.00     0.210 HD
ENDBRANCH   2  25
BRANCH   7  27
HETATM   27  O   UNL     1     -40.096  59.236 -53.371  1.00  0.00    -0.343 OA
HETATM   28  H   UNL     1     -40.315  60.179 -53.379  1.00  0.00     0.219 HD
ENDBRANCH   7  27
TORSDOF 6
ENDMDL
MODEL 4
REMARK VINA RESULT:      -7.2     14.534     16.031
REMARK  6 active torsions:
REMARK  status: ('A' for Active; 'I' for Inactive)
REMARK    1  A    between atoms: C_2  and  O_3 
REMARK    2  A    between atoms: O_3  and  C_4 
REMARK    3  A    between atoms: C_4  and  C_5 
REMARK    4  A    between atoms: C_6  and  O_7 
REMARK    5  A    between atoms: C_12  and  O_13 
REMARK    6  A    between atoms: C_17  and  C_18 
ROOT
HETATM    1  C   UNL     1     -35.148  40.681 -53.121  1.00  0.00     0.133 C 
HETATM    2  C   UNL     1     -36.561  40.032 -52.955  1.00  0.00     0.073 C 
HETATM    3  C   UNL     1     -36.923  39.762 -51.485  1.00  0.00     0.047 C 
HETATM    4  C   UNL     1     -37.715  40.816 -53.644  1.00  0.00     0.097 C 
HETATM    5  C   UNL     1     -37.259  41.341 -54.955  1.00  0.00     0.042 A 
HETATM    6  C   UNL     1     -35.959  41.494 -55.388  1.00  0.00     0.030 A 
HETATM    7  C   UNL     1     -36.111  42.026 -56.678  1.00  0.00     0.190 A 
HETATM    8  N   UNL     1     -37.377  42.208 -57.035  1.00  0.00    -0.149 NA
HETATM    9  N   UNL     1     -38.067  41.763 -55.971  1.00  0.00    -0.279 N 
HETATM   10  H   UNL     1     -39.081  41.782 -56.012  1.00  0.00     0.189 HD
HETATM   11  C   UNL     1     -34.771  41.165 -54.552  1.00  0.00     0.074 C 
ENDROOT
BRANCH  11  12
HETATM   12  C   UNL     1     -33.920  40.158 -55.316  1.00  0.00    -0.048 A 
HETATM   13  C   UNL     1     -32.539  40.410 -55.447  1.00  0.00     0.011 A 
HETATM   14  C   UNL     1     -31.706  39.508 -56.110  1.00  0.00     0.043 A 
HETATM   15  C   UNL     1     -32.243  38.342 -56.640  1.00  0.00     0.116 A 
HETATM   16  F   UNL     1     -31.442  37.475 -57.271  1.00  0.00    -0.206 F 
HETATM   17  C   UNL     1     -33.596  38.062 -56.516  1.00  0.00     0.043 A 
HETATM   18  C   UNL     1     -34.432  38.964 -55.855  1.00  0.00     0.011 A 
ENDBRANCH  11  12
BRANCH   1  19
HETATM   19  C   UNL     1     -34.873  41.841 -52.187  1.00  0.00     0.267 C 
HETATM   20  O   UNL     1     -35.359  42.952 -52.358  1.00  0.00    -0.265 OA
BRANCH  19  21
HETATM   21  O   UNL     1     -34.106  41.491 -51.125  1.00  0.00    -0.316 OA
BRANCH  21  22
HETATM   22  C   UNL     1     -33.307  40.299 -51.274  1.00  0.00     0.123 C 
HETATM   23  C   UNL     1     -33.168  39.593 -49.929  1.00  0.00     0.040 C 
HETATM   24  C   UNL     1     -31.943  40.741 -51.788  1.00  0.00     0.040 C 
ENDBRANCH  21  22
ENDBRANCH  19  21
ENDBRANCH   1  19
BRANCH   2  25
HETATM   25  O   UNL     1     -36.532  38.722 -53.571  1.00  0.00    -0.389 OA
HETATM   26  H   UNL     1     -37.250  38.668 -54.227  1.00  0.00     0.210 HD
ENDBRANCH   2  25
BRANCH   7  27
HETATM   27  O   UNL     1     -35.184  42.353 -57.580  1.00  0.00    -0.343 OA
HETATM   28  H   UNL     1     -34.370  42.614 -57.125  1.00  0.00     0.219 HD
ENDBRANCH   7  27
TORSDOF 6
ENDMDL
MODEL 5
REMARK VINA RESULT:      -7.1      4.067      6.309
REMARK  6 active torsions:
REMARK  status: ('A' for Active; 'I' for Inactive)
REMARK    1  A    between atoms: C_2  and  O_3 
REMARK    2  A    between atoms: O_3  and  C_4 
REMARK    3  A    between atoms: C_4  and  C_5 
REMARK    4  A    between atoms: C_6  and  O_7 
REMARK    5  A    between atoms: C_12  and  O_13 
REMARK    6  A    between atoms: C_17  and  C_18 
ROOT
HETATM    1  C   UNL     1     -42.571  55.374 -55.136  1.00  0.00     0.133 C 
HETATM    2  C   UNL     1     -43.452  55.676 -53.879  1.00  0.00     0.073 C 
HETATM    3  C   UNL     1     -43.554  54.478 -52.922  1.00  0.00     0.047 C 
HETATM    4  C   UNL     1     -43.027  56.946 -53.087  1.00  0.00     0.097 C 
HETATM    5  C   UNL     1     -42.635  58.024 -54.029  1.00  0.00     0.042 A 
HETATM    6  C   UNL     1     -42.300  57.890 -55.359  1.00  0.00     0.030 A 
HETATM    7  C   UNL     1     -42.017  59.208 -55.753  1.00  0.00     0.190 A 
HETATM    8  N   UNL     1     -42.146  60.096 -54.775  1.00  0.00    -0.149 NA
HETATM    9  N   UNL     1     -42.546  59.352 -53.729  1.00  0.00    -0.279 N 
HETATM   10  H   UNL     1     -42.733  59.821 -52.849  1.00  0.00     0.189 HD
HETATM   11  C   UNL     1     -42.253  56.580 -56.067  1.00  0.00     0.074 C 
ENDROOT
BRANCH  11  12
HETATM   12  C   UNL     1     -43.181  56.662 -57.273  1.00  0.00    -0.048 A 
HETATM   13  C   UNL     1     -42.954  55.786 -58.354  1.00  0.00     0.011 A 
HETATM   14  C   UNL     1     -43.789  55.795 -59.472  1.00  0.00     0.043 A 
HETATM   15  C   UNL     1     -44.864  56.672 -59.516  1.00  0.00     0.116 A 
HETATM   16  F   UNL     1     -45.667  56.677 -60.587  1.00  0.00    -0.206 F 
HETATM   17  C   UNL     1     -45.119  57.539 -58.462  1.00  0.00     0.043 A 
HETATM   18  C   UNL     1     -44.283  57.532 -57.344  1.00  0.00     0.011 A 
ENDBRANCH  11  12
BRANCH   1  19
HETATM   19  C   UNL     1     -41.248  54.702 -54.833  1.00  0.00     0.267 C 
HETATM   20  O   UNL     1     -40.199  55.328 -54.742  1.00  0.00    -0.265 OA
BRANCH  19  21
HETATM   21  O   UNL     1     -41.373  53.371 -54.605  1.00  0.00    -0.316 OA
BRANCH  21  22
HETATM   22  C   UNL     1     -40.239  52.712 -54.005  1.00  0.00     0.123 C 
HETATM   23  C   UNL     1     -40.249  51.229 -54.360  1.00  0.00     0.040 C 
HETATM   24  C   UNL     1     -40.361  52.901 -52.498  1.00  0.00     0.040 C 
ENDBRANCH  21  22
ENDBRANCH  19  21
ENDBRANCH   1  19
BRANCH   2  25
HETATM   25  O   UNL     1     -44.810  55.906 -54.324  1.00  0.00    -0.389 OA
HETATM   26  H   UNL     1     -45.031  56.844 -54.184  1.00  0.00     0.210 HD
ENDBRANCH   2  25
BRANCH   7  27
HETATM   27  O   UNL     1     -41.660  59.682 -56.947  1.00  0.00    -0.343 OA
HETATM   28  H   UNL     1     -42.452  59.822 -57.488  1.00  0.00     0.219 HD
ENDBRANCH   7  27
TORSDOF 6
ENDMDL
MODEL 6
REMARK VINA RESULT:      -6.9      3.879      6.365
REMARK  6 active torsions:
REMARK  status: ('A' for Active; 'I' for Inactive)
REMARK    1  A    between atoms: C_2  and  O_3 
REMARK    2  A    between atoms: O_3  and  C_4 
REMARK    3  A    between atoms: C_4  and  C_5 
REMARK    4  A    between atoms: C_6  and  O_7 
REMARK    5  A    between atoms: C_12  and  O_13 
REMARK    6  A    between atoms: C_17  and  C_18 
ROOT
HETATM    1  C   UNL     1     -43.223  55.872 -52.666  1.00  0.00     0.133 C 
HETATM    2  C   UNL     1     -43.293  55.783 -51.105  1.00  0.00     0.073 C 
HETATM    3  C   UNL     1     -43.831  54.431 -50.610  1.00  0.00     0.047 C 
HETATM    4  C   UNL     1     -41.955  56.112 -50.382  1.00  0.00     0.097 C 
HETATM    5  C   UNL     1     -41.279  57.247 -51.059  1.00  0.00     0.042 A 
HETATM    6  C   UNL     1     -41.518  57.726 -52.329  1.00  0.00     0.030 A 
HETATM    7  C   UNL     1     -40.607  58.787 -52.449  1.00  0.00     0.190 A 
HETATM    8  N   UNL     1     -39.851  58.966 -51.373  1.00  0.00    -0.149 NA
HETATM    9  N   UNL     1     -40.293  58.023 -50.522  1.00  0.00    -0.279 N 
HETATM   10  H   UNL     1     -39.872  57.972 -49.601  1.00  0.00     0.189 HD
HETATM   11  C   UNL     1     -42.516  57.126 -53.258  1.00  0.00     0.074 C 
ENDROOT
BRANCH  11  12
HETATM   12  C   UNL     1     -43.493  58.220 -53.672  1.00  0.00    -0.048 A 
HETATM   13  C   UNL     1     -43.886  58.291 -55.024  1.00  0.00     0.011 A 
HETATM   14  C   UNL     1     -44.801  59.253 -55.455  1.00  0.00     0.043 A 
HETATM   15  C   UNL     1     -45.338  60.146 -54.538  1.00  0.00     0.116 A 
HETATM   16  F   UNL     1     -46.219  61.065 -54.951  1.00  0.00    -0.206 F 
HETATM   17  C   UNL     1     -44.978  60.093 -53.199  1.00  0.00     0.043 A 
HETATM   18  C   UNL     1     -44.062  59.132 -52.766  1.00  0.00     0.011 A 
ENDBRANCH  11  12
BRANCH   1  19
HETATM   19  C   UNL     1     -42.601  54.667 -53.339  1.00  0.00     0.267 C 
HETATM   20  O   UNL     1     -43.210  53.980 -54.150  1.00  0.00    -0.265 OA
BRANCH  19  21
HETATM   21  O   UNL     1     -41.299  54.490 -53.004  1.00  0.00    -0.316 OA
BRANCH  21  22
HETATM   22  C   UNL     1     -40.903  53.148 -52.650  1.00  0.00     0.123 C 
HETATM   23  C   UNL     1     -39.990  53.179 -51.429  1.00  0.00     0.040 C 
HETATM   24  C   UNL     1     -40.168  52.570 -53.852  1.00  0.00     0.040 C 
ENDBRANCH  21  22
ENDBRANCH  19  21
ENDBRANCH   1  19
BRANCH   2  25
HETATM   25  O   UNL     1     -44.260  56.755 -50.641  1.00  0.00    -0.389 OA
HETATM   26  H   UNL     1     -45.067  56.286 -50.363  1.00  0.00     0.210 HD
ENDBRANCH   2  25
BRANCH   7  27
HETATM   27  O   UNL     1     -40.409  59.629 -53.464  1.00  0.00    -0.343 OA
HETATM   28  H   UNL     1     -41.119  60.287 -53.480  1.00  0.00     0.219 HD
ENDBRANCH   7  27
TORSDOF 6
ENDMDL
MODEL 7
REMARK VINA RESULT:      -6.9     14.629     17.291
REMARK  6 active torsions:
REMARK  status: ('A' for Active; 'I' for Inactive)
REMARK    1  A    between atoms: C_2  and  O_3 
REMARK    2  A    between atoms: O_3  and  C_4 
REMARK    3  A    between atoms: C_4  and  C_5 
REMARK    4  A    between atoms: C_6  and  O_7 
REMARK    5  A    between atoms: C_12  and  O_13 
REMARK    6  A    between atoms: C_17  and  C_18 
ROOT
HETATM    1  C   UNL     1     -36.116  40.201 -57.789  1.00  0.00     0.133 C 
HETATM    2  C   UNL     1     -36.456  41.727 -57.727  1.00  0.00     0.073 C 
HETATM    3  C   UNL     1     -37.146  42.236 -59.002  1.00  0.00     0.047 C 
HETATM    4  C   UNL     1     -37.282  42.150 -56.478  1.00  0.00     0.097 C 
HETATM    5  C   UNL     1     -36.801  41.419 -55.280  1.00  0.00     0.042 A 
HETATM    6  C   UNL     1     -36.038  40.271 -55.251  1.00  0.00     0.030 A 
HETATM    7  C   UNL     1     -35.885  40.022 -53.878  1.00  0.00     0.190 A 
HETATM    8  N   UNL     1     -36.495  40.910 -53.103  1.00  0.00    -0.149 NA
HETATM    9  N   UNL     1     -37.036  41.771 -53.982  1.00  0.00    -0.279 N 
HETATM   10  H   UNL     1     -37.550  42.568 -53.621  1.00  0.00     0.189 HD
HETATM   11  C   UNL     1     -35.590  39.552 -56.476  1.00  0.00     0.074 C 
ENDROOT
BRANCH  11  12
HETATM   12  C   UNL     1     -34.070  39.446 -56.432  1.00  0.00    -0.048 A 
HETATM   13  C   UNL     1     -33.454  38.366 -57.096  1.00  0.00     0.011 A 
HETATM   14  C   UNL     1     -32.065  38.234 -57.114  1.00  0.00     0.043 A 
HETATM   15  C   UNL     1     -31.279  39.186 -56.479  1.00  0.00     0.116 A 
HETATM   16  F   UNL     1     -29.946  39.061 -56.502  1.00  0.00    -0.206 F 
HETATM   17  C   UNL     1     -31.856  40.266 -55.827  1.00  0.00     0.043 A 
HETATM   18  C   UNL     1     -33.246  40.398 -55.805  1.00  0.00     0.011 A 
ENDBRANCH  11  12
BRANCH   1  19
HETATM   19  C   UNL     1     -37.248  39.322 -58.282  1.00  0.00     0.267 C 
HETATM   20  O   UNL     1     -38.396  39.440 -57.872  1.00  0.00    -0.265 OA
BRANCH  19  21
HETATM   21  O   UNL     1     -36.862  38.466 -59.259  1.00  0.00    -0.316 OA
BRANCH  21  22
HETATM   22  C   UNL     1     -36.335  39.059 -60.463  1.00  0.00     0.123 C 
HETATM   23  C   UNL     1     -37.450  39.240 -61.488  1.00  0.00     0.040 C 
HETATM   24  C   UNL     1     -35.269  38.110 -60.996  1.00  0.00     0.040 C 
ENDBRANCH  21  22
ENDBRANCH  19  21
ENDBRANCH   1  19
BRANCH   2  25
HETATM   25  O   UNL     1     -35.212  42.464 -57.663  1.00  0.00    -0.389 OA
HETATM   26  H   UNL     1     -35.161  42.919 -56.804  1.00  0.00     0.210 HD
ENDBRANCH   2  25
BRANCH   7  27
HETATM   27  O   UNL     1     -35.214  39.049 -53.258  1.00  0.00    -0.343 OA
HETATM   28  H   UNL     1     -35.028  39.317 -52.346  1.00  0.00     0.219 HD
ENDBRANCH   7  27
TORSDOF 6
ENDMDL
MODEL 8
REMARK VINA RESULT:      -6.8     14.395     16.643
REMARK  6 active torsions:
REMARK  status: ('A' for Active; 'I' for Inactive)
REMARK    1  A    between atoms: C_2  and  O_3 
REMARK    2  A    between atoms: O_3  and  C_4 
REMARK    3  A    between atoms: C_4  and  C_5 
REMARK    4  A    between atoms: C_6  and  O_7 
REMARK    5  A    between atoms: C_12  and  O_13 
REMARK    6  A    between atoms: C_17  and  C_18 
ROOT
HETATM    1  C   UNL     1     -35.015  40.238 -54.952  1.00  0.00     0.133 C 
HETATM    2  C   UNL     1     -35.481  41.653 -55.431  1.00  0.00     0.073 C 
HETATM    3  C   UNL     1     -34.963  42.008 -56.833  1.00  0.00     0.047 C 
HETATM    4  C   UNL     1     -37.020  41.877 -55.367  1.00  0.00     0.097 C 
HETATM    5  C   UNL     1     -37.572  41.260 -54.136  1.00  0.00     0.042 A 
HETATM    6  C   UNL     1     -36.976  40.307 -53.338  1.00  0.00     0.030 A 
HETATM    7  C   UNL     1     -37.930  40.088 -52.332  1.00  0.00     0.190 A 
HETATM    8  N   UNL     1     -39.031  40.816 -52.472  1.00  0.00    -0.149 NA
HETATM    9  N   UNL     1     -38.783  41.544 -53.575  1.00  0.00    -0.279 N 
HETATM   10  H   UNL     1     -39.488  42.207 -53.881  1.00  0.00     0.189 HD
HETATM   11  C   UNL     1     -35.641  39.711 -53.628  1.00  0.00     0.074 C 
ENDROOT
BRANCH  11  12
HETATM   12  C   UNL     1     -34.748  39.940 -52.415  1.00  0.00    -0.048 A 
HETATM   13  C   UNL     1     -33.947  38.872 -51.962  1.00  0.00     0.011 A 
HETATM   14  C   UNL     1     -33.088  39.032 -50.873  1.00  0.00     0.043 A 
HETATM   15  C   UNL     1     -33.015  40.262 -50.235  1.00  0.00     0.116 A 
HETATM   16  F   UNL     1     -32.187  40.415 -49.194  1.00  0.00    -0.206 F 
HETATM   17  C   UNL     1     -33.783  41.334 -50.665  1.00  0.00     0.043 A 
HETATM   18  C   UNL     1     -34.645  41.176 -51.753  1.00  0.00     0.011 A 
ENDBRANCH  11  12
BRANCH   1  19
HETATM   19  C   UNL     1     -35.184  39.137 -55.978  1.00  0.00     0.267 C 
HETATM   20  O   UNL     1     -36.284  38.741 -56.341  1.00  0.00    -0.265 OA
BRANCH  19  21
HETATM   21  O   UNL     1     -34.004  38.709 -56.490  1.00  0.00    -0.316 OA
BRANCH  21  22
HETATM   22  C   UNL     1     -32.814  39.083 -55.765  1.00  0.00     0.123 C 
HETATM   23  C   UNL     1     -31.836  39.791 -56.697  1.00  0.00     0.040 C 
HETATM   24  C   UNL     1     -32.201  37.798 -55.224  1.00  0.00     0.040 C 
ENDBRANCH  21  22
ENDBRANCH  19  21
ENDBRANCH   1  19
BRANCH   2  25
HETATM   25  O   UNL     1     -34.887  42.643 -54.559  1.00  0.00    -0.389 OA
HETATM   26  H   UNL     1     -34.143  42.234 -54.081  1.00  0.00     0.210 HD
ENDBRANCH   2  25
BRANCH   7  27
HETATM   27  O   UNL     1     -37.879  39.281 -51.271  1.00  0.00    -0.343 OA
HETATM   28  H   UNL     1     -38.540  39.562 -50.621  1.00  0.00     0.219 HD
ENDBRANCH   7  27
TORSDOF 6
ENDMDL
MODEL 9
REMARK VINA RESULT:      -6.8      3.634      5.950
REMARK  6 active torsions:
REMARK  status: ('A' for Active; 'I' for Inactive)
REMARK    1  A    between atoms: C_2  and  O_3 
REMARK    2  A    between atoms: O_3  and  C_4 
REMARK    3  A    between atoms: C_4  and  C_5 
REMARK    4  A    between atoms: C_6  and  O_7 
REMARK    5  A    between atoms: C_12  and  O_13 
REMARK    6  A    between atoms: C_17  and  C_18 
ROOT
HETATM    1  C   UNL     1     -43.288  58.149 -55.136  1.00  0.00     0.133 C 
HETATM    2  C   UNL     1     -42.511  59.465 -54.802  1.00  0.00     0.073 C 
HETATM    3  C   UNL     1     -42.145  60.275 -56.056  1.00  0.00     0.047 C 
HETATM    4  C   UNL     1     -43.223  60.388 -53.771  1.00  0.00     0.097 C 
HETATM    5  C   UNL     1     -43.844  59.568 -52.701  1.00  0.00     0.042 A 
HETATM    6  C   UNL     1     -44.129  58.219 -52.740  1.00  0.00     0.030 A 
HETATM    7  C   UNL     1     -44.703  57.977 -51.482  1.00  0.00     0.190 A 
HETATM    8  N   UNL     1     -44.790  59.058 -50.717  1.00  0.00    -0.149 NA
HETATM    9  N   UNL     1     -44.239  60.021 -51.476  1.00  0.00    -0.279 N 
HETATM   10  H   UNL     1     -44.172  60.957 -51.091  1.00  0.00     0.189 HD
HETATM   11  C   UNL     1     -43.867  57.359 -53.927  1.00  0.00     0.074 C 
ENDROOT
BRANCH  11  12
HETATM   12  C   UNL     1     -42.972  56.206 -53.486  1.00  0.00    -0.048 A 
HETATM   13  C   UNL     1     -43.146  54.950 -54.102  1.00  0.00     0.011 A 
HETATM   14  C   UNL     1     -42.337  53.866 -53.760  1.00  0.00     0.043 A 
HETATM   15  C   UNL     1     -41.340  54.030 -52.808  1.00  0.00     0.116 A 
HETATM   16  F   UNL     1     -40.560  52.990 -52.484  1.00  0.00    -0.206 F 
HETATM   17  C   UNL     1     -41.138  55.257 -52.193  1.00  0.00     0.043 A 
HETATM   18  C   UNL     1     -41.949  56.342 -52.532  1.00  0.00     0.011 A 
ENDBRANCH  11  12
BRANCH   1  19
HETATM   19  C   UNL     1     -44.424  58.320 -56.123  1.00  0.00     0.267 C 
HETATM   20  O   UNL     1     -45.342  59.110 -55.938  1.00  0.00    -0.265 OA
BRANCH  19  21
HETATM   21  O   UNL     1     -44.267  57.571 -57.242  1.00  0.00    -0.316 OA
BRANCH  21  22
HETATM   22  C   UNL     1     -42.940  57.068 -57.498  1.00  0.00     0.123 C 
HETATM   23  C   UNL     1     -42.342  57.766 -58.716  1.00  0.00     0.040 C 
HETATM   24  C   UNL     1     -43.073  55.572 -57.752  1.00  0.00     0.040 C 
ENDBRANCH  21  22
ENDBRANCH  19  21
ENDBRANCH   1  19
BRANCH   2  25
HETATM   25  O   UNL     1     -41.239  59.102 -54.216  1.00  0.00    -0.389 OA
HETATM   26  H   UNL     1     -40.759  59.916 -53.978  1.00  0.00     0.210 HD
ENDBRANCH   2  25
BRANCH   7  27
HETATM   27  O   UNL     1     -45.149  56.835 -50.955  1.00  0.00    -0.343 OA
HETATM   28  H   UNL     1     -45.087  56.129 -51.615  1.00  0.00     0.219 HD
ENDBRANCH   7  27
TORSDOF 6
ENDMDL
MODEL 10
REMARK VINA RESULT:      -6.7      4.900      7.419
REMARK  6 active torsions:
REMARK  status: ('A' for Active; 'I' for Inactive)
REMARK    1  A    between atoms: C_2  and  O_3 
REMARK    2  A    between atoms: O_3  and  C_4 
REMARK    3  A    between atoms: C_4  and  C_5 
REMARK    4  A    between atoms: C_6  and  O_7 
REMARK    5  A    between atoms: C_12  and  O_13 
REMARK    6  A    between atoms: C_17  and  C_18 
ROOT
HETATM    1  C   UNL     1     -43.105  56.546 -58.577  1.00  0.00     0.133 C 
HETATM    2  C   UNL     1     -42.509  57.974 -58.804  1.00  0.00     0.073 C 
HETATM    3  C   UNL     1     -42.053  58.206 -60.253  1.00  0.00     0.047 C 
HETATM    4  C   UNL     1     -43.439  59.138 -58.353  1.00  0.00     0.097 C 
HETATM    5  C   UNL     1     -44.120  58.780 -57.084  1.00  0.00     0.042 A 
HETATM    6  C   UNL     1     -44.267  57.522 -56.540  1.00  0.00     0.030 A 
HETATM    7  C   UNL     1     -44.983  57.766 -55.357  1.00  0.00     0.190 A 
HETATM    8  N   UNL     1     -45.275  59.047 -55.164  1.00  0.00    -0.149 NA
HETATM    9  N   UNL     1     -44.720  59.656 -56.226  1.00  0.00    -0.279 N 
HETATM   10  H   UNL     1     -44.794  60.665 -56.295  1.00  0.00     0.189 HD
HETATM   11  C   UNL     1     -43.766  56.281 -57.193  1.00  0.00     0.074 C 
ENDROOT
BRANCH  11  12
HETATM   12  C   UNL     1     -42.835  55.575 -56.214  1.00  0.00    -0.048 A 
HETATM   13  C   UNL     1     -41.777  56.313 -55.646  1.00  0.00     0.011 A 
HETATM   14  C   UNL     1     -40.910  55.728 -54.721  1.00  0.00     0.043 A 
HETATM   15  C   UNL     1     -41.100  54.404 -54.349  1.00  0.00     0.116 A 
HETATM   16  F   UNL     1     -40.271  53.846 -53.457  1.00  0.00    -0.206 F 
HETATM   17  C   UNL     1     -42.139  53.657 -54.883  1.00  0.00     0.043 A 
HETATM   18  C   UNL     1     -43.006  54.240 -55.810  1.00  0.00     0.011 A 
ENDBRANCH  11  12
BRANCH   1  19
HETATM   19  C   UNL     1     -44.107  56.106 -59.625  1.00  0.00     0.267 C 
HETATM   20  O   UNL     1     -43.769  55.548 -60.661  1.00  0.00    -0.265 OA
BRANCH  19  21
HETATM   21  O   UNL     1     -45.391  56.331 -59.253  1.00  0.00    -0.316 OA
BRANCH  21  22
HETATM   22  C   UNL     1     -46.165  57.199 -60.106  1.00  0.00     0.123 C 
HETATM   23  C   UNL     1     -46.913  58.227 -59.264  1.00  0.00     0.040 C 
HETATM   24  C   UNL     1     -47.147  56.315 -60.865  1.00  0.00     0.040 C 
ENDBRANCH  21  22
ENDBRANCH  19  21
ENDBRANCH   1  19
BRANCH   2  25
HETATM   25  O   UNL     1     -41.300  58.089 -58.017  1.00  0.00    -0.389 OA
HETATM   26  H   UNL     1     -40.776  57.275 -58.127  1.00  0.00     0.210 HD
ENDBRANCH   2  25
BRANCH   7  27
HETATM   27  O   UNL     1     -45.387  56.914 -54.414  1.00  0.00    -0.343 OA
HETATM   28  H   UNL     1     -45.968  57.374 -53.790  1.00  0.00     0.219 HD
ENDBRANCH   7  27
TORSDOF 6
ENDMDL
