MODEL 1
REMARK VINA RESULT:      -9.2      0.000      0.000
REMARK  7 active torsions:
REMARK  status: ('A' for Active; 'I' for Inactive)
REMARK    1  A    between atoms: C_2  and  N_3 
REMARK    2  A    between atoms: C_2  and  C_25 
REMARK       I    between atoms: N_3  and  C_4 
REMARK    3  A    between atoms: C_4  and  C_5 
REMARK    4  A    between atoms: C_8  and  C_9 
REMARK       I    between atoms: C_9  and  N_10 
REMARK    5  A    between atoms: N_10  and  C_11 
REMARK    6  A    between atoms: N_19  and  C_20 
REMARK    7  A    between atoms: C_33  and  O_34 
ROOT
HETATM    1  C   UNL     1     -42.347  58.798 -56.740  1.00  0.00     0.098 A 
HETATM    2  C   UNL     1     -41.895  59.725 -57.823  1.00  0.00     0.206 A 
HETATM    3  O   UNL     1     -41.177  60.693 -57.563  1.00  0.00    -0.286 OA
HETATM    4  C   UNL     1     -42.317  59.451 -59.230  1.00  0.00     0.098 A 
HETATM    5  C   UNL     1     -43.119  58.389 -59.422  1.00  0.00     0.112 A 
HETATM    6  N   UNL     1     -43.568  57.570 -58.406  1.00  0.00    -0.360 N 
HETATM    7  C   UNL     1     -43.139  57.777 -57.109  1.00  0.00     0.112 A 
ENDROOT
BRANCH   1   8
HETATM    8  C   UNL     1     -41.976  58.945 -55.303  1.00  0.00     0.257 C 
HETATM    9  N   UNL     1     -42.089  57.798 -54.567  1.00  0.00    -0.348 N 
HETATM   10  H   UNL     1     -42.419  56.957 -55.038  1.00  0.00     0.163 HD
HETATM   11  O   UNL     1     -41.592  60.012 -54.835  1.00  0.00    -0.267 OA
BRANCH   9  12
HETATM   12  C   UNL     1     -41.765  57.686 -53.157  1.00  0.00     0.114 C 
HETATM   13  C   UNL     1     -42.905  58.204 -52.280  1.00  0.00     0.037 C 
BRANCH  12  14
HETATM   14  C   UNL     1     -41.422  56.236 -52.853  1.00  0.00    -0.035 A 
HETATM   15  C   UNL     1     -41.097  55.333 -53.884  1.00  0.00     0.021 A 
HETATM   16  C   UNL     1     -40.674  54.024 -53.605  1.00  0.00    -0.025 A 
HETATM   17  C   UNL     1     -40.591  53.596 -52.264  1.00  0.00    -0.023 A 
HETATM   18  C   UNL     1     -40.314  53.137 -54.631  1.00  0.00     0.015 A 
HETATM   19  C   UNL     1     -40.940  54.487 -51.238  1.00  0.00     0.013 A 
HETATM   20  C   UNL     1     -40.147  52.291 -51.990  1.00  0.00     0.049 A 
HETATM   21  C   UNL     1     -41.343  55.793 -51.529  1.00  0.00     0.010 A 
HETATM   22  C   UNL     1     -39.777  51.418 -53.017  1.00  0.00     0.069 A 
HETATM   23  C   UNL     1     -39.866  51.844 -54.340  1.00  0.00     0.037 A 
BRANCH  22  24
HETATM   24  O   UNL     1     -39.350  50.189 -52.595  1.00  0.00    -0.356 OA
HETATM   25  C   UNL     1     -39.661  49.824 -51.257  1.00  0.00     0.210 C 
ENDBRANCH  22  24
ENDBRANCH  12  14
ENDBRANCH   9  12
ENDBRANCH   1   8
BRANCH   4  26
HETATM   26  C   UNL     1     -41.899  60.267 -60.405  1.00  0.00     0.257 C 
HETATM   27  N   UNL     1     -41.716  61.604 -60.147  1.00  0.00    -0.352 N 
HETATM   28  H   UNL     1     -41.981  61.945 -59.223  1.00  0.00     0.163 HD
HETATM   29  O   UNL     1     -41.735  59.767 -61.514  1.00  0.00    -0.267 OA
BRANCH  27  30
HETATM   30  C   UNL     1     -41.434  62.592 -61.179  1.00  0.00     0.084 C 
HETATM   31  C   UNL     1     -42.071  63.945 -60.832  1.00  0.00     0.025 C 
HETATM   32  C   UNL     1     -41.372  64.638 -59.663  1.00  0.00     0.002 C 
HETATM   33  C   UNL     1     -39.873  64.782 -59.906  1.00  0.00     0.000 C 
HETATM   34  C   UNL     1     -39.219  63.442 -60.226  1.00  0.00     0.002 C 
HETATM   35  C   UNL     1     -39.919  62.732 -61.387  1.00  0.00     0.025 C 
ENDBRANCH  27  30
ENDBRANCH   4  26
BRANCH   6  36
HETATM   36  C   UNL     1     -44.327  56.357 -58.738  1.00  0.00     0.089 A 
HETATM   37  C   UNL     1     -44.550  55.917 -60.162  1.00  0.00     0.028 A 
HETATM   38  C   UNL     1     -43.643  55.124 -59.272  1.00  0.00     0.028 A 
ENDBRANCH   6  36
TORSDOF 7
ENDMDL
MODEL 2
REMARK VINA RESULT:      -9.1      2.412      4.945
REMARK  7 active torsions:
REMARK  status: ('A' for Active; 'I' for Inactive)
REMARK    1  A    between atoms: C_2  and  N_3 
REMARK    2  A    between atoms: C_2  and  C_25 
REMARK       I    between atoms: N_3  and  C_4 
REMARK    3  A    between atoms: C_4  and  C_5 
REMARK    4  A    between atoms: C_8  and  C_9 
REMARK       I    between atoms: C_9  and  N_10 
REMARK    5  A    between atoms: N_10  and  C_11 
REMARK    6  A    between atoms: N_19  and  C_20 
REMARK    7  A    between atoms: C_33  and  O_34 
ROOT
HETATM    1  C   UNL     1     -42.387  60.050 -54.377  1.00  0.00     0.098 A 
HETATM    2  C   UNL     1     -42.303  59.565 -55.790  1.00  0.00     0.206 A 
HETATM    3  O   UNL     1     -41.868  58.439 -56.042  1.00  0.00    -0.286 OA
HETATM    4  C   UNL     1     -42.771  60.462 -56.889  1.00  0.00     0.098 A 
HETATM    5  C   UNL     1     -43.209  61.680 -56.528  1.00  0.00     0.112 A 
HETATM    6  N   UNL     1     -43.234  62.134 -55.224  1.00  0.00    -0.360 N 
HETATM    7  C   UNL     1     -42.860  61.295 -54.192  1.00  0.00     0.112 A 
ENDROOT
BRANCH   1   8
HETATM    8  C   UNL     1     -41.978  59.246 -53.189  1.00  0.00     0.257 C 
HETATM    9  N   UNL     1     -42.767  58.157 -52.942  1.00  0.00    -0.348 N 
HETATM   10  H   UNL     1     -43.558  57.987 -53.562  1.00  0.00     0.163 HD
HETATM   11  O   UNL     1     -41.004  59.543 -52.505  1.00  0.00    -0.267 OA
BRANCH   9  12
HETATM   12  C   UNL     1     -42.556  57.212 -51.861  1.00  0.00     0.114 C 
HETATM   13  C   UNL     1     -43.867  56.879 -51.149  1.00  0.00     0.037 C 
BRANCH  12  14
HETATM   14  C   UNL     1     -41.879  55.973 -52.426  1.00  0.00    -0.035 A 
HETATM   15  C   UNL     1     -41.185  55.077 -51.591  1.00  0.00     0.021 A 
HETATM   16  C   UNL     1     -40.651  53.877 -52.086  1.00  0.00    -0.025 A 
HETATM   17  C   UNL     1     -40.796  53.570 -53.455  1.00  0.00    -0.023 A 
HETATM   18  C   UNL     1     -39.993  52.966 -51.245  1.00  0.00     0.015 A 
HETATM   19  C   UNL     1     -41.465  54.475 -54.293  1.00  0.00     0.013 A 
HETATM   20  C   UNL     1     -40.278  52.358 -53.942  1.00  0.00     0.049 A 
HETATM   21  C   UNL     1     -42.006  55.659 -53.783  1.00  0.00     0.010 A 
HETATM   22  C   UNL     1     -39.636  51.449 -53.095  1.00  0.00     0.069 A 
HETATM   23  C   UNL     1     -39.491  51.760 -51.745  1.00  0.00     0.037 A 
BRANCH  22  24
HETATM   24  O   UNL     1     -39.201  50.306 -53.708  1.00  0.00    -0.356 OA
HETATM   25  C   UNL     1     -39.988  49.815 -54.785  1.00  0.00     0.210 C 
ENDBRANCH  22  24
ENDBRANCH  12  14
ENDBRANCH   9  12
ENDBRANCH   1   8
BRANCH   4  26
HETATM   26  C   UNL     1     -42.786  60.083 -58.331  1.00  0.00     0.257 C 
HETATM   27  N   UNL     1     -43.300  58.839 -58.599  1.00  0.00    -0.352 N 
HETATM   28  H   UNL     1     -43.523  58.241 -57.803  1.00  0.00     0.163 HD
HETATM   29  O   UNL     1     -42.365  60.840 -59.201  1.00  0.00    -0.267 OA
BRANCH  27  30
HETATM   30  C   UNL     1     -43.287  58.230 -59.922  1.00  0.00     0.084 C 
HETATM   31  C   UNL     1     -42.271  57.080 -59.987  1.00  0.00     0.025 C 
HETATM   32  C   UNL     1     -42.716  55.859 -59.183  1.00  0.00     0.002 C 
HETATM   33  C   UNL     1     -44.108  55.387 -59.597  1.00  0.00     0.000 C 
HETATM   34  C   UNL     1     -45.135  56.511 -59.512  1.00  0.00     0.002 C 
HETATM   35  C   UNL     1     -44.693  57.745 -60.302  1.00  0.00     0.025 C 
ENDBRANCH  27  30
ENDBRANCH   4  26
BRANCH   6  36
HETATM   36  C   UNL     1     -43.859  63.428 -54.921  1.00  0.00     0.089 A 
HETATM   37  C   UNL     1     -43.727  64.084 -53.571  1.00  0.00     0.028 A 
HETATM   38  C   UNL     1     -43.036  64.680 -54.758  1.00  0.00     0.028 A 
ENDBRANCH   6  36
TORSDOF 7
ENDMDL
MODEL 3
REMARK VINA RESULT:      -8.6      1.429      2.067
REMARK  7 active torsions:
REMARK  status: ('A' for Active; 'I' for Inactive)
REMARK    1  A    between atoms: C_2  and  N_3 
REMARK    2  A    between atoms: C_2  and  C_25 
REMARK       I    between atoms: N_3  and  C_4 
REMARK    3  A    between atoms: C_4  and  C_5 
REMARK    4  A    between atoms: C_8  and  C_9 
REMARK       I    between atoms: C_9  and  N_10 
REMARK    5  A    between atoms: N_10  and  C_11 
REMARK    6  A    between atoms: N_19  and  C_20 
REMARK    7  A    between atoms: C_33  and  O_34 
ROOT
HETATM    1  C   UNL     1     -43.699  57.872 -57.110  1.00  0.00     0.098 A 
HETATM    2  C   UNL     1     -43.709  59.285 -57.601  1.00  0.00     0.206 A 
HETATM    3  O   UNL     1     -43.551  60.224 -56.816  1.00  0.00    -0.286 OA
HETATM    4  C   UNL     1     -43.897  59.540 -59.060  1.00  0.00     0.098 A 
HETATM    5  C   UNL     1     -44.086  58.462 -59.841  1.00  0.00     0.112 A 
HETATM    6  N   UNL     1     -44.124  57.165 -59.367  1.00  0.00    -0.360 N 
HETATM    7  C   UNL     1     -43.892  56.911 -58.029  1.00  0.00     0.112 A 
ENDROOT
BRANCH   1   8
HETATM    8  C   UNL     1     -43.495  57.482 -55.684  1.00  0.00     0.257 C 
HETATM    9  N   UNL     1     -42.303  57.884 -55.151  1.00  0.00    -0.348 N 
HETATM   10  H   UNL     1     -41.657  58.395 -55.751  1.00  0.00     0.163 HD
HETATM   11  O   UNL     1     -44.343  56.860 -55.051  1.00  0.00    -0.267 OA
BRANCH   9  12
HETATM   12  C   UNL     1     -41.888  57.644 -53.781  1.00  0.00     0.114 C 
HETATM   13  C   UNL     1     -43.045  57.851 -52.804  1.00  0.00     0.037 C 
BRANCH  12  14
HETATM   14  C   UNL     1     -41.305  56.242 -53.691  1.00  0.00    -0.035 A 
HETATM   15  C   UNL     1     -41.146  55.597 -52.449  1.00  0.00     0.021 A 
HETATM   16  C   UNL     1     -40.713  54.265 -52.365  1.00  0.00    -0.025 A 
HETATM   17  C   UNL     1     -40.410  53.561 -53.548  1.00  0.00    -0.023 A 
HETATM   18  C   UNL     1     -40.591  53.611 -51.128  1.00  0.00     0.015 A 
HETATM   19  C   UNL     1     -40.543  54.212 -54.785  1.00  0.00     0.013 A 
HETATM   20  C   UNL     1     -39.996  52.221 -53.460  1.00  0.00     0.049 A 
HETATM   21  C   UNL     1     -40.993  55.533 -54.855  1.00  0.00     0.010 A 
HETATM   22  C   UNL     1     -39.891  51.573 -52.226  1.00  0.00     0.069 A 
HETATM   23  C   UNL     1     -40.186  52.274 -51.059  1.00  0.00     0.037 A 
BRANCH  22  24
HETATM   24  O   UNL     1     -39.493  50.266 -52.299  1.00  0.00    -0.356 OA
HETATM   25  C   UNL     1     -39.590  49.497 -51.107  1.00  0.00     0.210 C 
ENDBRANCH  22  24
ENDBRANCH  12  14
ENDBRANCH   9  12
ENDBRANCH   1   8
BRANCH   4  26
HETATM   26  C   UNL     1     -43.880  60.894 -59.684  1.00  0.00     0.257 C 
HETATM   27  N   UNL     1     -42.650  61.503 -59.713  1.00  0.00    -0.352 N 
HETATM   28  H   UNL     1     -41.885  61.043 -59.219  1.00  0.00     0.163 HD
HETATM   29  O   UNL     1     -44.898  61.410 -60.135  1.00  0.00    -0.267 OA
BRANCH  27  30
HETATM   30  C   UNL     1     -42.440  62.873 -60.161  1.00  0.00     0.084 C 
HETATM   31  C   UNL     1     -41.423  63.594 -59.265  1.00  0.00     0.025 C 
HETATM   32  C   UNL     1     -39.999  63.075 -59.461  1.00  0.00     0.002 C 
HETATM   33  C   UNL     1     -39.576  63.127 -60.926  1.00  0.00     0.000 C 
HETATM   34  C   UNL     1     -40.562  62.392 -61.828  1.00  0.00     0.002 C 
HETATM   35  C   UNL     1     -41.994  62.894 -61.630  1.00  0.00     0.025 C 
ENDBRANCH  27  30
ENDBRANCH   4  26
BRANCH   6  36
HETATM   36  C   UNL     1     -44.197  56.050 -60.319  1.00  0.00     0.089 A 
HETATM   37  C   UNL     1     -44.478  54.637 -59.877  1.00  0.00     0.028 A 
HETATM   38  C   UNL     1     -45.509  55.391 -60.660  1.00  0.00     0.028 A 
ENDBRANCH   6  36
TORSDOF 7
ENDMDL
MODEL 4
REMARK VINA RESULT:      -8.5      4.187      8.339
REMARK  7 active torsions:
REMARK  status: ('A' for Active; 'I' for Inactive)
REMARK    1  A    between atoms: C_2  and  N_3 
REMARK    2  A    between atoms: C_2  and  C_25 
REMARK       I    between atoms: N_3  and  C_4 
REMARK    3  A    between atoms: C_4  and  C_5 
REMARK    4  A    between atoms: C_8  and  C_9 
REMARK       I    between atoms: C_9  and  N_10 
REMARK    5  A    between atoms: N_10  and  C_11 
REMARK    6  A    between atoms: N_19  and  C_20 
REMARK    7  A    between atoms: C_33  and  O_34 
ROOT
HETATM    1  C   UNL     1     -41.573  57.681 -53.623  1.00  0.00     0.098 A 
HETATM    2  C   UNL     1     -42.148  57.317 -54.954  1.00  0.00     0.206 A 
HETATM    3  O   UNL     1     -42.506  58.193 -55.745  1.00  0.00    -0.286 OA
HETATM    4  C   UNL     1     -42.268  55.873 -55.318  1.00  0.00     0.098 A 
HETATM    5  C   UNL     1     -41.877  54.983 -54.389  1.00  0.00     0.112 A 
HETATM    6  N   UNL     1     -41.394  55.333 -53.143  1.00  0.00    -0.360 N 
HETATM    7  C   UNL     1     -41.223  56.664 -52.817  1.00  0.00     0.112 A 
ENDROOT
BRANCH   1   8
HETATM    8  C   UNL     1     -41.377  59.083 -53.150  1.00  0.00     0.257 C 
HETATM    9  N   UNL     1     -42.520  59.830 -53.102  1.00  0.00    -0.348 N 
HETATM   10  H   UNL     1     -43.393  59.392 -53.393  1.00  0.00     0.163 HD
HETATM   11  O   UNL     1     -40.275  59.512 -52.824  1.00  0.00    -0.267 OA
BRANCH   9  12
HETATM   12  C   UNL     1     -42.587  61.210 -52.654  1.00  0.00     0.114 C 
HETATM   13  C   UNL     1     -43.153  62.121 -53.742  1.00  0.00     0.037 C 
BRANCH  12  14
HETATM   14  C   UNL     1     -43.408  61.264 -51.375  1.00  0.00    -0.035 A 
HETATM   15  C   UNL     1     -43.375  62.394 -50.536  1.00  0.00     0.021 A 
HETATM   16  C   UNL     1     -44.212  62.498 -49.413  1.00  0.00    -0.025 A 
HETATM   17  C   UNL     1     -45.090  61.439 -49.106  1.00  0.00    -0.023 A 
HETATM   18  C   UNL     1     -44.206  63.641 -48.599  1.00  0.00     0.015 A 
HETATM   19  C   UNL     1     -45.104  60.301 -49.928  1.00  0.00     0.013 A 
HETATM   20  C   UNL     1     -45.940  61.556 -47.994  1.00  0.00     0.049 A 
HETATM   21  C   UNL     1     -44.279  60.218 -51.053  1.00  0.00     0.010 A 
HETATM   22  C   UNL     1     -45.938  62.704 -47.195  1.00  0.00     0.069 A 
HETATM   23  C   UNL     1     -45.064  63.745 -47.499  1.00  0.00     0.037 A 
BRANCH  22  24
HETATM   24  O   UNL     1     -46.830  62.680 -46.159  1.00  0.00    -0.356 OA
HETATM   25  C   UNL     1     -47.291  63.937 -45.678  1.00  0.00     0.210 C 
ENDBRANCH  22  24
ENDBRANCH  12  14
ENDBRANCH   9  12
ENDBRANCH   1   8
BRANCH   4  26
HETATM   26  C   UNL     1     -42.779  55.378 -56.628  1.00  0.00     0.257 C 
HETATM   27  N   UNL     1     -42.489  56.180 -57.704  1.00  0.00    -0.352 N 
HETATM   28  H   UNL     1     -42.057  57.083 -57.514  1.00  0.00     0.163 HD
HETATM   29  O   UNL     1     -43.409  54.328 -56.720  1.00  0.00    -0.267 OA
BRANCH  27  30
HETATM   30  C   UNL     1     -43.004  55.943 -59.046  1.00  0.00     0.084 C 
HETATM   31  C   UNL     1     -44.418  56.521 -59.202  1.00  0.00     0.025 C 
HETATM   32  C   UNL     1     -44.427  58.049 -59.225  1.00  0.00     0.002 C 
HETATM   33  C   UNL     1     -43.486  58.603 -60.291  1.00  0.00     0.000 C 
HETATM   34  C   UNL     1     -42.069  58.059 -60.135  1.00  0.00     0.002 C 
HETATM   35  C   UNL     1     -42.050  56.530 -60.096  1.00  0.00     0.025 C 
ENDBRANCH  27  30
ENDBRANCH   4  26
BRANCH   6  36
HETATM   36  C   UNL     1     -40.865  54.290 -52.255  1.00  0.00     0.089 A 
HETATM   37  C   UNL     1     -40.679  54.517 -50.777  1.00  0.00     0.028 A 
HETATM   38  C   UNL     1     -41.748  53.585 -51.258  1.00  0.00     0.028 A 
ENDBRANCH   6  36
TORSDOF 7
ENDMDL
MODEL 5
REMARK VINA RESULT:      -8.3      3.147      3.733
REMARK  7 active torsions:
REMARK  status: ('A' for Active; 'I' for Inactive)
REMARK    1  A    between atoms: C_2  and  N_3 
REMARK    2  A    between atoms: C_2  and  C_25 
REMARK       I    between atoms: N_3  and  C_4 
REMARK    3  A    between atoms: C_4  and  C_5 
REMARK    4  A    between atoms: C_8  and  C_9 
REMARK       I    between atoms: C_9  and  N_10 
REMARK    5  A    between atoms: N_10  and  C_11 
REMARK    6  A    between atoms: N_19  and  C_20 
REMARK    7  A    between atoms: C_33  and  O_34 
ROOT
HETATM    1  C   UNL     1     -43.107  58.441 -55.871  1.00  0.00     0.098 A 
HETATM    2  C   UNL     1     -44.230  59.368 -56.212  1.00  0.00     0.206 A 
HETATM    3  O   UNL     1     -44.475  60.346 -55.502  1.00  0.00    -0.286 OA
HETATM    4  C   UNL     1     -45.042  59.098 -57.437  1.00  0.00     0.098 A 
HETATM    5  C   UNL     1     -44.724  57.997 -58.140  1.00  0.00     0.112 A 
HETATM    6  N   UNL     1     -43.715  57.122 -57.786  1.00  0.00    -0.360 N 
HETATM    7  C   UNL     1     -42.919  57.391 -56.690  1.00  0.00     0.112 A 
ENDROOT
BRANCH   1   8
HETATM    8  C   UNL     1     -42.208  58.612 -54.693  1.00  0.00     0.257 C 
HETATM    9  N   UNL     1     -42.439  57.735 -53.670  1.00  0.00    -0.348 N 
HETATM   10  H   UNL     1     -43.192  57.058 -53.780  1.00  0.00     0.163 HD
HETATM   11  O   UNL     1     -41.330  59.468 -54.663  1.00  0.00    -0.267 OA
BRANCH   9  12
HETATM   12  C   UNL     1     -41.681  57.691 -52.433  1.00  0.00     0.114 C 
HETATM   13  C   UNL     1     -42.455  58.331 -51.282  1.00  0.00     0.037 C 
BRANCH  12  14
HETATM   14  C   UNL     1     -41.315  56.243 -52.143  1.00  0.00    -0.035 A 
HETATM   15  C   UNL     1     -41.095  55.324 -53.186  1.00  0.00     0.021 A 
HETATM   16  C   UNL     1     -40.651  54.017 -52.930  1.00  0.00    -0.025 A 
HETATM   17  C   UNL     1     -40.440  53.608 -51.597  1.00  0.00    -0.023 A 
HETATM   18  C   UNL     1     -40.394  53.113 -53.973  1.00  0.00     0.015 A 
HETATM   19  C   UNL     1     -40.685  54.516 -50.556  1.00  0.00     0.013 A 
HETATM   20  C   UNL     1     -39.976  52.305 -51.347  1.00  0.00     0.049 A 
HETATM   21  C   UNL     1     -41.110  55.820 -50.826  1.00  0.00     0.010 A 
HETATM   22  C   UNL     1     -39.710  51.415 -52.392  1.00  0.00     0.069 A 
HETATM   23  C   UNL     1     -39.925  51.823 -53.707  1.00  0.00     0.037 A 
BRANCH  22  24
HETATM   24  O   UNL     1     -39.248  50.190 -51.996  1.00  0.00    -0.356 OA
HETATM   25  C   UNL     1     -39.634  49.746 -50.701  1.00  0.00     0.210 C 
ENDBRANCH  22  24
ENDBRANCH  12  14
ENDBRANCH   9  12
ENDBRANCH   1   8
BRANCH   4  26
HETATM   26  C   UNL     1     -46.155  59.967 -57.914  1.00  0.00     0.257 C 
HETATM   27  N   UNL     1     -46.176  60.191 -59.269  1.00  0.00    -0.352 N 
HETATM   28  H   UNL     1     -45.386  59.847 -59.814  1.00  0.00     0.163 HD
HETATM   29  O   UNL     1     -46.983  60.439 -57.140  1.00  0.00    -0.267 OA
BRANCH  27  30
HETATM   30  C   UNL     1     -47.100  61.110 -59.919  1.00  0.00     0.084 C 
HETATM   31  C   UNL     1     -46.390  61.918 -61.014  1.00  0.00     0.025 C 
HETATM   32  C   UNL     1     -46.031  61.065 -62.231  1.00  0.00     0.002 C 
HETATM   33  C   UNL     1     -47.249  60.335 -62.788  1.00  0.00     0.000 C 
HETATM   34  C   UNL     1     -47.952  59.506 -61.718  1.00  0.00     0.002 C 
HETATM   35  C   UNL     1     -48.304  60.346 -60.489  1.00  0.00     0.025 C 
ENDBRANCH  27  30
ENDBRANCH   4  26
BRANCH   6  36
HETATM   36  C   UNL     1     -43.357  56.026 -58.696  1.00  0.00     0.089 A 
HETATM   37  C   UNL     1     -43.980  55.884 -60.061  1.00  0.00     0.028 A 
HETATM   38  C   UNL     1     -42.538  56.272 -59.938  1.00  0.00     0.028 A 
ENDBRANCH   6  36
TORSDOF 7
ENDMDL
MODEL 6
REMARK VINA RESULT:      -8.2      3.683      4.838
REMARK  7 active torsions:
REMARK  status: ('A' for Active; 'I' for Inactive)
REMARK    1  A    between atoms: C_2  and  N_3 
REMARK    2  A    between atoms: C_2  and  C_25 
REMARK       I    between atoms: N_3  and  C_4 
REMARK    3  A    between atoms: C_4  and  C_5 
REMARK    4  A    between atoms: C_8  and  C_9 
REMARK       I    between atoms: C_9  and  N_10 
REMARK    5  A    between atoms: N_10  and  C_11 
REMARK    6  A    between atoms: N_19  and  C_20 
REMARK    7  A    between atoms: C_33  and  O_34 
ROOT
HETATM    1  C   UNL     1     -43.929  58.613 -57.348  1.00  0.00     0.098 A 
HETATM    2  C   UNL     1     -44.955  59.657 -57.655  1.00  0.00     0.206 A 
HETATM    3  O   UNL     1     -45.084  60.645 -56.928  1.00  0.00    -0.286 OA
HETATM    4  C   UNL     1     -45.811  59.492 -58.868  1.00  0.00     0.098 A 
HETATM    5  C   UNL     1     -45.621  58.375 -59.592  1.00  0.00     0.112 A 
HETATM    6  N   UNL     1     -44.704  57.395 -59.268  1.00  0.00    -0.360 N 
HETATM    7  C   UNL     1     -43.866  57.563 -58.184  1.00  0.00     0.112 A 
ENDROOT
BRANCH   1   8
HETATM    8  C   UNL     1     -42.997  58.672 -56.184  1.00  0.00     0.257 C 
HETATM    9  N   UNL     1     -43.261  57.762 -55.199  1.00  0.00    -0.348 N 
HETATM   10  H   UNL     1     -44.056  57.137 -55.324  1.00  0.00     0.163 HD
HETATM   11  O   UNL     1     -42.067  59.471 -56.134  1.00  0.00    -0.267 OA
BRANCH   9  12
HETATM   12  C   UNL     1     -42.481  57.611 -53.984  1.00  0.00     0.114 C 
HETATM   13  C   UNL     1     -43.352  57.778 -52.739  1.00  0.00     0.037 C 
BRANCH  12  14
HETATM   14  C   UNL     1     -41.787  56.258 -54.020  1.00  0.00    -0.035 A 
HETATM   15  C   UNL     1     -41.403  55.604 -52.833  1.00  0.00     0.021 A 
HETATM   16  C   UNL     1     -40.861  54.309 -52.852  1.00  0.00    -0.025 A 
HETATM   17  C   UNL     1     -40.678  53.656 -54.087  1.00  0.00    -0.023 A 
HETATM   18  C   UNL     1     -40.516  53.644 -51.666  1.00  0.00     0.015 A 
HETATM   19  C   UNL     1     -41.036  54.318 -55.272  1.00  0.00     0.013 A 
HETATM   20  C   UNL     1     -40.155  52.352 -54.100  1.00  0.00     0.049 A 
HETATM   21  C   UNL     1     -41.590  55.600 -55.238  1.00  0.00     0.010 A 
HETATM   22  C   UNL     1     -39.825  51.690 -52.913  1.00  0.00     0.069 A 
HETATM   23  C   UNL     1     -40.003  52.342 -51.696  1.00  0.00     0.037 A 
BRANCH  22  24
HETATM   24  O   UNL     1     -39.343  50.420 -53.082  1.00  0.00    -0.356 OA
HETATM   25  C   UNL     1     -39.513  49.834 -54.366  1.00  0.00     0.210 C 
ENDBRANCH  22  24
ENDBRANCH  12  14
ENDBRANCH   9  12
ENDBRANCH   1   8
BRANCH   4  26
HETATM   26  C   UNL     1     -46.836  60.479 -59.313  1.00  0.00     0.257 C 
HETATM   27  N   UNL     1     -47.841  60.718 -58.409  1.00  0.00    -0.352 N 
HETATM   28  H   UNL     1     -47.870  60.135 -57.572  1.00  0.00     0.163 HD
HETATM   29  O   UNL     1     -46.771  61.028 -60.409  1.00  0.00    -0.267 OA
BRANCH  27  30
HETATM   30  C   UNL     1     -49.003  61.547 -58.698  1.00  0.00     0.084 C 
HETATM   31  C   UNL     1     -50.302  60.739 -58.562  1.00  0.00     0.025 C 
HETATM   32  C   UNL     1     -50.628  60.395 -57.109  1.00  0.00     0.002 C 
HETATM   33  C   UNL     1     -50.661  61.641 -56.228  1.00  0.00     0.000 C 
HETATM   34  C   UNL     1     -49.367  62.442 -56.330  1.00  0.00     0.002 C 
HETATM   35  C   UNL     1     -49.023  62.780 -57.782  1.00  0.00     0.025 C 
ENDBRANCH  27  30
ENDBRANCH   4  26
BRANCH   6  36
HETATM   36  C   UNL     1     -44.477  56.282 -60.200  1.00  0.00     0.089 A 
HETATM   37  C   UNL     1     -44.353  54.856 -59.727  1.00  0.00     0.028 A 
HETATM   38  C   UNL     1     -45.561  55.279 -60.506  1.00  0.00     0.028 A 
ENDBRANCH   6  36
TORSDOF 7
ENDMDL
MODEL 7
REMARK VINA RESULT:      -8.2      3.189      5.059
REMARK  7 active torsions:
REMARK  status: ('A' for Active; 'I' for Inactive)
REMARK    1  A    between atoms: C_2  and  N_3 
REMARK    2  A    between atoms: C_2  and  C_25 
REMARK       I    between atoms: N_3  and  C_4 
REMARK    3  A    between atoms: C_4  and  C_5 
REMARK    4  A    between atoms: C_8  and  C_9 
REMARK       I    between atoms: C_9  and  N_10 
REMARK    5  A    between atoms: N_10  and  C_11 
REMARK    6  A    between atoms: N_19  and  C_20 
REMARK    7  A    between atoms: C_33  and  O_34 
ROOT
HETATM    1  C   UNL     1     -44.286  59.742 -54.543  1.00  0.00     0.098 A 
HETATM    2  C   UNL     1     -44.022  59.361 -55.965  1.00  0.00     0.206 A 
HETATM    3  O   UNL     1     -43.123  58.564 -56.245  1.00  0.00    -0.286 OA
HETATM    4  C   UNL     1     -44.876  59.949 -57.040  1.00  0.00     0.098 A 
HETATM    5  C   UNL     1     -45.816  60.827 -56.651  1.00  0.00     0.112 A 
HETATM    6  N   UNL     1     -46.016  61.208 -55.338  1.00  0.00    -0.360 N 
HETATM    7  C   UNL     1     -45.274  60.628 -54.328  1.00  0.00     0.112 A 
ENDROOT
BRANCH   1   8
HETATM    8  C   UNL     1     -43.525  59.208 -53.377  1.00  0.00     0.257 C 
HETATM    9  N   UNL     1     -42.168  59.350 -53.472  1.00  0.00    -0.348 N 
HETATM   10  H   UNL     1     -41.789  59.786 -54.311  1.00  0.00     0.163 HD
HETATM   11  O   UNL     1     -44.084  58.696 -52.413  1.00  0.00    -0.267 OA
BRANCH   9  12
HETATM   12  C   UNL     1     -41.220  58.930 -52.456  1.00  0.00     0.114 C 
HETATM   13  C   UNL     1     -41.579  59.507 -51.087  1.00  0.00     0.037 C 
BRANCH  12  14
HETATM   14  C   UNL     1     -41.169  57.410 -52.441  1.00  0.00    -0.035 A 
HETATM   15  C   UNL     1     -40.894  56.679 -53.613  1.00  0.00     0.021 A 
HETATM   16  C   UNL     1     -40.736  55.284 -53.587  1.00  0.00    -0.025 A 
HETATM   17  C   UNL     1     -40.878  54.596 -52.365  1.00  0.00    -0.023 A 
HETATM   18  C   UNL     1     -40.423  54.561 -54.748  1.00  0.00     0.015 A 
HETATM   19  C   UNL     1     -41.179  55.321 -51.201  1.00  0.00     0.013 A 
HETATM   20  C   UNL     1     -40.699  53.203 -52.340  1.00  0.00     0.049 A 
HETATM   21  C   UNL     1     -41.315  56.712 -51.238  1.00  0.00     0.010 A 
HETATM   22  C   UNL     1     -40.374  52.490 -53.498  1.00  0.00     0.069 A 
HETATM   23  C   UNL     1     -40.241  53.174 -54.704  1.00  0.00     0.037 A 
BRANCH  22  24
HETATM   24  O   UNL     1     -40.215  51.144 -53.316  1.00  0.00    -0.356 OA
HETATM   25  C   UNL     1     -40.060  50.351 -54.486  1.00  0.00     0.210 C 
ENDBRANCH  22  24
ENDBRANCH  12  14
ENDBRANCH   9  12
ENDBRANCH   1   8
BRANCH   4  26
HETATM   26  C   UNL     1     -44.748  59.617 -58.488  1.00  0.00     0.257 C 
HETATM   27  N   UNL     1     -44.488  58.296 -58.759  1.00  0.00    -0.352 N 
HETATM   28  H   UNL     1     -44.296  57.682 -57.967  1.00  0.00     0.163 HD
HETATM   29  O   UNL     1     -44.870  60.472 -59.360  1.00  0.00    -0.267 OA
BRANCH  27  30
HETATM   30  C   UNL     1     -44.203  57.789 -60.094  1.00  0.00     0.084 C 
HETATM   31  C   UNL     1     -42.948  56.905 -60.089  1.00  0.00     0.025 C 
HETATM   32  C   UNL     1     -43.178  55.566 -59.387  1.00  0.00     0.002 C 
HETATM   33  C   UNL     1     -44.374  54.821 -59.971  1.00  0.00     0.000 C 
HETATM   34  C   UNL     1     -45.636  55.676 -59.959  1.00  0.00     0.002 C 
HETATM   35  C   UNL     1     -45.414  57.025 -60.648  1.00  0.00     0.025 C 
ENDBRANCH  27  30
ENDBRANCH   4  26
BRANCH   6  36
HETATM   36  C   UNL     1     -47.160  62.067 -55.002  1.00  0.00     0.089 A 
HETATM   37  C   UNL     1     -47.472  62.464 -53.583  1.00  0.00     0.028 A 
HETATM   38  C   UNL     1     -46.967  63.491 -54.548  1.00  0.00     0.028 A 
ENDBRANCH   6  36
TORSDOF 7
ENDMDL
MODEL 8
REMARK VINA RESULT:      -8.2      3.089      9.088
REMARK  7 active torsions:
REMARK  status: ('A' for Active; 'I' for Inactive)
REMARK    1  A    between atoms: C_2  and  N_3 
REMARK    2  A    between atoms: C_2  and  C_25 
REMARK       I    between atoms: N_3  and  C_4 
REMARK    3  A    between atoms: C_4  and  C_5 
REMARK    4  A    between atoms: C_8  and  C_9 
REMARK       I    between atoms: C_9  and  N_10 
REMARK    5  A    between atoms: N_10  and  C_11 
REMARK    6  A    between atoms: N_19  and  C_20 
REMARK    7  A    between atoms: C_33  and  O_34 
ROOT
HETATM    1  C   UNL     1     -42.803  61.353 -54.306  1.00  0.00     0.098 A 
HETATM    2  C   UNL     1     -42.086  60.140 -53.803  1.00  0.00     0.206 A 
HETATM    3  O   UNL     1     -41.612  59.319 -54.591  1.00  0.00    -0.286 OA
HETATM    4  C   UNL     1     -41.940  59.948 -52.329  1.00  0.00     0.098 A 
HETATM    5  C   UNL     1     -42.507  60.878 -51.541  1.00  0.00     0.112 A 
HETATM    6  N   UNL     1     -43.209  61.967 -52.018  1.00  0.00    -0.360 N 
HETATM    7  C   UNL     1     -43.301  62.189 -53.378  1.00  0.00     0.112 A 
ENDROOT
BRANCH   1   8
HETATM    8  C   UNL     1     -42.994  61.674 -55.750  1.00  0.00     0.257 C 
HETATM    9  N   UNL     1     -41.922  61.374 -56.544  1.00  0.00    -0.348 N 
HETATM   10  H   UNL     1     -41.095  60.975 -56.103  1.00  0.00     0.163 HD
HETATM   11  O   UNL     1     -44.037  62.159 -56.177  1.00  0.00    -0.267 OA
BRANCH   9  12
HETATM   12  C   UNL     1     -41.878  61.573 -57.982  1.00  0.00     0.114 C 
HETATM   13  C   UNL     1     -40.482  61.987 -58.444  1.00  0.00     0.037 C 
BRANCH  12  14
HETATM   14  C   UNL     1     -42.352  60.298 -58.661  1.00  0.00    -0.035 A 
HETATM   15  C   UNL     1     -42.283  59.054 -58.006  1.00  0.00     0.021 A 
HETATM   16  C   UNL     1     -42.818  57.891 -58.582  1.00  0.00    -0.025 A 
HETATM   17  C   UNL     1     -43.420  57.965 -59.854  1.00  0.00    -0.023 A 
HETATM   18  C   UNL     1     -42.782  56.659 -57.911  1.00  0.00     0.015 A 
HETATM   19  C   UNL     1     -43.466  59.200 -60.520  1.00  0.00     0.013 A 
HETATM   20  C   UNL     1     -43.972  56.802 -60.418  1.00  0.00     0.049 A 
HETATM   21  C   UNL     1     -42.945  60.353 -59.927  1.00  0.00     0.010 A 
HETATM   22  C   UNL     1     -43.945  55.581 -59.738  1.00  0.00     0.069 A 
HETATM   23  C   UNL     1     -43.344  55.512 -58.483  1.00  0.00     0.037 A 
BRANCH  22  24
HETATM   24  O   UNL     1     -44.536  54.542 -60.404  1.00  0.00    -0.356 OA
HETATM   25  C   UNL     1     -45.086  54.830 -61.683  1.00  0.00     0.210 C 
ENDBRANCH  22  24
ENDBRANCH  12  14
ENDBRANCH   9  12
ENDBRANCH   1   8
BRANCH   4  26
HETATM   26  C   UNL     1     -41.210  58.811 -51.699  1.00  0.00     0.257 C 
HETATM   27  N   UNL     1     -41.692  57.565 -52.017  1.00  0.00    -0.352 N 
HETATM   28  H   UNL     1     -42.558  57.519 -52.554  1.00  0.00     0.163 HD
HETATM   29  O   UNL     1     -40.251  58.992 -50.954  1.00  0.00    -0.267 OA
BRANCH  27  30
HETATM   30  C   UNL     1     -41.205  56.334 -51.410  1.00  0.00     0.084 C 
HETATM   31  C   UNL     1     -42.131  55.879 -50.273  1.00  0.00     0.025 C 
HETATM   32  C   UNL     1     -43.474  55.359 -50.785  1.00  0.00     0.002 C 
HETATM   33  C   UNL     1     -43.294  54.255 -51.823  1.00  0.00     0.000 C 
HETATM   34  C   UNL     1     -42.398  54.700 -52.974  1.00  0.00     0.002 C 
HETATM   35  C   UNL     1     -41.055  55.236 -52.472  1.00  0.00     0.025 C 
ENDBRANCH  27  30
ENDBRANCH   4  26
BRANCH   6  36
HETATM   36  C   UNL     1     -43.670  62.998 -51.079  1.00  0.00     0.089 A 
HETATM   37  C   UNL     1     -42.783  63.543 -49.990  1.00  0.00     0.028 A 
HETATM   38  C   UNL     1     -43.156  64.413 -51.150  1.00  0.00     0.028 A 
ENDBRANCH   6  36
TORSDOF 7
ENDMDL
MODEL 9
REMARK VINA RESULT:      -8.1      3.725      8.822
REMARK  7 active torsions:
REMARK  status: ('A' for Active; 'I' for Inactive)
REMARK    1  A    between atoms: C_2  and  N_3 
REMARK    2  A    between atoms: C_2  and  C_25 
REMARK       I    between atoms: N_3  and  C_4 
REMARK    3  A    between atoms: C_4  and  C_5 
REMARK    4  A    between atoms: C_8  and  C_9 
REMARK       I    between atoms: C_9  and  N_10 
REMARK    5  A    between atoms: N_10  and  C_11 
REMARK    6  A    between atoms: N_19  and  C_20 
REMARK    7  A    between atoms: C_33  and  O_34 
ROOT
HETATM    1  C   UNL     1     -42.470  58.473 -56.248  1.00  0.00     0.098 A 
HETATM    2  C   UNL     1     -42.608  57.408 -55.207  1.00  0.00     0.206 A 
HETATM    3  O   UNL     1     -42.547  57.690 -54.007  1.00  0.00    -0.286 OA
HETATM    4  C   UNL     1     -42.837  55.998 -55.643  1.00  0.00     0.098 A 
HETATM    5  C   UNL     1     -42.866  55.775 -56.968  1.00  0.00     0.112 A 
HETATM    6  N   UNL     1     -42.687  56.760 -57.919  1.00  0.00    -0.360 N 
HETATM    7  C   UNL     1     -42.534  58.077 -57.530  1.00  0.00     0.112 A 
ENDROOT
BRANCH   1   8
HETATM    8  C   UNL     1     -42.264  59.919 -55.944  1.00  0.00     0.257 C 
HETATM    9  N   UNL     1     -42.952  60.374 -54.854  1.00  0.00    -0.348 N 
HETATM   10  H   UNL     1     -43.544  59.714 -54.351  1.00  0.00     0.163 HD
HETATM   11  O   UNL     1     -41.526  60.628 -56.621  1.00  0.00    -0.267 OA
BRANCH   9  12
HETATM   12  C   UNL     1     -42.895  61.733 -54.349  1.00  0.00     0.114 C 
HETATM   13  C   UNL     1     -43.864  62.647 -55.098  1.00  0.00     0.037 C 
BRANCH  12  14
HETATM   14  C   UNL     1     -43.172  61.706 -52.854  1.00  0.00    -0.035 A 
HETATM   15  C   UNL     1     -43.965  62.696 -52.242  1.00  0.00     0.021 A 
HETATM   16  C   UNL     1     -44.316  62.619 -50.885  1.00  0.00    -0.025 A 
HETATM   17  C   UNL     1     -43.848  61.537 -50.111  1.00  0.00    -0.023 A 
HETATM   18  C   UNL     1     -45.138  63.585 -50.286  1.00  0.00     0.015 A 
HETATM   19  C   UNL     1     -43.036  60.564 -50.715  1.00  0.00     0.013 A 
HETATM   20  C   UNL     1     -44.219  61.453 -48.759  1.00  0.00     0.049 A 
HETATM   21  C   UNL     1     -42.708  60.644 -52.071  1.00  0.00     0.010 A 
HETATM   22  C   UNL     1     -45.049  62.412 -48.172  1.00  0.00     0.069 A 
HETATM   23  C   UNL     1     -45.505  63.482 -48.939  1.00  0.00     0.037 A 
BRANCH  22  24
HETATM   24  O   UNL     1     -45.338  62.189 -46.853  1.00  0.00    -0.356 OA
HETATM   25  C   UNL     1     -44.963  60.926 -46.319  1.00  0.00     0.210 C 
ENDBRANCH  22  24
ENDBRANCH  12  14
ENDBRANCH   9  12
ENDBRANCH   1   8
BRANCH   4  26
HETATM   26  C   UNL     1     -43.038  54.853 -54.710  1.00  0.00     0.257 C 
HETATM   27  N   UNL     1     -42.319  54.924 -53.542  1.00  0.00    -0.352 N 
HETATM   28  H   UNL     1     -41.637  55.677 -53.455  1.00  0.00     0.163 HD
HETATM   29  O   UNL     1     -43.794  53.924 -54.980  1.00  0.00    -0.267 OA
BRANCH  27  30
HETATM   30  C   UNL     1     -42.274  53.851 -52.558  1.00  0.00     0.084 C 
HETATM   31  C   UNL     1     -40.926  53.835 -51.825  1.00  0.00     0.025 C 
HETATM   32  C   UNL     1     -40.763  55.019 -50.872  1.00  0.00     0.002 C 
HETATM   33  C   UNL     1     -41.923  55.114 -49.886  1.00  0.00     0.000 C 
HETATM   34  C   UNL     1     -43.271  55.158 -50.599  1.00  0.00     0.002 C 
HETATM   35  C   UNL     1     -43.439  53.985 -51.566  1.00  0.00     0.025 C 
ENDBRANCH  27  30
ENDBRANCH   4  26
BRANCH   6  36
HETATM   36  C   UNL     1     -42.875  56.437 -59.339  1.00  0.00     0.089 A 
HETATM   37  C   UNL     1     -43.728  55.279 -59.790  1.00  0.00     0.028 A 
HETATM   38  C   UNL     1     -44.190  56.683 -60.035  1.00  0.00     0.028 A 
ENDBRANCH   6  36
TORSDOF 7
ENDMDL
MODEL 10
REMARK VINA RESULT:      -8.0      4.015     10.430
REMARK  7 active torsions:
REMARK  status: ('A' for Active; 'I' for Inactive)
REMARK    1  A    between atoms: C_2  and  N_3 
REMARK    2  A    between atoms: C_2  and  C_25 
REMARK       I    between atoms: N_3  and  C_4 
REMARK    3  A    between atoms: C_4  and  C_5 
REMARK    4  A    between atoms: C_8  and  C_9 
REMARK       I    between atoms: C_9  and  N_10 
REMARK    5  A    between atoms: N_10  and  C_11 
REMARK    6  A    between atoms: N_19  and  C_20 
REMARK    7  A    between atoms: C_33  and  O_34 
ROOT
HETATM    1  C   UNL     1     -44.072  58.677 -55.276  1.00  0.00     0.098 A 
HETATM    2  C   UNL     1     -43.978  57.655 -54.188  1.00  0.00     0.206 A 
HETATM    3  O   UNL     1     -43.493  56.544 -54.411  1.00  0.00    -0.286 OA
HETATM    4  C   UNL     1     -44.467  58.009 -52.822  1.00  0.00     0.098 A 
HETATM    5  C   UNL     1     -45.004  59.233 -52.672  1.00  0.00     0.112 A 
HETATM    6  N   UNL     1     -45.130  60.149 -53.698  1.00  0.00    -0.360 N 
HETATM    7  C   UNL     1     -44.628  59.857 -54.951  1.00  0.00     0.112 A 
ENDROOT
BRANCH   1   8
HETATM    8  C   UNL     1     -43.598  58.459 -56.674  1.00  0.00     0.257 C 
HETATM    9  N   UNL     1     -44.124  57.356 -57.286  1.00  0.00    -0.348 N 
HETATM   10  H   UNL     1     -44.774  56.777 -56.756  1.00  0.00     0.163 HD
HETATM   11  O   UNL     1     -42.806  59.221 -57.220  1.00  0.00    -0.267 OA
BRANCH   9  12
HETATM   12  C   UNL     1     -43.833  56.950 -58.649  1.00  0.00     0.114 C 
HETATM   13  C   UNL     1     -43.163  55.577 -58.690  1.00  0.00     0.037 C 
BRANCH  12  14
HETATM   14  C   UNL     1     -45.126  56.981 -59.449  1.00  0.00    -0.035 A 
HETATM   15  C   UNL     1     -45.779  58.196 -59.733  1.00  0.00     0.021 A 
HETATM   16  C   UNL     1     -46.911  58.244 -60.562  1.00  0.00    -0.025 A 
HETATM   17  C   UNL     1     -47.419  57.047 -61.107  1.00  0.00    -0.023 A 
HETATM   18  C   UNL     1     -47.537  59.460 -60.875  1.00  0.00     0.015 A 
HETATM   19  C   UNL     1     -46.784  55.833 -60.803  1.00  0.00     0.013 A 
HETATM   20  C   UNL     1     -48.539  57.102 -61.952  1.00  0.00     0.049 A 
HETATM   21  C   UNL     1     -45.647  55.801 -59.990  1.00  0.00     0.010 A 
HETATM   22  C   UNL     1     -49.150  58.319 -62.271  1.00  0.00     0.069 A 
HETATM   23  C   UNL     1     -48.648  59.498 -61.725  1.00  0.00     0.037 A 
BRANCH  22  24
HETATM   24  O   UNL     1     -50.219  58.217 -63.118  1.00  0.00    -0.356 OA
HETATM   25  C   UNL     1     -51.417  58.875 -62.724  1.00  0.00     0.210 C 
ENDBRANCH  22  24
ENDBRANCH  12  14
ENDBRANCH   9  12
ENDBRANCH   1   8
BRANCH   4  26
HETATM   26  C   UNL     1     -44.388  57.102 -51.642  1.00  0.00     0.257 C 
HETATM   27  N   UNL     1     -43.332  56.224 -51.655  1.00  0.00    -0.352 N 
HETATM   28  H   UNL     1     -42.764  56.186 -52.500  1.00  0.00     0.163 HD
HETATM   29  O   UNL     1     -45.213  57.150 -50.734  1.00  0.00    -0.267 OA
BRANCH  27  30
HETATM   30  C   UNL     1     -43.147  55.173 -50.664  1.00  0.00     0.084 C 
HETATM   31  C   UNL     1     -42.960  53.808 -51.341  1.00  0.00     0.025 C 
HETATM   32  C   UNL     1     -41.611  53.686 -52.051  1.00  0.00     0.002 C 
HETATM   33  C   UNL     1     -40.450  53.998 -51.112  1.00  0.00     0.000 C 
HETATM   34  C   UNL     1     -40.606  55.364 -50.451  1.00  0.00     0.002 C 
HETATM   35  C   UNL     1     -41.959  55.502 -49.749  1.00  0.00     0.025 C 
ENDBRANCH  27  30
ENDBRANCH   4  26
BRANCH   6  36
HETATM   36  C   UNL     1     -45.602  61.507 -53.400  1.00  0.00     0.089 A 
HETATM   37  C   UNL     1     -46.340  62.339 -54.416  1.00  0.00     0.028 A 
HETATM   38  C   UNL     1     -47.068  61.808 -53.220  1.00  0.00     0.028 A 
ENDBRANCH   6  36
TORSDOF 7
ENDMDL
