MODEL 1
REMARK VINA RESULT:      -7.8      0.000      0.000
REMARK  10 active torsions:
REMARK  status: ('A' for Active; 'I' for Inactive)
REMARK    1  A    between atoms: C_2  and  N_3 
REMARK    2  A    between atoms: N_3  and  N_4 
REMARK       I    between atoms: N_4  and  C_5 
REMARK    3  A    between atoms: C_5  and  C_6 
REMARK    4  A    between atoms: C_7  and  N_8 
REMARK    5  A    between atoms: C_14  and  C_15 
REMARK       I    between atoms: C_15  and  N_16 
REMARK    6  A    between atoms: N_16  and  C_17 
REMARK    7  A    between atoms: C_17  and  C_18 
REMARK    8  A    between atoms: C_18  and  C_19 
REMARK    9  A    between atoms: C_21  and  O_22 
REMARK   10  A    between atoms: C_24  and  O_25 
ROOT
HETATM    1  C   UNL     1     -43.038  54.275 -54.771  1.00  0.00     0.070 C 
HETATM    2  C   UNL     1     -41.717  54.657 -55.402  1.00  0.00     0.027 C 
HETATM    3  C   UNL     1     -40.564  54.038 -55.069  1.00  0.00     0.100 C 
ENDROOT
BRANCH   2   4
HETATM    4  N   UNL     1     -41.804  55.672 -56.345  1.00  0.00    -0.302 N 
HETATM    5  H   UNL     1     -41.008  56.323 -56.368  1.00  0.00     0.186 HD
BRANCH   4   6
HETATM    6  N   UNL     1     -42.443  55.548 -57.581  1.00  0.00    -0.266 N 
HETATM    7  C   UNL     1     -43.005  56.707 -58.093  1.00  0.00     0.271 C 
HETATM    8  O   UNL     1     -42.633  57.838 -57.798  1.00  0.00    -0.266 OA
HETATM    9  H   UNL     1     -42.946  54.674 -57.736  1.00  0.00     0.190 HD
BRANCH   7  10
HETATM   10  C   UNL     1     -44.132  56.489 -59.041  1.00  0.00     0.054 A 
HETATM   11  C   UNL     1     -45.323  57.243 -58.977  1.00  0.00     0.021 A 
HETATM   12  C   UNL     1     -46.386  56.871 -59.811  1.00  0.00     0.024 A 
HETATM   13  C   UNL     1     -46.227  55.870 -60.774  1.00  0.00     0.002 A 
HETATM   14  C   UNL     1     -45.012  55.199 -60.892  1.00  0.00     0.001 A 
HETATM   15  C   UNL     1     -43.966  55.501 -60.022  1.00  0.00     0.019 A 
BRANCH  11  16
HETATM   16  N   UNL     1     -45.555  58.225 -57.986  1.00  0.00    -0.302 NA
HETATM   17  H   UNL     1     -46.553  58.419 -57.868  1.00  0.00     0.124 HD
HETATM   18  H   UNL     1     -45.152  57.972 -57.086  1.00  0.00     0.124 HD
ENDBRANCH  11  16
ENDBRANCH   7  10
ENDBRANCH   4   6
ENDBRANCH   2   4
BRANCH   3  19
HETATM   19  C   UNL     1     -40.425  52.918 -54.096  1.00  0.00     0.243 C 
HETATM   20  N   UNL     1     -40.121  53.357 -52.828  1.00  0.00    -0.357 N 
HETATM   21  H   UNL     1     -40.053  54.345 -52.635  1.00  0.00     0.162 HD
HETATM   22  O   UNL     1     -40.551  51.738 -54.388  1.00  0.00    -0.269 OA
BRANCH  20  23
HETATM   23  C   UNL     1     -39.949  52.433 -51.722  1.00  0.00     0.127 C 
BRANCH  23  24
HETATM   24  C   UNL     1     -40.551  52.956 -50.414  1.00  0.00     0.058 C 
BRANCH  24  25
HETATM   25  C   UNL     1     -41.364  54.208 -50.638  1.00  0.00    -0.054 A 
HETATM   26  C   UNL     1     -40.812  55.472 -50.377  1.00  0.00     0.046 A 
HETATM   27  C   UNL     1     -41.572  56.637 -50.545  1.00  0.00     0.102 A 
HETATM   28  C   UNL     1     -42.908  56.538 -50.983  1.00  0.00     0.101 A 
HETATM   29  C   UNL     1     -43.453  55.278 -51.254  1.00  0.00     0.040 A 
HETATM   30  C   UNL     1     -42.688  54.123 -51.079  1.00  0.00     0.010 A 
BRANCH  27  31
HETATM   31  O   UNL     1     -41.110  57.907 -50.303  1.00  0.00    -0.353 OA
HETATM   32  C   UNL     1     -40.263  58.499 -51.276  1.00  0.00     0.210 C 
ENDBRANCH  27  31
BRANCH  28  33
HETATM   33  O   UNL     1     -43.591  57.722 -51.118  1.00  0.00    -0.353 OA
HETATM   34  C   UNL     1     -44.990  57.653 -51.347  1.00  0.00     0.210 C 
ENDBRANCH  28  33
ENDBRANCH  24  25
ENDBRANCH  23  24
ENDBRANCH  20  23
ENDBRANCH   3  19
TORSDOF 10
ENDMDL
MODEL 2
REMARK VINA RESULT:      -7.5      2.159      2.978
REMARK  10 active torsions:
REMARK  status: ('A' for Active; 'I' for Inactive)
REMARK    1  A    between atoms: C_2  and  N_3 
REMARK    2  A    between atoms: N_3  and  N_4 
REMARK       I    between atoms: N_4  and  C_5 
REMARK    3  A    between atoms: C_5  and  C_6 
REMARK    4  A    between atoms: C_7  and  N_8 
REMARK    5  A    between atoms: C_14  and  C_15 
REMARK       I    between atoms: C_15  and  N_16 
REMARK    6  A    between atoms: N_16  and  C_17 
REMARK    7  A    between atoms: C_17  and  C_18 
REMARK    8  A    between atoms: C_18  and  C_19 
REMARK    9  A    between atoms: C_21  and  O_22 
REMARK   10  A    between atoms: C_24  and  O_25 
ROOT
HETATM    1  C   UNL     1     -41.858  56.234 -55.037  1.00  0.00     0.070 C 
HETATM    2  C   UNL     1     -42.491  54.913 -55.416  1.00  0.00     0.027 C 
HETATM    3  C   UNL     1     -42.328  53.804 -54.663  1.00  0.00     0.100 C 
ENDROOT
BRANCH   2   4
HETATM    4  N   UNL     1     -43.251  54.954 -56.577  1.00  0.00    -0.302 N 
HETATM    5  H   UNL     1     -43.974  54.227 -56.656  1.00  0.00     0.186 HD
BRANCH   4   6
HETATM    6  N   UNL     1     -43.576  56.124 -57.266  1.00  0.00    -0.266 N 
HETATM    7  C   UNL     1     -43.571  56.034 -58.650  1.00  0.00     0.271 C 
HETATM    8  O   UNL     1     -43.734  54.989 -59.270  1.00  0.00    -0.266 OA
HETATM    9  H   UNL     1     -43.240  56.993 -56.851  1.00  0.00     0.190 HD
BRANCH   7  10
HETATM   10  C   UNL     1     -43.334  57.321 -59.359  1.00  0.00     0.054 A 
HETATM   11  C   UNL     1     -42.204  57.530 -60.178  1.00  0.00     0.021 A 
HETATM   12  C   UNL     1     -41.984  58.818 -60.685  1.00  0.00     0.024 A 
HETATM   13  C   UNL     1     -42.927  59.833 -60.499  1.00  0.00     0.002 A 
HETATM   14  C   UNL     1     -44.087  59.586 -59.769  1.00  0.00     0.001 A 
HETATM   15  C   UNL     1     -44.289  58.334 -59.192  1.00  0.00     0.019 A 
BRANCH  11  16
HETATM   16  N   UNL     1     -41.194  56.555 -60.351  1.00  0.00    -0.302 NA
HETATM   17  H   UNL     1     -40.418  56.691 -59.698  1.00  0.00     0.124 HD
HETATM   18  H   UNL     1     -41.550  55.606 -60.260  1.00  0.00     0.124 HD
ENDBRANCH  11  16
ENDBRANCH   7  10
ENDBRANCH   4   6
ENDBRANCH   2   4
BRANCH   3  19
HETATM   19  C   UNL     1     -41.558  53.719 -53.390  1.00  0.00     0.243 C 
HETATM   20  N   UNL     1     -42.327  54.020 -52.289  1.00  0.00    -0.357 N 
HETATM   21  H   UNL     1     -43.309  54.228 -52.395  1.00  0.00     0.162 HD
HETATM   22  O   UNL     1     -40.373  53.429 -53.325  1.00  0.00    -0.269 OA
BRANCH  20  23
HETATM   23  C   UNL     1     -41.778  53.989 -50.945  1.00  0.00     0.127 C 
BRANCH  23  24
HETATM   24  C   UNL     1     -42.225  55.184 -50.097  1.00  0.00     0.058 C 
BRANCH  24  25
HETATM   25  C   UNL     1     -42.184  56.472 -50.883  1.00  0.00    -0.054 A 
HETATM   26  C   UNL     1     -40.978  57.173 -51.039  1.00  0.00     0.046 A 
HETATM   27  C   UNL     1     -40.938  58.388 -51.735  1.00  0.00     0.102 A 
HETATM   28  C   UNL     1     -42.123  58.913 -52.287  1.00  0.00     0.101 A 
HETATM   29  C   UNL     1     -43.322  58.206 -52.141  1.00  0.00     0.040 A 
HETATM   30  C   UNL     1     -43.352  56.998 -51.442  1.00  0.00     0.010 A 
BRANCH  27  31
HETATM   31  O   UNL     1     -39.803  59.139 -51.922  1.00  0.00    -0.353 OA
HETATM   32  C   UNL     1     -38.994  59.406 -50.786  1.00  0.00     0.210 C 
ENDBRANCH  27  31
BRANCH  28  33
HETATM   33  O   UNL     1     -42.006  60.110 -52.949  1.00  0.00    -0.353 OA
HETATM   34  C   UNL     1     -42.112  60.093 -54.365  1.00  0.00     0.210 C 
ENDBRANCH  28  33
ENDBRANCH  24  25
ENDBRANCH  23  24
ENDBRANCH  20  23
ENDBRANCH   3  19
TORSDOF 10
ENDMDL
MODEL 3
REMARK VINA RESULT:      -7.5      4.236      8.414
REMARK  10 active torsions:
REMARK  status: ('A' for Active; 'I' for Inactive)
REMARK    1  A    between atoms: C_2  and  N_3 
REMARK    2  A    between atoms: N_3  and  N_4 
REMARK       I    between atoms: N_4  and  C_5 
REMARK    3  A    between atoms: C_5  and  C_6 
REMARK    4  A    between atoms: C_7  and  N_8 
REMARK    5  A    between atoms: C_14  and  C_15 
REMARK       I    between atoms: C_15  and  N_16 
REMARK    6  A    between atoms: N_16  and  C_17 
REMARK    7  A    between atoms: C_17  and  C_18 
REMARK    8  A    between atoms: C_18  and  C_19 
REMARK    9  A    between atoms: C_21  and  O_22 
REMARK   10  A    between atoms: C_24  and  O_25 
ROOT
HETATM    1  C   UNL     1     -43.265  57.181 -51.243  1.00  0.00     0.070 C 
HETATM    2  C   UNL     1     -43.236  58.423 -52.107  1.00  0.00     0.027 C 
HETATM    3  C   UNL     1     -42.544  58.469 -53.265  1.00  0.00     0.100 C 
ENDROOT
BRANCH   2   4
HETATM    4  N   UNL     1     -43.988  59.481 -51.613  1.00  0.00    -0.302 N 
HETATM    5  H   UNL     1     -44.888  59.641 -52.085  1.00  0.00     0.186 HD
BRANCH   4   6
HETATM    6  N   UNL     1     -43.991  59.892 -50.278  1.00  0.00    -0.266 N 
HETATM    7  C   UNL     1     -45.234  59.960 -49.667  1.00  0.00     0.271 C 
HETATM    8  O   UNL     1     -46.211  59.313 -50.028  1.00  0.00    -0.266 OA
HETATM    9  H   UNL     1     -43.306  60.606 -50.031  1.00  0.00     0.190 HD
BRANCH   7  10
HETATM   10  C   UNL     1     -45.316  60.907 -48.522  1.00  0.00     0.054 A 
HETATM   11  C   UNL     1     -45.862  60.533 -47.276  1.00  0.00     0.021 A 
HETATM   12  C   UNL     1     -46.036  61.528 -46.304  1.00  0.00     0.024 A 
HETATM   13  C   UNL     1     -45.558  62.825 -46.513  1.00  0.00     0.002 A 
HETATM   14  C   UNL     1     -44.932  63.157 -47.712  1.00  0.00     0.001 A 
HETATM   15  C   UNL     1     -44.817  62.203 -48.720  1.00  0.00     0.019 A 
BRANCH  11  16
HETATM   16  N   UNL     1     -46.412  59.252 -47.035  1.00  0.00    -0.302 NA
HETATM   17  H   UNL     1     -47.250  59.085 -47.598  1.00  0.00     0.124 HD
HETATM   18  H   UNL     1     -45.741  58.504 -47.199  1.00  0.00     0.124 HD
ENDBRANCH  11  16
ENDBRANCH   7  10
ENDBRANCH   4   6
ENDBRANCH   2   4
BRANCH   3  19
HETATM   19  C   UNL     1     -41.758  57.350 -53.856  1.00  0.00     0.243 C 
HETATM   20  N   UNL     1     -42.491  56.612 -54.757  1.00  0.00    -0.357 N 
HETATM   21  H   UNL     1     -43.439  56.876 -54.980  1.00  0.00     0.162 HD
HETATM   22  O   UNL     1     -40.597  57.101 -53.567  1.00  0.00    -0.269 OA
BRANCH  20  23
HETATM   23  C   UNL     1     -41.916  55.478 -55.459  1.00  0.00     0.127 C 
BRANCH  23  24
HETATM   24  C   UNL     1     -42.548  54.145 -55.047  1.00  0.00     0.058 C 
BRANCH  24  25
HETATM   25  C   UNL     1     -41.653  53.371 -54.110  1.00  0.00    -0.054 A 
HETATM   26  C   UNL     1     -41.572  53.721 -52.752  1.00  0.00     0.046 A 
HETATM   27  C   UNL     1     -40.716  53.033 -51.883  1.00  0.00     0.102 A 
HETATM   28  C   UNL     1     -39.927  51.975 -52.377  1.00  0.00     0.101 A 
HETATM   29  C   UNL     1     -40.018  51.620 -53.727  1.00  0.00     0.040 A 
HETATM   30  C   UNL     1     -40.872  52.315 -54.586  1.00  0.00     0.010 A 
BRANCH  27  31
HETATM   31  O   UNL     1     -40.570  53.320 -50.548  1.00  0.00    -0.353 OA
HETATM   32  C   UNL     1     -40.468  54.686 -50.173  1.00  0.00     0.210 C 
ENDBRANCH  27  31
BRANCH  28  33
HETATM   33  O   UNL     1     -39.108  51.353 -51.466  1.00  0.00    -0.353 OA
HETATM   34  C   UNL     1     -39.415  50.013 -51.113  1.00  0.00     0.210 C 
ENDBRANCH  28  33
ENDBRANCH  24  25
ENDBRANCH  23  24
ENDBRANCH  20  23
ENDBRANCH   3  19
TORSDOF 10
ENDMDL
MODEL 4
REMARK VINA RESULT:      -7.5      2.785      8.401
REMARK  10 active torsions:
REMARK  status: ('A' for Active; 'I' for Inactive)
REMARK    1  A    between atoms: C_2  and  N_3 
REMARK    2  A    between atoms: N_3  and  N_4 
REMARK       I    between atoms: N_4  and  C_5 
REMARK    3  A    between atoms: C_5  and  C_6 
REMARK    4  A    between atoms: C_7  and  N_8 
REMARK    5  A    between atoms: C_14  and  C_15 
REMARK       I    between atoms: C_15  and  N_16 
REMARK    6  A    between atoms: N_16  and  C_17 
REMARK    7  A    between atoms: C_17  and  C_18 
REMARK    8  A    between atoms: C_18  and  C_19 
REMARK    9  A    between atoms: C_21  and  O_22 
REMARK   10  A    between atoms: C_24  and  O_25 
ROOT
HETATM    1  C   UNL     1     -43.144  57.829 -57.283  1.00  0.00     0.070 C 
HETATM    2  C   UNL     1     -42.626  56.415 -57.137  1.00  0.00     0.027 C 
HETATM    3  C   UNL     1     -42.832  55.480 -58.089  1.00  0.00     0.100 C 
ENDROOT
BRANCH   2   4
HETATM    4  N   UNL     1     -41.921  56.181 -55.964  1.00  0.00    -0.302 N 
HETATM    5  H   UNL     1     -42.204  56.753 -55.157  1.00  0.00     0.186 HD
BRANCH   4   6
HETATM    6  N   UNL     1     -41.391  54.943 -55.595  1.00  0.00    -0.266 N 
HETATM    7  C   UNL     1     -42.040  54.289 -54.558  1.00  0.00     0.271 C 
HETATM    8  O   UNL     1     -43.215  54.476 -54.259  1.00  0.00    -0.266 OA
HETATM    9  H   UNL     1     -40.375  54.863 -55.636  1.00  0.00     0.190 HD
BRANCH   7  10
HETATM   10  C   UNL     1     -41.195  53.329 -53.798  1.00  0.00     0.054 A 
HETATM   11  C   UNL     1     -40.902  53.507 -52.429  1.00  0.00     0.021 A 
HETATM   12  C   UNL     1     -39.979  52.638 -51.832  1.00  0.00     0.024 A 
HETATM   13  C   UNL     1     -39.467  51.542 -52.534  1.00  0.00     0.002 A 
HETATM   14  C   UNL     1     -39.840  51.322 -53.858  1.00  0.00     0.001 A 
HETATM   15  C   UNL     1     -40.698  52.217 -54.494  1.00  0.00     0.019 A 
BRANCH  11  16
HETATM   16  N   UNL     1     -41.349  54.628 -51.690  1.00  0.00    -0.302 NA
HETATM   17  H   UNL     1     -42.002  54.359 -50.949  1.00  0.00     0.124 HD
HETATM   18  H   UNL     1     -40.579  55.159 -51.286  1.00  0.00     0.124 HD
ENDBRANCH  11  16
ENDBRANCH   7  10
ENDBRANCH   4   6
ENDBRANCH   2   4
BRANCH   3  19
HETATM   19  C   UNL     1     -43.544  55.692 -59.380  1.00  0.00     0.243 C 
HETATM   20  N   UNL     1     -44.870  55.332 -59.315  1.00  0.00    -0.357 N 
HETATM   21  H   UNL     1     -45.267  55.004 -58.447  1.00  0.00     0.162 HD
HETATM   22  O   UNL     1     -43.012  56.124 -60.392  1.00  0.00    -0.269 OA
BRANCH  20  23
HETATM   23  C   UNL     1     -45.753  55.465 -60.460  1.00  0.00     0.127 C 
BRANCH  23  24
HETATM   24  C   UNL     1     -47.002  56.296 -60.151  1.00  0.00     0.058 C 
BRANCH  24  25
HETATM   25  C   UNL     1     -46.647  57.629 -59.539  1.00  0.00    -0.054 A 
HETATM   26  C   UNL     1     -45.870  58.556 -60.254  1.00  0.00     0.046 A 
HETATM   27  C   UNL     1     -45.503  59.780 -59.679  1.00  0.00     0.102 A 
HETATM   28  C   UNL     1     -45.920  60.086 -58.368  1.00  0.00     0.101 A 
HETATM   29  C   UNL     1     -46.704  59.166 -57.663  1.00  0.00     0.040 A 
HETATM   30  C   UNL     1     -47.061  57.947 -58.243  1.00  0.00     0.010 A 
BRANCH  27  31
HETATM   31  O   UNL     1     -44.739  60.733 -60.306  1.00  0.00    -0.353 OA
HETATM   32  C   UNL     1     -43.548  60.306 -60.950  1.00  0.00     0.210 C 
ENDBRANCH  27  31
BRANCH  28  33
HETATM   33  O   UNL     1     -45.516  61.301 -57.872  1.00  0.00    -0.353 OA
HETATM   34  C   UNL     1     -44.583  61.298 -56.802  1.00  0.00     0.210 C 
ENDBRANCH  28  33
ENDBRANCH  24  25
ENDBRANCH  23  24
ENDBRANCH  20  23
ENDBRANCH   3  19
TORSDOF 10
ENDMDL
MODEL 5
REMARK VINA RESULT:      -7.4      1.951      3.138
REMARK  10 active torsions:
REMARK  status: ('A' for Active; 'I' for Inactive)
REMARK    1  A    between atoms: C_2  and  N_3 
REMARK    2  A    between atoms: N_3  and  N_4 
REMARK       I    between atoms: N_4  and  C_5 
REMARK    3  A    between atoms: C_5  and  C_6 
REMARK    4  A    between atoms: C_7  and  N_8 
REMARK    5  A    between atoms: C_14  and  C_15 
REMARK       I    between atoms: C_15  and  N_16 
REMARK    6  A    between atoms: N_16  and  C_17 
REMARK    7  A    between atoms: C_17  and  C_18 
REMARK    8  A    between atoms: C_18  and  C_19 
REMARK    9  A    between atoms: C_21  and  O_22 
REMARK   10  A    between atoms: C_24  and  O_25 
ROOT
HETATM    1  C   UNL     1     -42.471  56.713 -55.126  1.00  0.00     0.070 C 
HETATM    2  C   UNL     1     -42.377  55.344 -55.764  1.00  0.00     0.027 C 
HETATM    3  C   UNL     1     -42.225  54.224 -55.026  1.00  0.00     0.100 C 
ENDROOT
BRANCH   2   4
HETATM    4  N   UNL     1     -42.476  55.350 -57.149  1.00  0.00    -0.302 N 
HETATM    5  H   UNL     1     -41.685  54.921 -57.649  1.00  0.00     0.186 HD
BRANCH   4   6
HETATM    6  N   UNL     1     -43.677  55.266 -57.855  1.00  0.00    -0.266 N 
HETATM    7  C   UNL     1     -43.649  55.732 -59.160  1.00  0.00     0.271 C 
HETATM    8  O   UNL     1     -42.633  55.793 -59.844  1.00  0.00    -0.266 OA
HETATM    9  H   UNL     1     -44.524  55.438 -57.313  1.00  0.00     0.190 HD
BRANCH   7  10
HETATM   10  C   UNL     1     -44.964  56.184 -59.692  1.00  0.00     0.054 A 
HETATM   11  C   UNL     1     -45.551  55.603 -60.835  1.00  0.00     0.021 A 
HETATM   12  C   UNL     1     -46.715  56.188 -61.351  1.00  0.00     0.024 A 
HETATM   13  C   UNL     1     -47.353  57.233 -60.675  1.00  0.00     0.002 A 
HETATM   14  C   UNL     1     -46.814  57.735 -59.493  1.00  0.00     0.001 A 
HETATM   15  C   UNL     1     -45.616  57.217 -59.003  1.00  0.00     0.019 A 
BRANCH  11  16
HETATM   16  N   UNL     1     -44.919  54.584 -61.586  1.00  0.00    -0.302 NA
HETATM   17  H   UNL     1     -45.555  54.164 -62.270  1.00  0.00     0.124 HD
HETATM   18  H   UNL     1     -44.082  54.914 -62.063  1.00  0.00     0.124 HD
ENDBRANCH  11  16
ENDBRANCH   7  10
ENDBRANCH   4   6
ENDBRANCH   2   4
BRANCH   3  19
HETATM   19  C   UNL     1     -42.157  54.162 -53.539  1.00  0.00     0.243 C 
HETATM   20  N   UNL     1     -43.380  54.372 -52.946  1.00  0.00    -0.357 N 
HETATM   21  H   UNL     1     -44.204  54.508 -53.513  1.00  0.00     0.162 HD
HETATM   22  O   UNL     1     -41.129  53.961 -52.909  1.00  0.00    -0.269 OA
BRANCH  20  23
HETATM   23  C   UNL     1     -43.543  54.346 -51.504  1.00  0.00     0.127 C 
BRANCH  23  24
HETATM   24  C   UNL     1     -43.996  55.694 -50.934  1.00  0.00     0.058 C 
BRANCH  24  25
HETATM   25  C   UNL     1     -42.898  56.728 -51.012  1.00  0.00    -0.054 A 
HETATM   26  C   UNL     1     -43.125  57.961 -51.644  1.00  0.00     0.046 A 
HETATM   27  C   UNL     1     -42.101  58.911 -51.754  1.00  0.00     0.102 A 
HETATM   28  C   UNL     1     -40.828  58.626 -51.223  1.00  0.00     0.101 A 
HETATM   29  C   UNL     1     -40.607  57.401 -50.583  1.00  0.00     0.040 A 
HETATM   30  C   UNL     1     -41.633  56.459 -50.482  1.00  0.00     0.010 A 
BRANCH  27  31
HETATM   31  O   UNL     1     -42.239  60.133 -52.365  1.00  0.00    -0.353 OA
HETATM   32  C   UNL     1     -42.657  60.149 -53.722  1.00  0.00     0.210 C 
ENDBRANCH  27  31
BRANCH  28  33
HETATM   33  O   UNL     1     -39.875  59.602 -51.375  1.00  0.00    -0.353 OA
HETATM   34  C   UNL     1     -38.818  59.645 -50.428  1.00  0.00     0.210 C 
ENDBRANCH  28  33
ENDBRANCH  24  25
ENDBRANCH  23  24
ENDBRANCH  20  23
ENDBRANCH   3  19
TORSDOF 10
ENDMDL
MODEL 6
REMARK VINA RESULT:      -7.4      2.161      3.655
REMARK  10 active torsions:
REMARK  status: ('A' for Active; 'I' for Inactive)
REMARK    1  A    between atoms: C_2  and  N_3 
REMARK    2  A    between atoms: N_3  and  N_4 
REMARK       I    between atoms: N_4  and  C_5 
REMARK    3  A    between atoms: C_5  and  C_6 
REMARK    4  A    between atoms: C_7  and  N_8 
REMARK    5  A    between atoms: C_14  and  C_15 
REMARK       I    between atoms: C_15  and  N_16 
REMARK    6  A    between atoms: N_16  and  C_17 
REMARK    7  A    between atoms: C_17  and  C_18 
REMARK    8  A    between atoms: C_18  and  C_19 
REMARK    9  A    between atoms: C_21  and  O_22 
REMARK   10  A    between atoms: C_24  and  O_25 
ROOT
HETATM    1  C   UNL     1     -44.430  56.876 -54.503  1.00  0.00     0.070 C 
HETATM    2  C   UNL     1     -43.699  57.478 -55.683  1.00  0.00     0.027 C 
HETATM    3  C   UNL     1     -42.385  57.252 -55.898  1.00  0.00     0.100 C 
ENDROOT
BRANCH   2   4
HETATM    4  N   UNL     1     -44.495  58.256 -56.514  1.00  0.00    -0.302 N 
HETATM    5  H   UNL     1     -44.058  59.118 -56.863  1.00  0.00     0.186 HD
BRANCH   4   6
HETATM    6  N   UNL     1     -45.464  57.746 -57.381  1.00  0.00    -0.266 N 
HETATM    7  C   UNL     1     -45.067  57.569 -58.698  1.00  0.00     0.271 C 
HETATM    8  O   UNL     1     -43.902  57.408 -59.048  1.00  0.00    -0.266 OA
HETATM    9  H   UNL     1     -46.419  58.064 -57.217  1.00  0.00     0.190 HD
BRANCH   7  10
HETATM   10  C   UNL     1     -46.173  57.602 -59.694  1.00  0.00     0.054 A 
HETATM   11  C   UNL     1     -46.662  56.432 -60.312  1.00  0.00     0.021 A 
HETATM   12  C   UNL     1     -47.600  56.571 -61.344  1.00  0.00     0.024 A 
HETATM   13  C   UNL     1     -48.137  57.823 -61.661  1.00  0.00     0.002 A 
HETATM   14  C   UNL     1     -47.715  58.960 -60.976  1.00  0.00     0.001 A 
HETATM   15  C   UNL     1     -46.728  58.853 -59.998  1.00  0.00     0.019 A 
BRANCH  11  16
HETATM   16  N   UNL     1     -46.114  55.151 -60.068  1.00  0.00    -0.302 NA
HETATM   17  H   UNL     1     -45.743  55.070 -59.117  1.00  0.00     0.124 HD
HETATM   18  H   UNL     1     -46.784  54.402 -60.233  1.00  0.00     0.124 HD
ENDBRANCH  11  16
ENDBRANCH   7  10
ENDBRANCH   4   6
ENDBRANCH   2   4
BRANCH   3  19
HETATM   19  C   UNL     1     -41.500  56.394 -55.061  1.00  0.00     0.243 C 
HETATM   20  N   UNL     1     -41.226  55.184 -55.655  1.00  0.00    -0.357 N 
HETATM   21  H   UNL     1     -41.583  54.976 -56.576  1.00  0.00     0.162 HD
HETATM   22  O   UNL     1     -41.073  56.718 -53.963  1.00  0.00    -0.269 OA
BRANCH  20  23
HETATM   23  C   UNL     1     -40.374  54.197 -55.016  1.00  0.00     0.127 C 
BRANCH  23  24
HETATM   24  C   UNL     1     -41.170  53.124 -54.266  1.00  0.00     0.058 C 
BRANCH  24  25
HETATM   25  C   UNL     1     -41.216  53.399 -52.783  1.00  0.00    -0.054 A 
HETATM   26  C   UNL     1     -42.329  54.035 -52.211  1.00  0.00     0.046 A 
HETATM   27  C   UNL     1     -42.363  54.329 -50.841  1.00  0.00     0.102 A 
HETATM   28  C   UNL     1     -41.267  53.980 -50.027  1.00  0.00     0.101 A 
HETATM   29  C   UNL     1     -40.163  53.335 -50.597  1.00  0.00     0.040 A 
HETATM   30  C   UNL     1     -40.138  53.051 -51.964  1.00  0.00     0.010 A 
BRANCH  27  31
HETATM   31  O   UNL     1     -43.407  54.957 -50.207  1.00  0.00    -0.353 OA
HETATM   32  C   UNL     1     -43.980  56.090 -50.843  1.00  0.00     0.210 C 
ENDBRANCH  27  31
BRANCH  28  33
HETATM   33  O   UNL     1     -41.371  54.305 -48.697  1.00  0.00    -0.353 OA
HETATM   34  C   UNL     1     -40.392  53.781 -47.812  1.00  0.00     0.210 C 
ENDBRANCH  28  33
ENDBRANCH  24  25
ENDBRANCH  23  24
ENDBRANCH  20  23
ENDBRANCH   3  19
TORSDOF 10
ENDMDL
MODEL 7
REMARK VINA RESULT:      -7.3      2.600      8.578
REMARK  10 active torsions:
REMARK  status: ('A' for Active; 'I' for Inactive)
REMARK    1  A    between atoms: C_2  and  N_3 
REMARK    2  A    between atoms: N_3  and  N_4 
REMARK       I    between atoms: N_4  and  C_5 
REMARK    3  A    between atoms: C_5  and  C_6 
REMARK    4  A    between atoms: C_7  and  N_8 
REMARK    5  A    between atoms: C_14  and  C_15 
REMARK       I    between atoms: C_15  and  N_16 
REMARK    6  A    between atoms: N_16  and  C_17 
REMARK    7  A    between atoms: C_17  and  C_18 
REMARK    8  A    between atoms: C_18  and  C_19 
REMARK    9  A    between atoms: C_21  and  O_22 
REMARK   10  A    between atoms: C_24  and  O_25 
ROOT
HETATM    1  C   UNL     1     -42.393  56.243 -55.921  1.00  0.00     0.070 C 
HETATM    2  C   UNL     1     -43.147  56.771 -54.720  1.00  0.00     0.027 C 
HETATM    3  C   UNL     1     -43.174  58.087 -54.419  1.00  0.00     0.100 C 
ENDROOT
BRANCH   2   4
HETATM    4  N   UNL     1     -43.806  55.796 -53.983  1.00  0.00    -0.302 N 
HETATM    5  H   UNL     1     -44.828  55.773 -54.098  1.00  0.00     0.186 HD
BRANCH   4   6
HETATM    6  N   UNL     1     -43.265  54.550 -53.661  1.00  0.00    -0.266 N 
HETATM    7  C   UNL     1     -42.203  54.561 -52.769  1.00  0.00     0.271 C 
HETATM    8  O   UNL     1     -42.001  55.456 -51.955  1.00  0.00    -0.266 OA
HETATM    9  H   UNL     1     -43.234  53.869 -54.419  1.00  0.00     0.190 HD
BRANCH   7  10
HETATM   10  C   UNL     1     -41.287  53.393 -52.874  1.00  0.00     0.054 A 
HETATM   11  C   UNL     1     -40.561  52.906 -51.766  1.00  0.00     0.021 A 
HETATM   12  C   UNL     1     -39.611  51.900 -51.987  1.00  0.00     0.024 A 
HETATM   13  C   UNL     1     -39.481  51.301 -53.244  1.00  0.00     0.002 A 
HETATM   14  C   UNL     1     -40.273  51.726 -54.308  1.00  0.00     0.001 A 
HETATM   15  C   UNL     1     -41.170  52.776 -54.128  1.00  0.00     0.019 A 
BRANCH  11  16
HETATM   16  N   UNL     1     -40.615  53.513 -50.489  1.00  0.00    -0.302 NA
HETATM   17  H   UNL     1     -41.402  54.164 -50.410  1.00  0.00     0.124 HD
HETATM   18  H   UNL     1     -40.665  52.830 -49.735  1.00  0.00     0.124 HD
ENDBRANCH  11  16
ENDBRANCH   7  10
ENDBRANCH   4   6
ENDBRANCH   2   4
BRANCH   3  19
HETATM   19  C   UNL     1     -42.519  59.174 -55.200  1.00  0.00     0.243 C 
HETATM   20  N   UNL     1     -43.262  59.559 -56.291  1.00  0.00    -0.357 N 
HETATM   21  H   UNL     1     -44.164  59.140 -56.467  1.00  0.00     0.162 HD
HETATM   22  O   UNL     1     -41.436  59.664 -54.915  1.00  0.00    -0.269 OA
BRANCH  20  23
HETATM   23  C   UNL     1     -42.814  60.611 -57.186  1.00  0.00     0.127 C 
BRANCH  23  24
HETATM   24  C   UNL     1     -41.915  60.089 -58.310  1.00  0.00     0.058 C 
BRANCH  24  25
HETATM   25  C   UNL     1     -42.551  58.929 -59.039  1.00  0.00    -0.054 A 
HETATM   26  C   UNL     1     -43.896  58.991 -59.437  1.00  0.00     0.046 A 
HETATM   27  C   UNL     1     -44.505  57.905 -60.080  1.00  0.00     0.102 A 
HETATM   28  C   UNL     1     -43.757  56.737 -60.331  1.00  0.00     0.101 A 
HETATM   29  C   UNL     1     -42.413  56.683 -59.945  1.00  0.00     0.040 A 
HETATM   30  C   UNL     1     -41.817  57.769 -59.301  1.00  0.00     0.010 A 
BRANCH  27  31
HETATM   31  O   UNL     1     -45.815  57.881 -60.490  1.00  0.00    -0.353 OA
HETATM   32  C   UNL     1     -46.817  57.753 -59.492  1.00  0.00     0.210 C 
ENDBRANCH  27  31
BRANCH  28  33
HETATM   33  O   UNL     1     -44.424  55.714 -60.959  1.00  0.00    -0.353 OA
HETATM   34  C   UNL     1     -44.783  54.584 -60.177  1.00  0.00     0.210 C 
ENDBRANCH  28  33
ENDBRANCH  24  25
ENDBRANCH  23  24
ENDBRANCH  20  23
ENDBRANCH   3  19
TORSDOF 10
ENDMDL
MODEL 8
REMARK VINA RESULT:      -7.3      5.095      9.555
REMARK  10 active torsions:
REMARK  status: ('A' for Active; 'I' for Inactive)
REMARK    1  A    between atoms: C_2  and  N_3 
REMARK    2  A    between atoms: N_3  and  N_4 
REMARK       I    between atoms: N_4  and  C_5 
REMARK    3  A    between atoms: C_5  and  C_6 
REMARK    4  A    between atoms: C_7  and  N_8 
REMARK    5  A    between atoms: C_14  and  C_15 
REMARK       I    between atoms: C_15  and  N_16 
REMARK    6  A    between atoms: N_16  and  C_17 
REMARK    7  A    between atoms: C_17  and  C_18 
REMARK    8  A    between atoms: C_18  and  C_19 
REMARK    9  A    between atoms: C_21  and  O_22 
REMARK   10  A    between atoms: C_24  and  O_25 
ROOT
HETATM    1  C   UNL     1     -44.526  58.769 -51.306  1.00  0.00     0.070 C 
HETATM    2  C   UNL     1     -43.568  59.768 -50.693  1.00  0.00     0.027 C 
HETATM    3  C   UNL     1     -42.243  59.524 -50.610  1.00  0.00     0.100 C 
ENDROOT
BRANCH   2   4
HETATM    4  N   UNL     1     -44.168  60.939 -50.250  1.00  0.00    -0.302 N 
HETATM    5  H   UNL     1     -44.982  61.251 -50.796  1.00  0.00     0.186 HD
BRANCH   4   6
HETATM    6  N   UNL     1     -44.220  61.342 -48.915  1.00  0.00    -0.266 N 
HETATM    7  C   UNL     1     -45.367  60.991 -48.218  1.00  0.00     0.271 C 
HETATM    8  O   UNL     1     -46.087  60.045 -48.517  1.00  0.00    -0.266 OA
HETATM    9  H   UNL     1     -43.805  62.251 -48.708  1.00  0.00     0.190 HD
BRANCH   7  10
HETATM   10  C   UNL     1     -45.689  61.870 -47.061  1.00  0.00     0.054 A 
HETATM   11  C   UNL     1     -46.885  62.617 -46.995  1.00  0.00     0.021 A 
HETATM   12  C   UNL     1     -47.037  63.529 -45.942  1.00  0.00     0.024 A 
HETATM   13  C   UNL     1     -46.094  63.600 -44.912  1.00  0.00     0.002 A 
HETATM   14  C   UNL     1     -44.964  62.786 -44.939  1.00  0.00     0.001 A 
HETATM   15  C   UNL     1     -44.756  61.926 -46.016  1.00  0.00     0.019 A 
BRANCH  11  16
HETATM   16  N   UNL     1     -47.841  62.623 -48.037  1.00  0.00    -0.302 NA
HETATM   17  H   UNL     1     -47.842  61.743 -48.559  1.00  0.00     0.124 HD
HETATM   18  H   UNL     1     -48.783  62.816 -47.699  1.00  0.00     0.124 HD
ENDBRANCH  11  16
ENDBRANCH   7  10
ENDBRANCH   4   6
ENDBRANCH   2   4
BRANCH   3  19
HETATM   19  C   UNL     1     -41.547  58.304 -51.108  1.00  0.00     0.243 C 
HETATM   20  N   UNL     1     -41.554  57.282 -50.187  1.00  0.00    -0.357 N 
HETATM   21  H   UNL     1     -42.031  57.395 -49.305  1.00  0.00     0.162 HD
HETATM   22  O   UNL     1     -41.015  58.219 -52.205  1.00  0.00    -0.269 OA
BRANCH  20  23
HETATM   23  C   UNL     1     -40.939  55.998 -50.470  1.00  0.00     0.127 C 
BRANCH  23  24
HETATM   24  C   UNL     1     -41.935  54.971 -51.018  1.00  0.00     0.058 C 
BRANCH  24  25
HETATM   25  C   UNL     1     -41.242  53.898 -51.823  1.00  0.00    -0.054 A 
HETATM   26  C   UNL     1     -40.515  52.884 -51.180  1.00  0.00     0.046 A 
HETATM   27  C   UNL     1     -39.838  51.906 -51.921  1.00  0.00     0.102 A 
HETATM   28  C   UNL     1     -39.888  51.940 -53.329  1.00  0.00     0.101 A 
HETATM   29  C   UNL     1     -40.624  52.946 -53.967  1.00  0.00     0.040 A 
HETATM   30  C   UNL     1     -41.292  53.918 -53.220  1.00  0.00     0.010 A 
BRANCH  27  31
HETATM   31  O   UNL     1     -39.097  50.889 -51.370  1.00  0.00    -0.353 OA
HETATM   32  C   UNL     1     -39.792  49.884 -50.646  1.00  0.00     0.210 C 
ENDBRANCH  27  31
BRANCH  28  33
HETATM   33  O   UNL     1     -39.195  50.953 -53.985  1.00  0.00    -0.353 OA
HETATM   34  C   UNL     1     -39.943  49.886 -54.548  1.00  0.00     0.210 C 
ENDBRANCH  28  33
ENDBRANCH  24  25
ENDBRANCH  23  24
ENDBRANCH  20  23
ENDBRANCH   3  19
TORSDOF 10
ENDMDL
MODEL 9
REMARK VINA RESULT:      -7.2      2.773      9.244
REMARK  10 active torsions:
REMARK  status: ('A' for Active; 'I' for Inactive)
REMARK    1  A    between atoms: C_2  and  N_3 
REMARK    2  A    between atoms: N_3  and  N_4 
REMARK       I    between atoms: N_4  and  C_5 
REMARK    3  A    between atoms: C_5  and  C_6 
REMARK    4  A    between atoms: C_7  and  N_8 
REMARK    5  A    between atoms: C_14  and  C_15 
REMARK       I    between atoms: C_15  and  N_16 
REMARK    6  A    between atoms: N_16  and  C_17 
REMARK    7  A    between atoms: C_17  and  C_18 
REMARK    8  A    between atoms: C_18  and  C_19 
REMARK    9  A    between atoms: C_21  and  O_22 
REMARK   10  A    between atoms: C_24  and  O_25 
ROOT
HETATM    1  C   UNL     1     -44.630  57.239 -55.025  1.00  0.00     0.070 C 
HETATM    2  C   UNL     1     -43.619  56.132 -54.820  1.00  0.00     0.027 C 
HETATM    3  C   UNL     1     -42.912  55.615 -55.849  1.00  0.00     0.100 C 
ENDROOT
BRANCH   2   4
HETATM    4  N   UNL     1     -43.479  55.720 -53.502  1.00  0.00    -0.302 N 
HETATM    5  H   UNL     1     -44.195  56.069 -52.852  1.00  0.00     0.186 HD
BRANCH   4   6
HETATM    6  N   UNL     1     -42.942  54.491 -53.112  1.00  0.00    -0.266 N 
HETATM    7  C   UNL     1     -41.609  54.505 -52.729  1.00  0.00     0.271 C 
HETATM    8  O   UNL     1     -41.028  55.499 -52.305  1.00  0.00    -0.266 OA
HETATM    9  H   UNL     1     -43.273  53.677 -53.629  1.00  0.00     0.190 HD
BRANCH   7  10
HETATM   10  C   UNL     1     -40.901  53.205 -52.882  1.00  0.00     0.054 A 
HETATM   11  C   UNL     1     -40.128  52.644 -51.844  1.00  0.00     0.021 A 
HETATM   12  C   UNL     1     -39.377  51.495 -52.125  1.00  0.00     0.024 A 
HETATM   13  C   UNL     1     -39.495  50.845 -53.357  1.00  0.00     0.002 A 
HETATM   14  C   UNL     1     -40.338  51.356 -54.342  1.00  0.00     0.001 A 
HETATM   15  C   UNL     1     -41.035  52.540 -54.109  1.00  0.00     0.019 A 
BRANCH  11  16
HETATM   16  N   UNL     1     -39.931  53.291 -50.601  1.00  0.00    -0.302 NA
HETATM   17  H   UNL     1     -40.776  53.268 -50.023  1.00  0.00     0.124 HD
HETATM   18  H   UNL     1     -39.153  52.896 -50.076  1.00  0.00     0.124 HD
ENDBRANCH  11  16
ENDBRANCH   7  10
ENDBRANCH   4   6
ENDBRANCH   2   4
BRANCH   3  19
HETATM   19  C   UNL     1     -42.996  56.051 -57.271  1.00  0.00     0.243 C 
HETATM   20  N   UNL     1     -43.635  55.129 -58.067  1.00  0.00    -0.357 N 
HETATM   21  H   UNL     1     -44.018  54.287 -57.664  1.00  0.00     0.162 HD
HETATM   22  O   UNL     1     -42.538  57.103 -57.692  1.00  0.00    -0.269 OA
BRANCH  20  23
HETATM   23  C   UNL     1     -43.833  55.357 -59.487  1.00  0.00     0.127 C 
BRANCH  23  24
HETATM   24  C   UNL     1     -45.263  55.047 -59.942  1.00  0.00     0.058 C 
BRANCH  24  25
HETATM   25  C   UNL     1     -46.082  56.305 -60.098  1.00  0.00    -0.054 A 
HETATM   26  C   UNL     1     -46.991  56.436 -61.161  1.00  0.00     0.046 A 
HETATM   27  C   UNL     1     -47.727  57.615 -61.336  1.00  0.00     0.102 A 
HETATM   28  C   UNL     1     -47.555  58.683 -60.433  1.00  0.00     0.101 A 
HETATM   29  C   UNL     1     -46.658  58.546 -59.367  1.00  0.00     0.040 A 
HETATM   30  C   UNL     1     -45.926  57.368 -59.204  1.00  0.00     0.010 A 
BRANCH  27  31
HETATM   31  O   UNL     1     -48.626  57.825 -62.353  1.00  0.00    -0.353 OA
HETATM   32  C   UNL     1     -48.588  56.938 -63.461  1.00  0.00     0.210 C 
ENDBRANCH  27  31
BRANCH  28  33
HETATM   33  O   UNL     1     -48.306  59.807 -60.673  1.00  0.00    -0.353 OA
HETATM   34  C   UNL     1     -47.621  60.985 -61.069  1.00  0.00     0.210 C 
ENDBRANCH  28  33
ENDBRANCH  24  25
ENDBRANCH  23  24
ENDBRANCH  20  23
ENDBRANCH   3  19
TORSDOF 10
ENDMDL
MODEL 10
REMARK VINA RESULT:      -7.2      2.480      7.977
REMARK  10 active torsions:
REMARK  status: ('A' for Active; 'I' for Inactive)
REMARK    1  A    between atoms: C_2  and  N_3 
REMARK    2  A    between atoms: N_3  and  N_4 
REMARK       I    between atoms: N_4  and  C_5 
REMARK    3  A    between atoms: C_5  and  C_6 
REMARK    4  A    between atoms: C_7  and  N_8 
REMARK    5  A    between atoms: C_14  and  C_15 
REMARK       I    between atoms: C_15  and  N_16 
REMARK    6  A    between atoms: N_16  and  C_17 
REMARK    7  A    between atoms: C_17  and  C_18 
REMARK    8  A    between atoms: C_18  and  C_19 
REMARK    9  A    between atoms: C_21  and  O_22 
REMARK   10  A    between atoms: C_24  and  O_25 
ROOT
HETATM    1  C   UNL     1     -43.799  56.745 -51.144  1.00  0.00     0.070 C 
HETATM    2  C   UNL     1     -42.359  56.388 -50.849  1.00  0.00     0.027 C 
HETATM    3  C   UNL     1     -41.335  57.178 -51.237  1.00  0.00     0.100 C 
ENDROOT
BRANCH   2   4
HETATM    4  N   UNL     1     -42.196  55.204 -50.142  1.00  0.00    -0.302 N 
HETATM    5  H   UNL     1     -42.751  55.125 -49.279  1.00  0.00     0.186 HD
BRANCH   4   6
HETATM    6  N   UNL     1     -41.920  53.967 -50.727  1.00  0.00    -0.266 N 
HETATM    7  C   UNL     1     -40.578  53.633 -50.838  1.00  0.00     0.271 C 
HETATM    8  O   UNL     1     -39.697  54.090 -50.118  1.00  0.00    -0.266 OA
HETATM    9  H   UNL     1     -42.538  53.687 -51.489  1.00  0.00     0.190 HD
BRANCH   7  10
HETATM   10  C   UNL     1     -40.262  52.669 -51.927  1.00  0.00     0.054 A 
HETATM   11  C   UNL     1     -40.459  52.983 -53.288  1.00  0.00     0.021 A 
HETATM   12  C   UNL     1     -40.276  51.966 -54.235  1.00  0.00     0.024 A 
HETATM   13  C   UNL     1     -39.781  50.714 -53.856  1.00  0.00     0.002 A 
HETATM   14  C   UNL     1     -39.498  50.448 -52.519  1.00  0.00     0.001 A 
HETATM   15  C   UNL     1     -39.745  51.421 -51.552  1.00  0.00     0.019 A 
BRANCH  11  16
HETATM   16  N   UNL     1     -41.011  54.213 -53.718  1.00  0.00    -0.302 NA
HETATM   17  H   UNL     1     -40.342  54.759 -54.267  1.00  0.00     0.124 HD
HETATM   18  H   UNL     1     -41.866  54.088 -54.256  1.00  0.00     0.124 HD
ENDBRANCH  11  16
ENDBRANCH   7  10
ENDBRANCH   4   6
ENDBRANCH   2   4
BRANCH   3  19
HETATM   19  C   UNL     1     -41.460  58.475 -51.959  1.00  0.00     0.243 C 
HETATM   20  N   UNL     1     -41.355  58.331 -53.323  1.00  0.00    -0.357 N 
HETATM   21  H   UNL     1     -41.245  57.414 -53.731  1.00  0.00     0.162 HD
HETATM   22  O   UNL     1     -41.625  59.553 -51.407  1.00  0.00    -0.269 OA
BRANCH  20  23
HETATM   23  C   UNL     1     -41.457  59.467 -54.220  1.00  0.00     0.127 C 
BRANCH  23  24
HETATM   24  C   UNL     1     -42.767  59.480 -55.013  1.00  0.00     0.058 C 
BRANCH  24  25
HETATM   25  C   UNL     1     -42.739  58.489 -56.151  1.00  0.00    -0.054 A 
HETATM   26  C   UNL     1     -42.258  58.868 -57.414  1.00  0.00     0.046 A 
HETATM   27  C   UNL     1     -42.263  57.966 -58.486  1.00  0.00     0.102 A 
HETATM   28  C   UNL     1     -42.757  56.660 -58.293  1.00  0.00     0.101 A 
HETATM   29  C   UNL     1     -43.226  56.280 -57.030  1.00  0.00     0.040 A 
HETATM   30  C   UNL     1     -43.219  57.189 -55.970  1.00  0.00     0.010 A 
BRANCH  27  31
HETATM   31  O   UNL     1     -41.821  58.261 -59.752  1.00  0.00    -0.353 OA
HETATM   32  C   UNL     1     -42.466  59.318 -60.447  1.00  0.00     0.210 C 
ENDBRANCH  27  31
BRANCH  28  33
HETATM   33  O   UNL     1     -42.736  55.836 -59.391  1.00  0.00    -0.353 OA
HETATM   34  C   UNL     1     -43.927  55.130 -59.708  1.00  0.00     0.210 C 
ENDBRANCH  28  33
ENDBRANCH  24  25
ENDBRANCH  23  24
ENDBRANCH  20  23
ENDBRANCH   3  19
TORSDOF 10
ENDMDL
