MODEL 1
REMARK VINA RESULT:      -8.2      0.000      0.000
REMARK  2 active torsions:
REMARK  status: ('A' for Active; 'I' for Inactive)
REMARK    1  A    between atoms: C_2  and  N_3 
REMARK    2  A    between atoms: N_3  and  C_4 
ROOT
HETATM    1  C   UNL     1     -42.724  55.346 -52.652  1.00  0.00     0.143 A 
HETATM    2  N   UNL     1     -43.112  56.353 -51.832  1.00  0.00    -0.223 NA
HETATM    3  C   UNL     1     -42.579  56.462 -50.609  1.00  0.00     0.236 A 
HETATM    4  N   UNL     1     -41.669  55.669 -50.053  1.00  0.00    -0.234 NA
HETATM    5  C   UNL     1     -41.281  54.684 -50.876  1.00  0.00     0.114 A 
HETATM    6  C   UNL     1     -41.728  54.449 -52.172  1.00  0.00     0.053 A 
HETATM    7  S   UNL     1     -40.125  53.553 -50.345  1.00  0.00    -0.073 SA
HETATM    8  C   UNL     1     -40.168  52.726 -51.823  1.00  0.00    -0.008 A 
HETATM    9  C   UNL     1     -41.031  53.303 -52.739  1.00  0.00    -0.028 A 
HETATM   10  C   UNL     1     -41.184  52.725 -54.119  1.00  0.00     0.041 C 
HETATM   11  C   UNL     1     -40.074  51.721 -54.469  1.00  0.00     0.005 C 
HETATM   12  C   UNL     1     -39.785  50.764 -53.309  1.00  0.00     0.005 C 
HETATM   13  C   UNL     1     -39.304  51.527 -52.068  1.00  0.00     0.047 C 
ENDROOT
BRANCH   1  14
HETATM   14  N   UNL     1     -43.306  55.201 -53.922  1.00  0.00    -0.340 N 
HETATM   15  H   UNL     1     -44.155  54.660 -53.908  1.00  0.00     0.167 HD
BRANCH  14  16
HETATM   16  C   UNL     1     -43.043  55.785 -55.178  1.00  0.00     0.036 A 
HETATM   17  C   UNL     1     -43.134  55.093 -56.404  1.00  0.00     0.032 A 
HETATM   18  C   UNL     1     -42.888  55.727 -57.631  1.00  0.00     0.042 A 
HETATM   19  C   UNL     1     -42.560  57.060 -57.610  1.00  0.00     0.105 A 
HETATM   20  C   UNL     1     -42.477  57.757 -56.432  1.00  0.00     0.107 A 
HETATM   21  O   UNL     1     -42.294  57.837 -58.693  1.00  0.00    -0.323 OA
HETATM   22  C   UNL     1     -42.714  57.154 -55.212  1.00  0.00     0.069 A 
HETATM   23  O   UNL     1     -42.150  59.063 -56.621  1.00  0.00    -0.323 OA
HETATM   24  C   UNL     1     -42.038  59.107 -58.059  1.00  0.00     0.352 A 
ENDBRANCH  14  16
ENDBRANCH   1  14
TORSDOF 2
ENDMDL
MODEL 2
REMARK VINA RESULT:      -8.1      0.794      1.549
REMARK  2 active torsions:
REMARK  status: ('A' for Active; 'I' for Inactive)
REMARK    1  A    between atoms: C_2  and  N_3 
REMARK    2  A    between atoms: N_3  and  C_4 
ROOT
HETATM    1  C   UNL     1     -42.837  55.462 -53.002  1.00  0.00     0.143 A 
HETATM    2  N   UNL     1     -43.324  56.456 -52.218  1.00  0.00    -0.223 NA
HETATM    3  C   UNL     1     -42.919  56.563 -50.947  1.00  0.00     0.236 A 
HETATM    4  N   UNL     1     -42.058  55.780 -50.307  1.00  0.00    -0.234 NA
HETATM    5  C   UNL     1     -41.571  54.808 -51.092  1.00  0.00     0.114 A 
HETATM    6  C   UNL     1     -41.881  54.577 -52.429  1.00  0.00     0.053 A 
HETATM    7  S   UNL     1     -40.456  53.691 -50.455  1.00  0.00    -0.073 SA
HETATM    8  C   UNL     1     -40.335  52.876 -51.935  1.00  0.00    -0.008 A 
HETATM    9  C   UNL     1     -41.111  53.447 -52.930  1.00  0.00    -0.028 A 
HETATM   10  C   UNL     1     -41.113  52.878 -54.323  1.00  0.00     0.041 C 
HETATM   11  C   UNL     1     -39.956  51.895 -54.564  1.00  0.00     0.005 C 
HETATM   12  C   UNL     1     -39.770  50.933 -53.387  1.00  0.00     0.005 C 
HETATM   13  C   UNL     1     -39.430  51.693 -52.099  1.00  0.00     0.047 C 
ENDROOT
BRANCH   1  14
HETATM   14  N   UNL     1     -43.285  55.319 -54.325  1.00  0.00    -0.340 N 
HETATM   15  H   UNL     1     -43.999  54.616 -54.426  1.00  0.00     0.167 HD
BRANCH  14  16
HETATM   16  C   UNL     1     -43.064  56.057 -55.505  1.00  0.00     0.036 A 
HETATM   17  C   UNL     1     -42.767  57.437 -55.528  1.00  0.00     0.032 A 
HETATM   18  C   UNL     1     -42.529  58.122 -56.729  1.00  0.00     0.042 A 
HETATM   19  C   UNL     1     -42.582  57.404 -57.899  1.00  0.00     0.105 A 
HETATM   20  C   UNL     1     -42.855  56.061 -57.900  1.00  0.00     0.107 A 
HETATM   21  O   UNL     1     -42.374  57.894 -59.149  1.00  0.00    -0.323 OA
HETATM   22  C   UNL     1     -43.095  55.366 -56.731  1.00  0.00     0.069 A 
HETATM   23  O   UNL     1     -42.854  55.530 -59.152  1.00  0.00    -0.323 OA
HETATM   24  C   UNL     1     -42.545  56.700 -59.940  1.00  0.00     0.352 A 
ENDBRANCH  14  16
ENDBRANCH   1  14
TORSDOF 2
ENDMDL
MODEL 3
REMARK VINA RESULT:      -7.9      3.585      6.629
REMARK  2 active torsions:
REMARK  status: ('A' for Active; 'I' for Inactive)
REMARK    1  A    between atoms: C_2  and  N_3 
REMARK    2  A    between atoms: N_3  and  C_4 
ROOT
HETATM    1  C   UNL     1     -42.329  57.231 -54.482  1.00  0.00     0.143 A 
HETATM    2  N   UNL     1     -42.061  58.140 -53.514  1.00  0.00    -0.223 NA
HETATM    3  C   UNL     1     -41.790  59.409 -53.844  1.00  0.00     0.236 A 
HETATM    4  N   UNL     1     -41.742  59.931 -55.065  1.00  0.00    -0.234 NA
HETATM    5  C   UNL     1     -42.022  59.029 -56.016  1.00  0.00     0.114 A 
HETATM    6  C   UNL     1     -42.335  57.686 -55.832  1.00  0.00     0.053 A 
HETATM    7  S   UNL     1     -42.003  59.500 -57.652  1.00  0.00    -0.073 SA
HETATM    8  C   UNL     1     -42.426  57.942 -58.167  1.00  0.00    -0.008 A 
HETATM    9  C   UNL     1     -42.610  57.058 -57.117  1.00  0.00    -0.028 A 
HETATM   10  C   UNL     1     -43.017  55.633 -57.376  1.00  0.00     0.041 C 
HETATM   11  C   UNL     1     -43.519  55.410 -58.811  1.00  0.00     0.005 C 
HETATM   12  C   UNL     1     -42.629  56.109 -59.842  1.00  0.00     0.005 C 
HETATM   13  C   UNL     1     -42.611  57.627 -59.620  1.00  0.00     0.047 C 
ENDROOT
BRANCH   1  14
HETATM   14  N   UNL     1     -42.577  55.890 -54.148  1.00  0.00    -0.340 N 
HETATM   15  H   UNL     1     -43.468  55.559 -54.480  1.00  0.00     0.167 HD
BRANCH  14  16
HETATM   16  C   UNL     1     -41.778  54.870 -53.594  1.00  0.00     0.036 A 
HETATM   17  C   UNL     1     -41.328  54.860 -52.256  1.00  0.00     0.032 A 
HETATM   18  C   UNL     1     -40.557  53.806 -51.744  1.00  0.00     0.042 A 
HETATM   19  C   UNL     1     -40.255  52.763 -52.585  1.00  0.00     0.105 A 
HETATM   20  C   UNL     1     -40.692  52.745 -53.884  1.00  0.00     0.107 A 
HETATM   21  O   UNL     1     -39.528  51.660 -52.265  1.00  0.00    -0.323 OA
HETATM   22  C   UNL     1     -41.451  53.772 -54.412  1.00  0.00     0.069 A 
HETATM   23  O   UNL     1     -40.299  51.626 -54.551  1.00  0.00    -0.323 OA
HETATM   24  C   UNL     1     -39.562  50.942 -53.515  1.00  0.00     0.352 A 
ENDBRANCH  14  16
ENDBRANCH   1  14
TORSDOF 2
ENDMDL
MODEL 4
REMARK VINA RESULT:      -7.8      3.637      6.505
REMARK  2 active torsions:
REMARK  status: ('A' for Active; 'I' for Inactive)
REMARK    1  A    between atoms: C_2  and  N_3 
REMARK    2  A    between atoms: N_3  and  C_4 
ROOT
HETATM    1  C   UNL     1     -41.988  55.799 -52.964  1.00  0.00     0.143 A 
HETATM    2  N   UNL     1     -42.165  55.958 -51.630  1.00  0.00    -0.223 NA
HETATM    3  C   UNL     1     -43.156  56.735 -51.175  1.00  0.00     0.236 A 
HETATM    4  N   UNL     1     -44.041  57.416 -51.896  1.00  0.00    -0.234 NA
HETATM    5  C   UNL     1     -43.867  57.242 -53.214  1.00  0.00     0.114 A 
HETATM    6  C   UNL     1     -42.899  56.460 -53.836  1.00  0.00     0.053 A 
HETATM    7  S   UNL     1     -44.898  58.039 -54.309  1.00  0.00    -0.073 SA
HETATM    8  C   UNL     1     -44.104  57.359 -55.643  1.00  0.00    -0.008 A 
HETATM    9  C   UNL     1     -43.073  56.508 -55.280  1.00  0.00    -0.028 A 
HETATM   10  C   UNL     1     -42.269  55.788 -56.328  1.00  0.00     0.041 C 
HETATM   11  C   UNL     1     -42.927  55.831 -57.716  1.00  0.00     0.005 C 
HETATM   12  C   UNL     1     -43.469  57.224 -58.048  1.00  0.00     0.005 C 
HETATM   13  C   UNL     1     -44.547  57.653 -57.044  1.00  0.00     0.047 C 
ENDROOT
BRANCH   1  14
HETATM   14  N   UNL     1     -40.928  55.017 -53.451  1.00  0.00    -0.340 N 
HETATM   15  H   UNL     1     -40.183  55.566 -53.848  1.00  0.00     0.167 HD
BRANCH  14  16
HETATM   16  C   UNL     1     -40.615  53.646 -53.354  1.00  0.00     0.036 A 
HETATM   17  C   UNL     1     -40.520  52.779 -54.463  1.00  0.00     0.032 A 
HETATM   18  C   UNL     1     -40.179  51.426 -54.317  1.00  0.00     0.042 A 
HETATM   19  C   UNL     1     -39.925  50.962 -53.049  1.00  0.00     0.105 A 
HETATM   20  C   UNL     1     -39.998  51.789 -51.958  1.00  0.00     0.107 A 
HETATM   21  O   UNL     1     -39.577  49.691 -52.717  1.00  0.00    -0.323 OA
HETATM   22  C   UNL     1     -40.334  53.123 -52.077  1.00  0.00     0.069 A 
HETATM   23  O   UNL     1     -39.704  51.145 -50.796  1.00  0.00    -0.323 OA
HETATM   24  C   UNL     1     -39.435  49.814 -51.286  1.00  0.00     0.352 A 
ENDBRANCH  14  16
ENDBRANCH   1  14
TORSDOF 2
ENDMDL
MODEL 5
REMARK VINA RESULT:      -7.5     14.822     16.679
REMARK  2 active torsions:
REMARK  status: ('A' for Active; 'I' for Inactive)
REMARK    1  A    between atoms: C_2  and  N_3 
REMARK    2  A    between atoms: N_3  and  C_4 
ROOT
HETATM    1  C   UNL     1     -35.355  41.787 -55.334  1.00  0.00     0.143 A 
HETATM    2  N   UNL     1     -36.358  42.273 -54.563  1.00  0.00    -0.223 NA
HETATM    3  C   UNL     1     -36.404  41.973 -53.259  1.00  0.00     0.236 A 
HETATM    4  N   UNL     1     -35.553  41.216 -52.575  1.00  0.00    -0.234 NA
HETATM    5  C   UNL     1     -34.556  40.751 -53.343  1.00  0.00     0.114 A 
HETATM    6  C   UNL     1     -34.363  40.985 -54.700  1.00  0.00     0.053 A 
HETATM    7  S   UNL     1     -33.363  39.751 -52.653  1.00  0.00    -0.073 SA
HETATM    8  C   UNL     1     -32.543  39.610 -54.130  1.00  0.00    -0.008 A 
HETATM    9  C   UNL     1     -33.142  40.331 -55.149  1.00  0.00    -0.028 A 
HETATM   10  C   UNL     1     -32.543  40.351 -56.530  1.00  0.00     0.041 C 
HETATM   11  C   UNL     1     -31.102  39.815 -56.559  1.00  0.00     0.005 C 
HETATM   12  C   UNL     1     -30.949  38.544 -55.719  1.00  0.00     0.005 C 
HETATM   13  C   UNL     1     -31.282  38.810 -54.246  1.00  0.00     0.047 C 
ENDROOT
BRANCH   1  14
HETATM   14  N   UNL     1     -35.319  42.064 -56.710  1.00  0.00    -0.340 N 
HETATM   15  H   UNL     1     -34.576  42.694 -56.966  1.00  0.00     0.167 HD
BRANCH  14  16
HETATM   16  C   UNL     1     -35.995  41.524 -57.822  1.00  0.00     0.036 A 
HETATM   17  C   UNL     1     -36.806  42.281 -58.696  1.00  0.00     0.032 A 
HETATM   18  C   UNL     1     -37.437  41.701 -59.806  1.00  0.00     0.042 A 
HETATM   19  C   UNL     1     -37.236  40.361 -60.032  1.00  0.00     0.105 A 
HETATM   20  C   UNL     1     -36.443  39.609 -59.204  1.00  0.00     0.107 A 
HETATM   21  O   UNL     1     -37.759  39.634 -61.054  1.00  0.00    -0.323 OA
HETATM   22  C   UNL     1     -35.813  40.157 -58.104  1.00  0.00     0.069 A 
HETATM   23  O   UNL     1     -36.362  38.310 -59.600  1.00  0.00    -0.323 OA
HETATM   24  C   UNL     1     -37.198  38.334 -60.776  1.00  0.00     0.352 A 
ENDBRANCH  14  16
ENDBRANCH   1  14
TORSDOF 2
ENDMDL
MODEL 6
REMARK VINA RESULT:      -7.5      2.390      3.304
REMARK  2 active torsions:
REMARK  status: ('A' for Active; 'I' for Inactive)
REMARK    1  A    between atoms: C_2  and  N_3 
REMARK    2  A    between atoms: N_3  and  C_4 
ROOT
HETATM    1  C   UNL     1     -42.273  57.483 -54.894  1.00  0.00     0.143 A 
HETATM    2  N   UNL     1     -42.750  58.675 -54.459  1.00  0.00    -0.223 NA
HETATM    3  C   UNL     1     -42.857  58.914 -53.146  1.00  0.00     0.236 A 
HETATM    4  N   UNL     1     -42.544  58.093 -52.150  1.00  0.00    -0.234 NA
HETATM    5  C   UNL     1     -42.060  56.921 -52.588  1.00  0.00     0.114 A 
HETATM    6  C   UNL     1     -41.876  56.532 -53.911  1.00  0.00     0.053 A 
HETATM    7  S   UNL     1     -41.608  55.726 -51.464  1.00  0.00    -0.073 SA
HETATM    8  C   UNL     1     -41.139  54.660 -52.695  1.00  0.00    -0.008 A 
HETATM    9  C   UNL     1     -41.293  55.199 -53.961  1.00  0.00    -0.028 A 
HETATM   10  C   UNL     1     -40.903  54.411 -55.183  1.00  0.00     0.041 C 
HETATM   11  C   UNL     1     -40.040  53.185 -54.848  1.00  0.00     0.005 C 
HETATM   12  C   UNL     1     -40.579  52.422 -53.634  1.00  0.00     0.005 C 
HETATM   13  C   UNL     1     -40.580  53.306 -52.380  1.00  0.00     0.047 C 
ENDROOT
BRANCH   1  14
HETATM   14  N   UNL     1     -42.194  57.209 -56.269  1.00  0.00    -0.340 N 
HETATM   15  H   UNL     1     -41.260  56.988 -56.574  1.00  0.00     0.167 HD
BRANCH  14  16
HETATM   16  C   UNL     1     -43.163  57.020 -57.274  1.00  0.00     0.036 A 
HETATM   17  C   UNL     1     -44.208  57.931 -57.544  1.00  0.00     0.032 A 
HETATM   18  C   UNL     1     -45.133  57.709 -58.574  1.00  0.00     0.042 A 
HETATM   19  C   UNL     1     -44.990  56.573 -59.333  1.00  0.00     0.105 A 
HETATM   20  C   UNL     1     -43.976  55.681 -59.097  1.00  0.00     0.107 A 
HETATM   21  O   UNL     1     -45.783  56.197 -60.370  1.00  0.00    -0.323 OA
HETATM   22  C   UNL     1     -43.054  55.876 -58.087  1.00  0.00     0.069 A 
HETATM   23  O   UNL     1     -43.998  54.628 -59.958  1.00  0.00    -0.323 OA
HETATM   24  C   UNL     1     -45.147  54.964 -60.764  1.00  0.00     0.352 A 
ENDBRANCH  14  16
ENDBRANCH   1  14
TORSDOF 2
ENDMDL
MODEL 7
REMARK VINA RESULT:      -7.4      3.432      5.461
REMARK  2 active torsions:
REMARK  status: ('A' for Active; 'I' for Inactive)
REMARK    1  A    between atoms: C_2  and  N_3 
REMARK    2  A    between atoms: N_3  and  C_4 
ROOT
HETATM    1  C   UNL     1     -41.743  56.854 -53.392  1.00  0.00     0.143 A 
HETATM    2  N   UNL     1     -41.934  56.905 -54.733  1.00  0.00    -0.223 NA
HETATM    3  C   UNL     1     -41.716  55.817 -55.481  1.00  0.00     0.236 A 
HETATM    4  N   UNL     1     -41.310  54.621 -55.066  1.00  0.00    -0.234 NA
HETATM    5  C   UNL     1     -41.137  54.576 -53.737  1.00  0.00     0.114 A 
HETATM    6  C   UNL     1     -41.336  55.611 -52.829  1.00  0.00     0.053 A 
HETATM    7  S   UNL     1     -40.609  53.131 -53.008  1.00  0.00    -0.073 SA
HETATM    8  C   UNL     1     -40.644  53.827 -51.464  1.00  0.00    -0.008 A 
HETATM    9  C   UNL     1     -41.075  55.143 -51.476  1.00  0.00    -0.028 A 
HETATM   10  C   UNL     1     -41.198  55.921 -50.194  1.00  0.00     0.041 C 
HETATM   11  C   UNL     1     -41.144  55.024 -48.947  1.00  0.00     0.005 C 
HETATM   12  C   UNL     1     -40.040  53.968 -49.052  1.00  0.00     0.005 C 
HETATM   13  C   UNL     1     -40.277  53.035 -50.246  1.00  0.00     0.047 C 
ENDROOT
BRANCH   1  14
HETATM   14  N   UNL     1     -41.933  58.001 -52.604  1.00  0.00    -0.340 N 
HETATM   15  H   UNL     1     -41.153  58.637 -52.639  1.00  0.00     0.167 HD
BRANCH  14  16
HETATM   16  C   UNL     1     -43.042  58.523 -51.909  1.00  0.00     0.036 A 
HETATM   17  C   UNL     1     -44.274  57.849 -51.770  1.00  0.00     0.032 A 
HETATM   18  C   UNL     1     -45.340  58.401 -51.045  1.00  0.00     0.042 A 
HETATM   19  C   UNL     1     -45.149  59.627 -50.455  1.00  0.00     0.105 A 
HETATM   20  C   UNL     1     -43.957  60.294 -50.566  1.00  0.00     0.107 A 
HETATM   21  O   UNL     1     -46.061  60.310 -49.714  1.00  0.00    -0.323 OA
HETATM   22  C   UNL     1     -42.894  59.772 -51.276  1.00  0.00     0.069 A 
HETATM   23  O   UNL     1     -43.962  61.484 -49.906  1.00  0.00    -0.323 OA
HETATM   24  C   UNL     1     -45.301  61.486 -49.366  1.00  0.00     0.352 A 
ENDBRANCH  14  16
ENDBRANCH   1  14
TORSDOF 2
ENDMDL
MODEL 8
REMARK VINA RESULT:      -7.3      3.340      5.225
REMARK  2 active torsions:
REMARK  status: ('A' for Active; 'I' for Inactive)
REMARK    1  A    between atoms: C_2  and  N_3 
REMARK    2  A    between atoms: N_3  and  C_4 
ROOT
HETATM    1  C   UNL     1     -43.477  55.611 -53.072  1.00  0.00     0.143 A 
HETATM    2  N   UNL     1     -43.913  55.508 -54.351  1.00  0.00    -0.223 NA
HETATM    3  C   UNL     1     -43.288  54.689 -55.206  1.00  0.00     0.236 A 
HETATM    4  N   UNL     1     -42.234  53.919 -54.960  1.00  0.00    -0.234 NA
HETATM    5  C   UNL     1     -41.818  54.016 -53.689  1.00  0.00     0.114 A 
HETATM    6  C   UNL     1     -42.368  54.806 -52.684  1.00  0.00     0.053 A 
HETATM    7  S   UNL     1     -40.470  53.112 -53.175  1.00  0.00    -0.073 SA
HETATM    8  C   UNL     1     -40.583  53.726 -51.600  1.00  0.00    -0.008 A 
HETATM    9  C   UNL     1     -41.648  54.597 -51.437  1.00  0.00    -0.028 A 
HETATM   10  C   UNL     1     -41.927  55.224 -50.097  1.00  0.00     0.041 C 
HETATM   11  C   UNL     1     -41.166  54.539 -48.951  1.00  0.00     0.005 C 
HETATM   12  C   UNL     1     -39.710  54.248 -49.326  1.00  0.00     0.005 C 
HETATM   13  C   UNL     1     -39.628  53.299 -50.528  1.00  0.00     0.047 C 
ENDROOT
BRANCH   1  14
HETATM   14  N   UNL     1     -44.102  56.496 -52.178  1.00  0.00    -0.340 N 
HETATM   15  H   UNL     1     -44.848  56.066 -51.654  1.00  0.00     0.167 HD
BRANCH  14  16
HETATM   16  C   UNL     1     -43.802  57.802 -51.744  1.00  0.00     0.036 A 
HETATM   17  C   UNL     1     -42.544  58.420 -51.912  1.00  0.00     0.032 A 
HETATM   18  C   UNL     1     -42.303  59.734 -51.486  1.00  0.00     0.042 A 
HETATM   19  C   UNL     1     -43.340  60.420 -50.901  1.00  0.00     0.105 A 
HETATM   20  C   UNL     1     -44.574  59.845 -50.739  1.00  0.00     0.107 A 
HETATM   21  O   UNL     1     -43.295  61.696 -50.435  1.00  0.00    -0.323 OA
HETATM   22  C   UNL     1     -44.834  58.552 -51.149  1.00  0.00     0.069 A 
HETATM   23  O   UNL     1     -45.467  60.686 -50.150  1.00  0.00    -0.323 OA
HETATM   24  C   UNL     1     -44.648  61.859 -49.962  1.00  0.00     0.352 A 
ENDBRANCH  14  16
ENDBRANCH   1  14
TORSDOF 2
ENDMDL
MODEL 9
REMARK VINA RESULT:      -7.2      3.919      7.340
REMARK  2 active torsions:
REMARK  status: ('A' for Active; 'I' for Inactive)
REMARK    1  A    between atoms: C_2  and  N_3 
REMARK    2  A    between atoms: N_3  and  C_4 
ROOT
HETATM    1  C   UNL     1     -43.221  55.780 -57.661  1.00  0.00     0.143 A 
HETATM    2  N   UNL     1     -43.375  55.057 -58.797  1.00  0.00    -0.223 NA
HETATM    3  C   UNL     1     -43.211  55.644 -59.989  1.00  0.00     0.236 A 
HETATM    4  N   UNL     1     -42.904  56.914 -60.227  1.00  0.00    -0.234 NA
HETATM    5  C   UNL     1     -42.740  57.619 -59.097  1.00  0.00     0.114 A 
HETATM    6  C   UNL     1     -42.860  57.151 -57.792  1.00  0.00     0.053 A 
HETATM    7  S   UNL     1     -42.351  59.273 -59.188  1.00  0.00    -0.073 SA
HETATM    8  C   UNL     1     -42.313  59.418 -57.500  1.00  0.00    -0.008 A 
HETATM    9  C   UNL     1     -42.567  58.222 -56.851  1.00  0.00    -0.028 A 
HETATM   10  C   UNL     1     -42.550  58.146 -55.348  1.00  0.00     0.041 C 
HETATM   11  C   UNL     1     -41.901  59.379 -54.699  1.00  0.00     0.005 C 
HETATM   12  C   UNL     1     -42.369  60.681 -55.354  1.00  0.00     0.005 C 
HETATM   13  C   UNL     1     -41.987  60.723 -56.839  1.00  0.00     0.047 C 
ENDROOT
BRANCH   1  14
HETATM   14  N   UNL     1     -43.428  55.183 -56.407  1.00  0.00    -0.340 N 
HETATM   15  H   UNL     1     -44.386  54.913 -56.251  1.00  0.00     0.167 HD
BRANCH  14  16
HETATM   16  C   UNL     1     -42.557  54.736 -55.393  1.00  0.00     0.036 A 
HETATM   17  C   UNL     1     -41.173  54.532 -55.577  1.00  0.00     0.032 A 
HETATM   18  C   UNL     1     -40.342  54.112 -54.528  1.00  0.00     0.042 A 
HETATM   19  C   UNL     1     -40.915  53.911 -53.296  1.00  0.00     0.105 A 
HETATM   20  C   UNL     1     -42.255  54.115 -53.090  1.00  0.00     0.107 A 
HETATM   21  O   UNL     1     -40.271  53.511 -52.168  1.00  0.00    -0.323 OA
HETATM   22  C   UNL     1     -43.093  54.527 -54.108  1.00  0.00     0.069 A 
HETATM   23  O   UNL     1     -42.628  53.873 -51.805  1.00  0.00    -0.323 OA
HETATM   24  C   UNL     1     -41.362  53.492 -51.225  1.00  0.00     0.352 A 
ENDBRANCH  14  16
ENDBRANCH   1  14
TORSDOF 2
ENDMDL
MODEL 10
REMARK VINA RESULT:      -7.2      2.612      3.758
REMARK  2 active torsions:
REMARK  status: ('A' for Active; 'I' for Inactive)
REMARK    1  A    between atoms: C_2  and  N_3 
REMARK    2  A    between atoms: N_3  and  C_4 
ROOT
HETATM    1  C   UNL     1     -41.827  57.664 -54.654  1.00  0.00     0.143 A 
HETATM    2  N   UNL     1     -41.909  58.972 -54.999  1.00  0.00    -0.223 NA
HETATM    3  C   UNL     1     -41.746  59.920 -54.068  1.00  0.00     0.236 A 
HETATM    4  N   UNL     1     -41.502  59.745 -52.773  1.00  0.00    -0.234 NA
HETATM    5  C   UNL     1     -41.409  58.449 -52.443  1.00  0.00     0.114 A 
HETATM    6  C   UNL     1     -41.539  57.356 -53.294  1.00  0.00     0.053 A 
HETATM    7  S   UNL     1     -41.109  58.014 -50.825  1.00  0.00    -0.073 SA
HETATM    8  C   UNL     1     -41.125  56.362 -51.204  1.00  0.00    -0.008 A 
HETATM    9  C   UNL     1     -41.331  56.120 -52.552  1.00  0.00    -0.028 A 
HETATM   10  C   UNL     1     -41.351  54.713 -53.084  1.00  0.00     0.041 C 
HETATM   11  C   UNL     1     -40.789  53.691 -52.083  1.00  0.00     0.005 C 
HETATM   12  C   UNL     1     -41.310  53.937 -50.664  1.00  0.00     0.005 C 
HETATM   13  C   UNL     1     -40.890  55.321 -50.152  1.00  0.00     0.047 C 
ENDROOT
BRANCH   1  14
HETATM   14  N   UNL     1     -42.035  56.662 -55.616  1.00  0.00    -0.340 N 
HETATM   15  H   UNL     1     -41.934  55.732 -55.244  1.00  0.00     0.167 HD
BRANCH  14  16
HETATM   16  C   UNL     1     -42.511  56.680 -56.942  1.00  0.00     0.036 A 
HETATM   17  C   UNL     1     -42.302  57.748 -57.840  1.00  0.00     0.032 A 
HETATM   18  C   UNL     1     -42.774  57.707 -59.160  1.00  0.00     0.042 A 
HETATM   19  C   UNL     1     -43.445  56.579 -59.567  1.00  0.00     0.105 A 
HETATM   20  C   UNL     1     -43.648  55.524 -58.716  1.00  0.00     0.107 A 
HETATM   21  O   UNL     1     -43.966  56.359 -60.803  1.00  0.00    -0.323 OA
HETATM   22  C   UNL     1     -43.195  55.543 -57.412  1.00  0.00     0.069 A 
HETATM   23  O   UNL     1     -44.323  54.500 -59.307  1.00  0.00    -0.323 OA
HETATM   24  C   UNL     1     -44.519  55.037 -60.632  1.00  0.00     0.352 A 
ENDBRANCH  14  16
ENDBRANCH   1  14
TORSDOF 2
ENDMDL
