MODEL 1
REMARK VINA RESULT:      -8.5      0.000      0.000
REMARK  5 active torsions:
REMARK  status: ('A' for Active; 'I' for Inactive)
REMARK    1  A    between atoms: C_2  and  N_3 
REMARK    2  A    between atoms: C_11  and  C_12 
REMARK    3  A    between atoms: C_14  and  C_15 
REMARK    4  A    between atoms: C_15  and  O_16 
REMARK    5  A    between atoms: O_16  and  C_17 
ROOT
HETATM    1  N   UNL     1     -39.908  52.233 -53.340  1.00  0.00    -0.067 N 
HETATM    2  H   UNL     1     -39.324  52.985 -53.732  1.00  0.00     0.280 HD
HETATM    3  C   UNL     1     -41.308  52.445 -53.917  1.00  0.00     0.281 C 
HETATM    4  C   UNL     1     -41.957  53.643 -53.318  1.00  0.00     0.018 A 
HETATM    5  C   UNL     1     -41.525  54.303 -52.181  1.00  0.00    -0.023 A 
HETATM    6  C   UNL     1     -42.387  55.398 -51.858  1.00  0.00     0.073 A 
HETATM    7  C   UNL     1     -43.431  55.503 -52.749  1.00  0.00     0.088 A 
HETATM    8  N   UNL     1     -44.395  56.448 -52.651  1.00  0.00    -0.357 N 
HETATM    9  C   UNL     1     -44.073  57.651 -51.895  1.00  0.00     0.243 C 
HETATM   10  N   UNL     1     -43.298  57.289 -50.732  1.00  0.00    -0.330 N 
HETATM   11  C   UNL     1     -42.312  56.341 -50.758  1.00  0.00     0.256 C 
HETATM   12  O   UNL     1     -41.450  56.282 -49.888  1.00  0.00    -0.267 OA
HETATM   13  S   UNL     1     -43.373  54.325 -53.972  1.00  0.00    -0.074 SA
HETATM   14  C   UNL     1     -40.296  53.867 -51.446  1.00  0.00     0.068 C 
HETATM   15  C   UNL     1     -39.901  52.428 -51.820  1.00  0.00     0.240 C 
HETATM   16  H   UNL     1     -44.906  56.664 -53.503  1.00  0.00     0.162 HD
HETATM   17  H   UNL     1     -43.209  57.966 -49.991  1.00  0.00     0.165 HD
ENDROOT
BRANCH   9  18
HETATM   18  C   UNL     1     -43.359  58.727 -52.662  1.00  0.00     0.095 A 
HETATM   19  O   UNL     1     -43.689  58.863 -53.984  1.00  0.00    -0.313 OA
HETATM   20  C   UNL     1     -42.936  59.882 -54.490  1.00  0.00     0.077 A 
HETATM   21  C   UNL     1     -42.147  60.421 -53.497  1.00  0.00     0.037 A 
HETATM   22  C   UNL     1     -42.423  59.685 -52.320  1.00  0.00     0.039 A 
BRANCH  20  23
HETATM   23  C   UNL     1     -43.134  60.216 -55.926  1.00  0.00     0.240 C 
BRANCH  23  24
HETATM   24  O   UNL     1     -42.139  59.498 -56.671  1.00  0.00    -0.341 OA
BRANCH  24  25
HETATM   25  C   UNL     1     -42.641  58.375 -57.281  1.00  0.00     0.112 A 
HETATM   26  C   UNL     1     -42.428  57.081 -56.784  1.00  0.00     0.070 A 
HETATM   27 CL   UNL     1     -41.509  56.783 -55.353  1.00  0.00    -0.081 Cl
HETATM   28  C   UNL     1     -42.931  55.970 -57.467  1.00  0.00     0.050 A 
HETATM   29  C   UNL     1     -43.624  56.148 -58.660  1.00  0.00     0.037 A 
HETATM   30 CL   UNL     1     -44.231  54.779 -59.506  1.00  0.00    -0.084 Cl
HETATM   31  C   UNL     1     -43.813  57.423 -59.188  1.00  0.00     0.050 A 
HETATM   32  C   UNL     1     -43.314  58.532 -58.503  1.00  0.00     0.070 A 
HETATM   33 CL   UNL     1     -43.548  60.096 -59.202  1.00  0.00    -0.081 Cl
ENDBRANCH  24  25
ENDBRANCH  23  24
ENDBRANCH  20  23
ENDBRANCH   9  18
BRANCH   1  34
HETATM   34  C   UNL     1     -39.297  50.910 -53.726  1.00  0.00     0.231 C 
HETATM   35  C   UNL     1     -40.313  50.017 -54.415  1.00  0.00     0.034 C 
ENDBRANCH   1  34
TORSDOF 5
ENDMDL
MODEL 2
REMARK VINA RESULT:      -8.5      2.975      7.085
REMARK  5 active torsions:
REMARK  status: ('A' for Active; 'I' for Inactive)
REMARK    1  A    between atoms: C_2  and  N_3 
REMARK    2  A    between atoms: C_11  and  C_12 
REMARK    3  A    between atoms: C_14  and  C_15 
REMARK    4  A    between atoms: C_15  and  O_16 
REMARK    5  A    between atoms: O_16  and  C_17 
ROOT
HETATM    1  N   UNL     1     -45.831  56.501 -59.305  1.00  0.00    -0.067 N 
HETATM    2  H   UNL     1     -46.253  55.893 -58.591  1.00  0.00     0.280 HD
HETATM    3  C   UNL     1     -44.326  56.485 -59.035  1.00  0.00     0.281 C 
HETATM    4  C   UNL     1     -43.999  57.243 -57.796  1.00  0.00     0.018 A 
HETATM    5  C   UNL     1     -44.852  58.110 -57.139  1.00  0.00    -0.023 A 
HETATM    6  C   UNL     1     -44.219  58.696 -55.997  1.00  0.00     0.073 A 
HETATM    7  C   UNL     1     -42.922  58.259 -55.857  1.00  0.00     0.088 A 
HETATM    8  N   UNL     1     -42.104  58.680 -54.864  1.00  0.00    -0.357 N 
HETATM    9  C   UNL     1     -42.734  59.216 -53.665  1.00  0.00     0.243 C 
HETATM   10  N   UNL     1     -43.875  60.015 -54.044  1.00  0.00    -0.330 N 
HETATM   11  C   UNL     1     -44.741  59.653 -55.040  1.00  0.00     0.256 C 
HETATM   12  O   UNL     1     -45.864  60.137 -55.126  1.00  0.00    -0.267 OA
HETATM   13  S   UNL     1     -42.468  57.146 -57.057  1.00  0.00    -0.074 SA
HETATM   14  C   UNL     1     -46.250  58.344 -57.622  1.00  0.00     0.068 C 
HETATM   15  C   UNL     1     -46.418  57.900 -59.085  1.00  0.00     0.240 C 
HETATM   16  H   UNL     1     -41.317  58.075 -54.637  1.00  0.00     0.162 HD
HETATM   17  H   UNL     1     -44.263  60.644 -53.359  1.00  0.00     0.165 HD
ENDROOT
BRANCH   9  18
HETATM   18  C   UNL     1     -43.147  58.201 -52.639  1.00  0.00     0.095 A 
HETATM   19  O   UNL     1     -42.473  57.009 -52.646  1.00  0.00    -0.313 OA
HETATM   20  C   UNL     1     -42.996  56.238 -51.649  1.00  0.00     0.077 A 
HETATM   21  C   UNL     1     -43.980  56.935 -50.983  1.00  0.00     0.037 A 
HETATM   22  C   UNL     1     -44.074  58.199 -51.613  1.00  0.00     0.039 A 
BRANCH  20  23
HETATM   23  C   UNL     1     -42.406  54.885 -51.465  1.00  0.00     0.240 C 
BRANCH  23  24
HETATM   24  O   UNL     1     -41.031  54.961 -51.867  1.00  0.00    -0.341 OA
BRANCH  24  25
HETATM   25  C   UNL     1     -40.584  53.803 -52.454  1.00  0.00     0.112 A 
HETATM   26  C   UNL     1     -40.618  53.592 -53.840  1.00  0.00     0.070 A 
HETATM   27 CL   UNL     1     -41.233  54.775 -54.938  1.00  0.00    -0.081 Cl
HETATM   28  C   UNL     1     -40.184  52.378 -54.380  1.00  0.00     0.050 A 
HETATM   29  C   UNL     1     -39.739  51.366 -53.536  1.00  0.00     0.037 A 
HETATM   30 CL   UNL     1     -39.217  49.869 -54.203  1.00  0.00    -0.084 Cl
HETATM   31  C   UNL     1     -39.732  51.545 -52.155  1.00  0.00     0.050 A 
HETATM   32  C   UNL     1     -40.162  52.759 -51.617  1.00  0.00     0.070 A 
HETATM   33 CL   UNL     1     -40.161  52.934 -49.897  1.00  0.00    -0.081 Cl
ENDBRANCH  24  25
ENDBRANCH  23  24
ENDBRANCH  20  23
ENDBRANCH   9  18
BRANCH   1  34
HETATM   34  C   UNL     1     -46.199  55.960 -60.664  1.00  0.00     0.231 C 
HETATM   35  C   UNL     1     -45.110  55.052 -61.206  1.00  0.00     0.034 C 
ENDBRANCH   1  34
TORSDOF 5
ENDMDL
MODEL 3
REMARK VINA RESULT:      -8.4      3.456      7.659
REMARK  5 active torsions:
REMARK  status: ('A' for Active; 'I' for Inactive)
REMARK    1  A    between atoms: C_2  and  N_3 
REMARK    2  A    between atoms: C_11  and  C_12 
REMARK    3  A    between atoms: C_14  and  C_15 
REMARK    4  A    between atoms: C_15  and  O_16 
REMARK    5  A    between atoms: O_16  and  C_17 
ROOT
HETATM    1  N   UNL     1     -41.389  62.527 -57.743  1.00  0.00    -0.067 N 
HETATM    2  H   UNL     1     -40.773  62.340 -56.942  1.00  0.00     0.280 HD
HETATM    3  C   UNL     1     -42.793  62.696 -57.162  1.00  0.00     0.281 C 
HETATM    4  C   UNL     1     -43.337  61.393 -56.691  1.00  0.00     0.018 A 
HETATM    5  C   UNL     1     -42.818  60.150 -57.004  1.00  0.00    -0.023 A 
HETATM    6  C   UNL     1     -43.592  59.101 -56.413  1.00  0.00     0.073 A 
HETATM    7  C   UNL     1     -44.660  59.597 -55.701  1.00  0.00     0.088 A 
HETATM    8  N   UNL     1     -45.553  58.807 -55.062  1.00  0.00    -0.357 N 
HETATM    9  C   UNL     1     -45.122  57.459 -54.716  1.00  0.00     0.243 C 
HETATM   10  N   UNL     1     -44.330  56.922 -55.796  1.00  0.00    -0.330 N 
HETATM   11  C   UNL     1     -43.410  57.664 -56.488  1.00  0.00     0.256 C 
HETATM   12  O   UNL     1     -42.521  57.138 -57.148  1.00  0.00    -0.267 OA
HETATM   13  S   UNL     1     -44.729  61.294 -55.715  1.00  0.00    -0.074 SA
HETATM   14  C   UNL     1     -41.594  60.007 -57.853  1.00  0.00     0.068 C 
HETATM   15  C   UNL     1     -41.311  61.293 -58.648  1.00  0.00     0.240 C 
HETATM   16  H   UNL     1     -46.082  59.238 -54.307  1.00  0.00     0.162 HD
HETATM   17  H   UNL     1     -44.166  55.927 -55.817  1.00  0.00     0.165 HD
ENDROOT
BRANCH   9  18
HETATM   18  C   UNL     1     -44.369  57.331 -53.424  1.00  0.00     0.095 A 
HETATM   19  O   UNL     1     -43.791  56.116 -53.165  1.00  0.00    -0.313 OA
HETATM   20  C   UNL     1     -43.165  56.210 -51.957  1.00  0.00     0.077 A 
HETATM   21  C   UNL     1     -43.310  57.484 -51.451  1.00  0.00     0.037 A 
HETATM   22  C   UNL     1     -44.077  58.207 -52.395  1.00  0.00     0.039 A 
BRANCH  20  23
HETATM   23  C   UNL     1     -42.456  54.997 -51.471  1.00  0.00     0.240 C 
BRANCH  23  24
HETATM   24  O   UNL     1     -41.126  55.036 -52.009  1.00  0.00    -0.341 OA
BRANCH  24  25
HETATM   25  C   UNL     1     -40.713  53.819 -52.493  1.00  0.00     0.112 A 
HETATM   26  C   UNL     1     -40.265  52.783 -51.662  1.00  0.00     0.070 A 
HETATM   27 CL   UNL     1     -40.188  52.947 -49.945  1.00  0.00    -0.081 Cl
HETATM   28  C   UNL     1     -39.821  51.578 -52.213  1.00  0.00     0.050 A 
HETATM   29  C   UNL     1     -39.800  51.415 -53.594  1.00  0.00     0.037 A 
HETATM   30 CL   UNL     1     -39.241  49.936 -54.270  1.00  0.00    -0.084 Cl
HETATM   31  C   UNL     1     -40.208  52.447 -54.436  1.00  0.00     0.050 A 
HETATM   32  C   UNL     1     -40.655  53.648 -53.885  1.00  0.00     0.070 A 
HETATM   33 CL   UNL     1     -41.129  54.913 -54.963  1.00  0.00    -0.081 Cl
ENDBRANCH  24  25
ENDBRANCH  23  24
ENDBRANCH  20  23
ENDBRANCH   9  18
BRANCH   1  34
HETATM   34  C   UNL     1     -40.884  63.759 -58.451  1.00  0.00     0.231 C 
HETATM   35  C   UNL     1     -39.586  63.477 -59.185  1.00  0.00     0.034 C 
ENDBRANCH   1  34
TORSDOF 5
ENDMDL
MODEL 4
REMARK VINA RESULT:      -8.1      1.129      2.077
REMARK  5 active torsions:
REMARK  status: ('A' for Active; 'I' for Inactive)
REMARK    1  A    between atoms: C_2  and  N_3 
REMARK    2  A    between atoms: C_11  and  C_12 
REMARK    3  A    between atoms: C_14  and  C_15 
REMARK    4  A    between atoms: C_15  and  O_16 
REMARK    5  A    between atoms: O_16  and  C_17 
ROOT
HETATM    1  N   UNL     1     -39.993  52.480 -53.463  1.00  0.00    -0.067 N 
HETATM    2  H   UNL     1     -39.394  53.243 -53.807  1.00  0.00     0.280 HD
HETATM    3  C   UNL     1     -41.249  52.510 -54.335  1.00  0.00     0.281 C 
HETATM    4  C   UNL     1     -42.094  53.694 -54.015  1.00  0.00     0.018 A 
HETATM    5  C   UNL     1     -41.961  54.491 -52.893  1.00  0.00    -0.023 A 
HETATM    6  C   UNL     1     -42.947  55.528 -52.874  1.00  0.00     0.073 A 
HETATM    7  C   UNL     1     -43.781  55.455 -53.966  1.00  0.00     0.088 A 
HETATM    8  N   UNL     1     -44.808  56.313 -54.171  1.00  0.00    -0.357 N 
HETATM    9  C   UNL     1     -44.739  57.605 -53.501  1.00  0.00     0.243 C 
HETATM   10  N   UNL     1     -44.207  57.423 -52.171  1.00  0.00    -0.330 N 
HETATM   11  C   UNL     1     -43.174  56.570 -51.891  1.00  0.00     0.256 C 
HETATM   12  O   UNL     1     -42.515  56.670 -50.862  1.00  0.00    -0.267 OA
HETATM   13  S   UNL     1     -43.382  54.181 -55.016  1.00  0.00    -0.074 SA
HETATM   14  C   UNL     1     -40.890  54.238 -51.879  1.00  0.00     0.068 C 
HETATM   15  C   UNL     1     -40.325  52.813 -52.005  1.00  0.00     0.240 C 
HETATM   16  H   UNL     1     -45.140  56.403 -55.129  1.00  0.00     0.162 HD
HETATM   17  H   UNL     1     -44.326  58.170 -51.505  1.00  0.00     0.165 HD
ENDROOT
BRANCH   9  18
HETATM   18  C   UNL     1     -43.956  58.666 -54.217  1.00  0.00     0.095 A 
HETATM   19  O   UNL     1     -44.159  58.777 -55.566  1.00  0.00    -0.313 OA
HETATM   20  C   UNL     1     -43.361  59.787 -56.019  1.00  0.00     0.077 A 
HETATM   21  C   UNL     1     -42.669  60.346 -54.966  1.00  0.00     0.037 A 
HETATM   22  C   UNL     1     -43.055  59.632 -53.807  1.00  0.00     0.039 A 
BRANCH  20  23
HETATM   23  C   UNL     1     -43.422  60.093 -57.473  1.00  0.00     0.240 C 
BRANCH  23  24
HETATM   24  O   UNL     1     -42.441  59.271 -58.122  1.00  0.00    -0.341 OA
BRANCH  24  25
HETATM   25  C   UNL     1     -42.990  58.167 -58.727  1.00  0.00     0.112 A 
HETATM   26  C   UNL     1     -43.772  58.246 -59.888  1.00  0.00     0.070 A 
HETATM   27 CL   UNL     1     -44.120  59.749 -60.663  1.00  0.00    -0.081 Cl
HETATM   28  C   UNL     1     -44.336  57.093 -60.439  1.00  0.00     0.050 A 
HETATM   29  C   UNL     1     -44.142  55.863 -59.818  1.00  0.00     0.037 A 
HETATM   30 CL   UNL     1     -44.848  54.447 -60.492  1.00  0.00    -0.084 Cl
HETATM   31  C   UNL     1     -43.398  55.771 -58.645  1.00  0.00     0.050 A 
HETATM   32  C   UNL     1     -42.831  56.922 -58.097  1.00  0.00     0.070 A 
HETATM   33 CL   UNL     1     -41.935  56.770 -56.627  1.00  0.00    -0.081 Cl
ENDBRANCH  24  25
ENDBRANCH  23  24
ENDBRANCH  20  23
ENDBRANCH   9  18
BRANCH   1  34
HETATM   34  C   UNL     1     -39.223  51.188 -53.570  1.00  0.00     0.231 C 
HETATM   35  C   UNL     1     -40.013  50.141 -54.333  1.00  0.00     0.034 C 
ENDBRANCH   1  34
TORSDOF 5
ENDMDL
MODEL 5
REMARK VINA RESULT:      -7.9      4.192      9.183
REMARK  5 active torsions:
REMARK  status: ('A' for Active; 'I' for Inactive)
REMARK    1  A    between atoms: C_2  and  N_3 
REMARK    2  A    between atoms: C_11  and  C_12 
REMARK    3  A    between atoms: C_14  and  C_15 
REMARK    4  A    between atoms: C_15  and  O_16 
REMARK    5  A    between atoms: O_16  and  C_17 
ROOT
HETATM    1  N   UNL     1     -46.325  61.122 -61.029  1.00  0.00    -0.067 N 
HETATM    2  H   UNL     1     -45.996  61.540 -60.149  1.00  0.00     0.280 HD
HETATM    3  C   UNL     1     -47.024  59.819 -60.640  1.00  0.00     0.281 C 
HETATM    4  C   UNL     1     -46.036  58.796 -60.199  1.00  0.00     0.018 A 
HETATM    5  C   UNL     1     -44.670  58.863 -60.400  1.00  0.00    -0.023 A 
HETATM    6  C   UNL     1     -44.011  57.705 -59.879  1.00  0.00     0.073 A 
HETATM    7  C   UNL     1     -44.906  56.817 -59.328  1.00  0.00     0.088 A 
HETATM    8  N   UNL     1     -44.534  55.635 -58.783  1.00  0.00    -0.357 N 
HETATM    9  C   UNL     1     -43.152  55.513 -58.339  1.00  0.00     0.243 C 
HETATM   10  N   UNL     1     -42.287  56.171 -59.288  1.00  0.00    -0.330 N 
HETATM   11  C   UNL     1     -42.601  57.365 -59.880  1.00  0.00     0.256 C 
HETATM   12  O   UNL     1     -41.745  58.071 -60.402  1.00  0.00    -0.267 OA
HETATM   13  S   UNL     1     -46.511  57.365 -59.408  1.00  0.00    -0.074 SA
HETATM   14  C   UNL     1     -44.039  60.039 -61.078  1.00  0.00     0.068 C 
HETATM   15  C   UNL     1     -45.076  60.849 -61.874  1.00  0.00     0.240 C 
HETATM   16  H   UNL     1     -45.181  55.218 -58.118  1.00  0.00     0.162 HD
HETATM   17  H   UNL     1     -41.300  55.967 -59.254  1.00  0.00     0.165 HD
ENDROOT
BRANCH   9  18
HETATM   18  C   UNL     1     -42.867  56.025 -56.957  1.00  0.00     0.095 A 
HETATM   19  O   UNL     1     -42.925  55.112 -55.937  1.00  0.00    -0.313 OA
HETATM   20  C   UNL     1     -42.639  55.774 -54.779  1.00  0.00     0.077 A 
HETATM   21  C   UNL     1     -42.369  57.098 -55.049  1.00  0.00     0.037 A 
HETATM   22  C   UNL     1     -42.508  57.260 -56.448  1.00  0.00     0.039 A 
BRANCH  20  23
HETATM   23  C   UNL     1     -42.638  54.971 -53.527  1.00  0.00     0.240 C 
BRANCH  23  24
HETATM   24  O   UNL     1     -41.324  55.067 -52.960  1.00  0.00    -0.341 OA
BRANCH  24  25
HETATM   25  C   UNL     1     -40.881  53.875 -52.440  1.00  0.00     0.112 A 
HETATM   26  C   UNL     1     -40.935  53.578 -51.071  1.00  0.00     0.070 A 
HETATM   27 CL   UNL     1     -41.564  54.691 -49.910  1.00  0.00    -0.081 Cl
HETATM   28  C   UNL     1     -40.436  52.363 -50.592  1.00  0.00     0.050 A 
HETATM   29  C   UNL     1     -39.859  51.457 -51.476  1.00  0.00     0.037 A 
HETATM   30 CL   UNL     1     -39.234  49.968 -50.882  1.00  0.00    -0.084 Cl
HETATM   31  C   UNL     1     -39.764  51.751 -52.834  1.00  0.00     0.050 A 
HETATM   32  C   UNL     1     -40.267  52.962 -53.312  1.00  0.00     0.070 A 
HETATM   33 CL   UNL     1     -40.109  53.302 -54.999  1.00  0.00    -0.081 Cl
ENDBRANCH  24  25
ENDBRANCH  23  24
ENDBRANCH  20  23
ENDBRANCH   9  18
BRANCH   1  34
HETATM   34  C   UNL     1     -47.241  62.110 -61.707  1.00  0.00     0.231 C 
HETATM   35  C   UNL     1     -46.963  63.527 -61.239  1.00  0.00     0.034 C 
ENDBRANCH   1  34
TORSDOF 5
ENDMDL
MODEL 6
REMARK VINA RESULT:      -7.9      1.586      2.476
REMARK  5 active torsions:
REMARK  status: ('A' for Active; 'I' for Inactive)
REMARK    1  A    between atoms: C_2  and  N_3 
REMARK    2  A    between atoms: C_11  and  C_12 
REMARK    3  A    between atoms: C_14  and  C_15 
REMARK    4  A    between atoms: C_15  and  O_16 
REMARK    5  A    between atoms: O_16  and  C_17 
ROOT
HETATM    1  N   UNL     1     -39.893  52.344 -53.425  1.00  0.00    -0.067 N 
HETATM    2  H   UNL     1     -39.258  53.116 -53.667  1.00  0.00     0.280 HD
HETATM    3  C   UNL     1     -41.192  52.615 -54.185  1.00  0.00     0.281 C 
HETATM    4  C   UNL     1     -41.923  53.771 -53.597  1.00  0.00     0.018 A 
HETATM    5  C   UNL     1     -41.664  54.337 -52.362  1.00  0.00    -0.023 A 
HETATM    6  C   UNL     1     -42.565  55.414 -52.086  1.00  0.00     0.073 A 
HETATM    7  C   UNL     1     -43.465  55.599 -53.111  1.00  0.00     0.088 A 
HETATM    8  N   UNL     1     -44.433  56.544 -53.084  1.00  0.00    -0.357 N 
HETATM    9  C   UNL     1     -44.226  57.683 -52.199  1.00  0.00     0.243 C 
HETATM   10  N   UNL     1     -43.633  57.224 -50.965  1.00  0.00    -0.330 N 
HETATM   11  C   UNL     1     -42.653  56.270 -50.918  1.00  0.00     0.256 C 
HETATM   12  O   UNL     1     -41.930  56.135 -49.937  1.00  0.00    -0.267 OA
HETATM   13  S   UNL     1     -43.226  54.517 -54.399  1.00  0.00    -0.074 SA
HETATM   14  C   UNL     1     -40.558  53.833 -51.489  1.00  0.00     0.068 C 
HETATM   15  C   UNL     1     -40.112  52.422 -51.910  1.00  0.00     0.240 C 
HETATM   16  H   UNL     1     -44.812  56.831 -53.983  1.00  0.00     0.162 HD
HETATM   17  H   UNL     1     -43.655  57.842 -50.169  1.00  0.00     0.165 HD
ENDROOT
BRANCH   9  18
HETATM   18  C   UNL     1     -43.407  58.805 -52.766  1.00  0.00     0.095 A 
HETATM   19  O   UNL     1     -43.606  59.107 -54.087  1.00  0.00    -0.313 OA
HETATM   20  C   UNL     1     -42.775  60.142 -54.400  1.00  0.00     0.077 A 
HETATM   21  C   UNL     1     -42.064  60.528 -53.284  1.00  0.00     0.037 A 
HETATM   22  C   UNL     1     -42.474  59.675 -52.232  1.00  0.00     0.039 A 
BRANCH  20  23
HETATM   23  C   UNL     1     -42.825  60.646 -55.798  1.00  0.00     0.240 C 
BRANCH  23  24
HETATM   24  O   UNL     1     -41.652  60.162 -56.469  1.00  0.00    -0.341 OA
BRANCH  24  25
HETATM   25  C   UNL     1     -41.749  60.246 -57.836  1.00  0.00     0.112 A 
HETATM   26  C   UNL     1     -41.571  61.448 -58.536  1.00  0.00     0.070 A 
HETATM   27 CL   UNL     1     -41.218  62.937 -57.738  1.00  0.00    -0.081 Cl
HETATM   28  C   UNL     1     -41.717  61.483 -59.926  1.00  0.00     0.050 A 
HETATM   29  C   UNL     1     -42.066  60.325 -60.614  1.00  0.00     0.037 A 
HETATM   30 CL   UNL     1     -42.258  60.374 -62.322  1.00  0.00    -0.084 Cl
HETATM   31  C   UNL     1     -42.281  59.131 -59.930  1.00  0.00     0.050 A 
HETATM   32  C   UNL     1     -42.131  59.096 -58.543  1.00  0.00     0.070 A 
HETATM   33 CL   UNL     1     -42.430  57.601 -57.728  1.00  0.00    -0.081 Cl
ENDBRANCH  24  25
ENDBRANCH  23  24
ENDBRANCH  20  23
ENDBRANCH   9  18
BRANCH   1  34
HETATM   34  C   UNL     1     -39.232  51.047 -53.817  1.00  0.00     0.231 C 
HETATM   35  C   UNL     1     -40.249  50.047 -54.334  1.00  0.00     0.034 C 
ENDBRANCH   1  34
TORSDOF 5
ENDMDL
MODEL 7
REMARK VINA RESULT:      -7.9      2.554      3.782
REMARK  5 active torsions:
REMARK  status: ('A' for Active; 'I' for Inactive)
REMARK    1  A    between atoms: C_2  and  N_3 
REMARK    2  A    between atoms: C_11  and  C_12 
REMARK    3  A    between atoms: C_14  and  C_15 
REMARK    4  A    between atoms: C_15  and  O_16 
REMARK    5  A    between atoms: O_16  and  C_17 
ROOT
HETATM    1  N   UNL     1     -41.612  53.886 -53.880  1.00  0.00    -0.067 N 
HETATM    2  H   UNL     1     -42.455  54.345 -54.252  1.00  0.00     0.280 HD
HETATM    3  C   UNL     1     -41.722  53.977 -52.358  1.00  0.00     0.281 C 
HETATM    4  C   UNL     1     -41.508  55.374 -51.889  1.00  0.00     0.018 A 
HETATM    5  C   UNL     1     -40.974  56.399 -52.648  1.00  0.00    -0.023 A 
HETATM    6  C   UNL     1     -40.878  57.609 -51.891  1.00  0.00     0.073 A 
HETATM    7  C   UNL     1     -41.325  57.438 -50.601  1.00  0.00     0.088 A 
HETATM    8  N   UNL     1     -41.322  58.429 -49.679  1.00  0.00    -0.357 N 
HETATM    9  C   UNL     1     -41.302  59.799 -50.175  1.00  0.00     0.243 C 
HETATM   10  N   UNL     1     -40.427  59.878 -51.320  1.00  0.00    -0.330 N 
HETATM   11  C   UNL     1     -40.376  58.911 -52.288  1.00  0.00     0.256 C 
HETATM   12  O   UNL     1     -39.905  59.134 -53.398  1.00  0.00    -0.267 OA
HETATM   13  S   UNL     1     -41.876  55.860 -50.300  1.00  0.00    -0.074 SA
HETATM   14  C   UNL     1     -40.580  56.188 -54.077  1.00  0.00     0.068 C 
HETATM   15  C   UNL     1     -40.416  54.693 -54.397  1.00  0.00     0.240 C 
HETATM   16  H   UNL     1     -41.962  58.322 -48.895  1.00  0.00     0.162 HD
HETATM   17  H   UNL     1     -40.119  60.789 -51.621  1.00  0.00     0.165 HD
ENDROOT
BRANCH   9  18
HETATM   18  C   UNL     1     -42.641  60.382 -50.522  1.00  0.00     0.095 A 
HETATM   19  O   UNL     1     -42.990  60.381 -51.846  1.00  0.00    -0.313 OA
HETATM   20  C   UNL     1     -44.227  60.948 -51.944  1.00  0.00     0.077 A 
HETATM   21  C   UNL     1     -44.688  61.288 -50.691  1.00  0.00     0.037 A 
HETATM   22  C   UNL     1     -43.674  60.918 -49.775  1.00  0.00     0.039 A 
BRANCH  20  23
HETATM   23  C   UNL     1     -44.816  61.048 -53.306  1.00  0.00     0.240 C 
BRANCH  23  24
HETATM   24  O   UNL     1     -45.633  59.885 -53.503  1.00  0.00    -0.341 OA
BRANCH  24  25
HETATM   25  C   UNL     1     -45.022  58.932 -54.279  1.00  0.00     0.112 A 
HETATM   26  C   UNL     1     -44.887  59.056 -55.669  1.00  0.00     0.070 A 
HETATM   27 CL   UNL     1     -45.485  60.425 -56.535  1.00  0.00    -0.081 Cl
HETATM   28  C   UNL     1     -44.288  58.036 -56.415  1.00  0.00     0.050 A 
HETATM   29  C   UNL     1     -43.847  56.881 -55.776  1.00  0.00     0.037 A 
HETATM   30 CL   UNL     1     -43.123  55.622 -56.697  1.00  0.00    -0.084 Cl
HETATM   31  C   UNL     1     -44.005  56.726 -54.402  1.00  0.00     0.050 A 
HETATM   32  C   UNL     1     -44.599  57.746 -53.658  1.00  0.00     0.070 A 
HETATM   33 CL   UNL     1     -44.800  57.506 -51.958  1.00  0.00    -0.081 Cl
ENDBRANCH  24  25
ENDBRANCH  23  24
ENDBRANCH  20  23
ENDBRANCH   9  18
BRANCH   1  34
HETATM   34  C   UNL     1     -41.580  52.468 -54.392  1.00  0.00     0.231 C 
HETATM   35  C   UNL     1     -40.202  51.855 -54.226  1.00  0.00     0.034 C 
ENDBRANCH   1  34
TORSDOF 5
ENDMDL
MODEL 8
REMARK VINA RESULT:      -7.8      4.023      7.993
REMARK  5 active torsions:
REMARK  status: ('A' for Active; 'I' for Inactive)
REMARK    1  A    between atoms: C_2  and  N_3 
REMARK    2  A    between atoms: C_11  and  C_12 
REMARK    3  A    between atoms: C_14  and  C_15 
REMARK    4  A    between atoms: C_15  and  O_16 
REMARK    5  A    between atoms: O_16  and  C_17 
ROOT
HETATM    1  N   UNL     1     -46.337  62.046 -48.549  1.00  0.00    -0.067 N 
HETATM    2  H   UNL     1     -46.473  61.038 -48.391  1.00  0.00     0.280 HD
HETATM    3  C   UNL     1     -46.690  62.291 -50.016  1.00  0.00     0.281 C 
HETATM    4  C   UNL     1     -45.650  61.725 -50.918  1.00  0.00     0.018 A 
HETATM    5  C   UNL     1     -44.388  61.316 -50.527  1.00  0.00    -0.023 A 
HETATM    6  C   UNL     1     -43.626  60.847 -51.643  1.00  0.00     0.073 A 
HETATM    7  C   UNL     1     -44.336  60.938 -52.818  1.00  0.00     0.088 A 
HETATM    8  N   UNL     1     -43.829  60.573 -54.018  1.00  0.00    -0.357 N 
HETATM    9  C   UNL     1     -42.716  59.633 -54.013  1.00  0.00     0.243 C 
HETATM   10  N   UNL     1     -41.825  59.958 -52.925  1.00  0.00    -0.330 N 
HETATM   11  C   UNL     1     -42.268  60.337 -51.686  1.00  0.00     0.256 C 
HETATM   12  O   UNL     1     -41.546  60.279 -50.697  1.00  0.00    -0.267 OA
HETATM   13  S   UNL     1     -45.903  61.554 -52.593  1.00  0.00    -0.074 SA
HETATM   14  C   UNL     1     -43.956  61.382 -49.095  1.00  0.00     0.068 C 
HETATM   15  C   UNL     1     -44.854  62.330 -48.283  1.00  0.00     0.240 C 
HETATM   16  H   UNL     1     -44.504  60.353 -54.748  1.00  0.00     0.162 HD
HETATM   17  H   UNL     1     -40.898  59.563 -52.935  1.00  0.00     0.165 HD
ENDROOT
BRANCH   9  18
HETATM   18  C   UNL     1     -43.093  58.182 -53.942  1.00  0.00     0.095 A 
HETATM   19  O   UNL     1     -42.430  57.418 -53.019  1.00  0.00    -0.313 OA
HETATM   20  C   UNL     1     -42.914  56.146 -53.117  1.00  0.00     0.077 A 
HETATM   21  C   UNL     1     -43.903  56.093 -54.076  1.00  0.00     0.037 A 
HETATM   22  C   UNL     1     -44.024  57.401 -54.602  1.00  0.00     0.039 A 
BRANCH  20  23
HETATM   23  C   UNL     1     -42.337  55.133 -52.194  1.00  0.00     0.240 C 
BRANCH  23  24
HETATM   24  O   UNL     1     -40.941  55.018 -52.507  1.00  0.00    -0.341 OA
BRANCH  24  25
HETATM   25  C   UNL     1     -40.559  53.724 -52.764  1.00  0.00     0.112 A 
HETATM   26  C   UNL     1     -40.128  52.847 -51.758  1.00  0.00     0.070 A 
HETATM   27 CL   UNL     1     -40.037  53.318 -50.100  1.00  0.00    -0.081 Cl
HETATM   28  C   UNL     1     -39.715  51.551 -52.082  1.00  0.00     0.050 A 
HETATM   29  C   UNL     1     -39.706  51.140 -53.410  1.00  0.00     0.037 A 
HETATM   30 CL   UNL     1     -39.185  49.549 -53.807  1.00  0.00    -0.084 Cl
HETATM   31  C   UNL     1     -40.096  52.010 -54.425  1.00  0.00     0.050 A 
HETATM   32  C   UNL     1     -40.513  53.302 -54.101  1.00  0.00     0.070 A 
HETATM   33 CL   UNL     1     -40.965  54.361 -55.391  1.00  0.00    -0.081 Cl
ENDBRANCH  24  25
ENDBRANCH  23  24
ENDBRANCH  20  23
ENDBRANCH   9  18
BRANCH   1  34
HETATM   34  C   UNL     1     -47.221  62.799 -47.588  1.00  0.00     0.231 C 
HETATM   35  C   UNL     1     -48.182  63.712 -48.327  1.00  0.00     0.034 C 
ENDBRANCH   1  34
TORSDOF 5
ENDMDL
MODEL 9
REMARK VINA RESULT:      -7.6      2.136      3.116
REMARK  5 active torsions:
REMARK  status: ('A' for Active; 'I' for Inactive)
REMARK    1  A    between atoms: C_2  and  N_3 
REMARK    2  A    between atoms: C_11  and  C_12 
REMARK    3  A    between atoms: C_14  and  C_15 
REMARK    4  A    between atoms: C_15  and  O_16 
REMARK    5  A    between atoms: O_16  and  C_17 
ROOT
HETATM    1  N   UNL     1     -41.588  53.717 -54.056  1.00  0.00    -0.067 N 
HETATM    2  H   UNL     1     -42.237  54.046 -54.784  1.00  0.00     0.280 HD
HETATM    3  C   UNL     1     -42.298  53.953 -52.723  1.00  0.00     0.281 C 
HETATM    4  C   UNL     1     -42.361  55.405 -52.402  1.00  0.00     0.018 A 
HETATM    5  C   UNL     1     -41.625  56.396 -53.026  1.00  0.00    -0.023 A 
HETATM    6  C   UNL     1     -41.902  57.681 -52.462  1.00  0.00     0.073 A 
HETATM    7  C   UNL     1     -42.815  57.600 -51.436  1.00  0.00     0.088 A 
HETATM    8  N   UNL     1     -43.230  58.676 -50.728  1.00  0.00    -0.357 N 
HETATM    9  C   UNL     1     -43.088  59.982 -51.358  1.00  0.00     0.243 C 
HETATM   10  N   UNL     1     -41.836  60.031 -52.074  1.00  0.00    -0.330 N 
HETATM   11  C   UNL     1     -41.354  58.979 -52.807  1.00  0.00     0.256 C 
HETATM   12  O   UNL     1     -40.493  59.133 -53.667  1.00  0.00    -0.267 OA
HETATM   13  S   UNL     1     -43.356  56.013 -51.161  1.00  0.00    -0.074 SA
HETATM   14  C   UNL     1     -40.686  56.079 -54.148  1.00  0.00     0.068 C 
HETATM   15  C   UNL     1     -40.329  54.584 -54.174  1.00  0.00     0.240 C 
HETATM   16  H   UNL     1     -44.122  58.586 -50.246  1.00  0.00     0.162 HD
HETATM   17  H   UNL     1     -41.482  60.933 -52.353  1.00  0.00     0.165 HD
ENDROOT
BRANCH   9  18
HETATM   18  C   UNL     1     -44.208  60.386 -52.272  1.00  0.00     0.095 A 
HETATM   19  O   UNL     1     -43.942  60.378 -53.615  1.00  0.00    -0.313 OA
HETATM   20  C   UNL     1     -45.077  60.773 -54.260  1.00  0.00     0.077 A 
HETATM   21  C   UNL     1     -46.080  61.008 -53.344  1.00  0.00     0.037 A 
HETATM   22  C   UNL     1     -45.526  60.753 -52.067  1.00  0.00     0.039 A 
BRANCH  20  23
HETATM   23  C   UNL     1     -45.022  60.833 -55.745  1.00  0.00     0.240 C 
BRANCH  23  24
HETATM   24  O   UNL     1     -45.709  59.676 -56.244  1.00  0.00    -0.341 OA
BRANCH  24  25
HETATM   25  C   UNL     1     -44.930  58.914 -57.079  1.00  0.00     0.112 A 
HETATM   26  C   UNL     1     -44.763  59.207 -58.440  1.00  0.00     0.070 A 
HETATM   27 CL   UNL     1     -45.530  60.559 -59.192  1.00  0.00    -0.081 Cl
HETATM   28  C   UNL     1     -43.987  58.375 -59.251  1.00  0.00     0.050 A 
HETATM   29  C   UNL     1     -43.399  57.236 -58.711  1.00  0.00     0.037 A 
HETATM   30 CL   UNL     1     -42.455  56.206 -59.715  1.00  0.00    -0.084 Cl
HETATM   31  C   UNL     1     -43.583  56.910 -57.370  1.00  0.00     0.050 A 
HETATM   32  C   UNL     1     -44.355  57.744 -56.559  1.00  0.00     0.070 A 
HETATM   33 CL   UNL     1     -44.581  57.293 -54.906  1.00  0.00    -0.081 Cl
ENDBRANCH  24  25
ENDBRANCH  23  24
ENDBRANCH  20  23
ENDBRANCH   9  18
BRANCH   1  34
HETATM   34  C   UNL     1     -41.280  52.264 -54.319  1.00  0.00     0.231 C 
HETATM   35  C   UNL     1     -39.859  51.922 -53.912  1.00  0.00     0.034 C 
ENDBRANCH   1  34
TORSDOF 5
ENDMDL
MODEL 10
REMARK VINA RESULT:      -7.6      2.509      3.846
REMARK  5 active torsions:
REMARK  status: ('A' for Active; 'I' for Inactive)
REMARK    1  A    between atoms: C_2  and  N_3 
REMARK    2  A    between atoms: C_11  and  C_12 
REMARK    3  A    between atoms: C_14  and  C_15 
REMARK    4  A    between atoms: C_15  and  O_16 
REMARK    5  A    between atoms: O_16  and  C_17 
ROOT
HETATM    1  N   UNL     1     -40.020  52.322 -53.287  1.00  0.00    -0.067 N 
HETATM    2  H   UNL     1     -39.371  53.115 -53.376  1.00  0.00     0.280 HD
HETATM    3  C   UNL     1     -41.059  52.503 -54.394  1.00  0.00     0.281 C 
HETATM    4  C   UNL     1     -41.969  53.642 -54.091  1.00  0.00     0.018 A 
HETATM    5  C   UNL     1     -42.092  54.262 -52.861  1.00  0.00    -0.023 A 
HETATM    6  C   UNL     1     -43.074  55.302 -52.901  1.00  0.00     0.073 A 
HETATM    7  C   UNL     1     -43.652  55.407 -54.145  1.00  0.00     0.088 A 
HETATM    8  N   UNL     1     -44.622  56.305 -54.437  1.00  0.00    -0.357 N 
HETATM    9  C   UNL     1     -44.718  57.482 -53.583  1.00  0.00     0.243 C 
HETATM   10  N   UNL     1     -44.482  57.096 -52.213  1.00  0.00    -0.330 N 
HETATM   11  C   UNL     1     -43.521  56.192 -51.847  1.00  0.00     0.256 C 
HETATM   12  O   UNL     1     -43.102  56.126 -50.697  1.00  0.00    -0.267 OA
HETATM   13  S   UNL     1     -43.018  54.295 -55.262  1.00  0.00    -0.074 SA
HETATM   14  C   UNL     1     -41.261  53.842 -51.690  1.00  0.00     0.068 C 
HETATM   15  C   UNL     1     -40.663  52.441 -51.901  1.00  0.00     0.240 C 
HETATM   16  H   UNL     1     -44.741  56.542 -55.419  1.00  0.00     0.162 HD
HETATM   17  H   UNL     1     -44.752  57.738 -51.485  1.00  0.00     0.165 HD
ENDROOT
BRANCH   9  18
HETATM   18  C   UNL     1     -43.814  58.623 -53.949  1.00  0.00     0.095 A 
HETATM   19  O   UNL     1     -44.393  59.689 -54.584  1.00  0.00    -0.313 OA
HETATM   20  C   UNL     1     -43.410  60.604 -54.825  1.00  0.00     0.077 A 
HETATM   21  C   UNL     1     -42.210  60.148 -54.324  1.00  0.00     0.037 A 
HETATM   22  C   UNL     1     -42.469  58.879 -53.755  1.00  0.00     0.039 A 
BRANCH  20  23
HETATM   23  C   UNL     1     -43.815  61.861 -55.510  1.00  0.00     0.240 C 
BRANCH  23  24
HETATM   24  O   UNL     1     -43.683  61.639 -56.921  1.00  0.00    -0.341 OA
BRANCH  24  25
HETATM   25  C   UNL     1     -42.577  62.253 -57.454  1.00  0.00     0.112 A 
HETATM   26  C   UNL     1     -42.482  63.643 -57.613  1.00  0.00     0.070 A 
HETATM   27 CL   UNL     1     -43.758  64.712 -57.152  1.00  0.00    -0.081 Cl
HETATM   28  C   UNL     1     -41.347  64.212 -58.196  1.00  0.00     0.050 A 
HETATM   29  C   UNL     1     -40.317  63.392 -58.645  1.00  0.00     0.037 A 
HETATM   30 CL   UNL     1     -38.925  64.094 -59.375  1.00  0.00    -0.084 Cl
HETATM   31  C   UNL     1     -40.409  62.008 -58.529  1.00  0.00     0.050 A 
HETATM   32  C   UNL     1     -41.541  61.441 -57.942  1.00  0.00     0.070 A 
HETATM   33 CL   UNL     1     -41.630  59.718 -57.837  1.00  0.00    -0.081 Cl
ENDBRANCH  24  25
ENDBRANCH  23  24
ENDBRANCH  20  23
ENDBRANCH   9  18
BRANCH   1  34
HETATM   34  C   UNL     1     -39.227  51.046 -53.416  1.00  0.00     0.231 C 
HETATM   35  C   UNL     1     -39.952  50.035 -54.285  1.00  0.00     0.034 C 
ENDBRANCH   1  34
TORSDOF 5
ENDMDL
