MODEL 1
REMARK VINA RESULT:      -9.1      0.000      0.000
REMARK  7 active torsions:
REMARK  status: ('A' for Active; 'I' for Inactive)
REMARK    1  A    between atoms: O_2  and  C_3 
REMARK    2  A    between atoms: C_5  and  C_6 
REMARK    3  A    between atoms: C_6  and  N_7 
REMARK    4  A    between atoms: C_6  and  C_13 
REMARK    5  A    between atoms: C_13  and  N_14 
REMARK       I    between atoms: N_14  and  C_15 
REMARK       I    between atoms: C_15  and  N_16 
REMARK    6  A    between atoms: N_16  and  C_17 
REMARK    7  A    between atoms: C_18  and  O_19 
ROOT
HETATM    1  N   UNL     1     -42.900  54.970 -55.832  1.00  0.00    -0.341 N 
HETATM    2  C   UNL     1     -41.757  54.917 -55.075  1.00  0.00     0.316 C 
HETATM    3  N   UNL     1     -41.657  53.760 -54.370  1.00  0.00    -0.332 N 
HETATM    4  O   UNL     1     -40.882  55.769 -55.139  1.00  0.00    -0.247 OA
HETATM    5  H   UNL     1     -43.675  54.436 -55.458  1.00  0.00     0.164 HD
HETATM    6  H   UNL     1     -42.510  53.385 -53.977  1.00  0.00     0.165 HD
ENDROOT
BRANCH   1   7
HETATM    7  C   UNL     1     -43.220  56.176 -56.586  1.00  0.00     0.162 C 
BRANCH   7   8
HETATM    8  C   UNL     1     -43.220  56.048 -58.147  1.00  0.00     0.238 C 
BRANCH   8   9
HETATM    9  C   UNL     1     -42.793  57.335 -58.845  1.00  0.00    -0.023 A 
HETATM   10  C   UNL     1     -42.963  58.558 -58.169  1.00  0.00     0.046 A 
HETATM   11  C   UNL     1     -42.599  59.774 -58.754  1.00  0.00     0.068 A 
HETATM   12  C   UNL     1     -42.027  59.777 -60.023  1.00  0.00     0.037 A 
HETATM   13  C   UNL     1     -41.837  58.573 -60.703  1.00  0.00     0.003 A 
HETATM   14  C   UNL     1     -42.218  57.361 -60.123  1.00  0.00     0.009 A 
BRANCH  11  15
HETATM   15  O   UNL     1     -42.845  60.872 -57.980  1.00  0.00    -0.356 OA
HETATM   16  C   UNL     1     -42.311  60.857 -56.660  1.00  0.00     0.210 C 
ENDBRANCH  11  15
ENDBRANCH   8   9
BRANCH   8  17
HETATM   17  N   UNL     1     -44.538  55.538 -58.743  1.00  0.00    -0.061 N 
HETATM   18  H   UNL     1     -45.046  55.179 -57.923  1.00  0.00     0.280 HD
HETATM   19  C   UNL     1     -44.482  54.404 -59.730  1.00  0.00     0.236 C 
HETATM   20  C   UNL     1     -44.872  55.035 -61.049  1.00  0.00     0.029 C 
HETATM   21  C   UNL     1     -45.928  56.043 -60.648  1.00  0.00     0.029 C 
HETATM   22  C   UNL     1     -45.432  56.615 -59.333  1.00  0.00     0.236 C 
ENDBRANCH   8  17
ENDBRANCH   7   8
ENDBRANCH   1   7
BRANCH   3  23
HETATM   23  C   UNL     1     -40.498  53.535 -53.523  1.00  0.00     0.149 C 
HETATM   24  C   UNL     1     -40.720  53.990 -52.049  1.00  0.00     0.149 C 
HETATM   25  C   UNL     1     -39.945  52.997 -51.162  1.00  0.00     0.073 C 
HETATM   26  C   UNL     1     -39.888  51.773 -52.028  1.00  0.00    -0.047 A 
HETATM   27  C   UNL     1     -40.197  52.072 -53.359  1.00  0.00    -0.026 A 
HETATM   28  C   UNL     1     -39.528  50.491 -51.647  1.00  0.00     0.008 A 
HETATM   29  C   UNL     1     -40.143  51.089 -54.338  1.00  0.00     0.010 A 
HETATM   30  C   UNL     1     -39.793  49.791 -53.960  1.00  0.00     0.001 A 
HETATM   31  C   UNL     1     -39.487  49.495 -52.624  1.00  0.00     0.001 A 
BRANCH  24  32
HETATM   32  O   UNL     1     -42.118  53.943 -51.703  1.00  0.00    -0.393 OA
HETATM   33  H   UNL     1     -42.608  53.925 -52.544  1.00  0.00     0.210 HD
ENDBRANCH  24  32
ENDBRANCH   3  23
TORSDOF 7
ENDMDL
MODEL 2
REMARK VINA RESULT:      -8.7      2.411      8.933
REMARK  7 active torsions:
REMARK  status: ('A' for Active; 'I' for Inactive)
REMARK    1  A    between atoms: O_2  and  C_3 
REMARK    2  A    between atoms: C_5  and  C_6 
REMARK    3  A    between atoms: C_6  and  N_7 
REMARK    4  A    between atoms: C_6  and  C_13 
REMARK    5  A    between atoms: C_13  and  N_14 
REMARK       I    between atoms: N_14  and  C_15 
REMARK       I    between atoms: C_15  and  N_16 
REMARK    6  A    between atoms: N_16  and  C_17 
REMARK    7  A    between atoms: C_18  and  O_19 
ROOT
HETATM    1  N   UNL     1     -43.745  55.427 -54.723  1.00  0.00    -0.341 N 
HETATM    2  C   UNL     1     -43.077  55.420 -55.922  1.00  0.00     0.316 C 
HETATM    3  N   UNL     1     -43.661  56.230 -56.844  1.00  0.00    -0.332 N 
HETATM    4  O   UNL     1     -42.012  54.842 -56.081  1.00  0.00    -0.247 OA
HETATM    5  H   UNL     1     -44.736  55.622 -54.797  1.00  0.00     0.164 HD
HETATM    6  H   UNL     1     -44.672  56.258 -56.859  1.00  0.00     0.165 HD
ENDROOT
BRANCH   1   7
HETATM    7  C   UNL     1     -43.314  54.548 -53.644  1.00  0.00     0.162 C 
BRANCH   7   8
HETATM    8  C   UNL     1     -42.052  55.000 -52.832  1.00  0.00     0.238 C 
BRANCH   8   9
HETATM    9  C   UNL     1     -41.222  53.824 -52.329  1.00  0.00    -0.023 A 
HETATM   10  C   UNL     1     -40.619  52.972 -53.272  1.00  0.00     0.046 A 
HETATM   11  C   UNL     1     -39.850  51.873 -52.877  1.00  0.00     0.068 A 
HETATM   12  C   UNL     1     -39.651  51.630 -51.521  1.00  0.00     0.037 A 
HETATM   13  C   UNL     1     -40.230  52.473 -50.571  1.00  0.00     0.003 A 
HETATM   14  C   UNL     1     -41.011  53.561 -50.968  1.00  0.00     0.009 A 
BRANCH  11  15
HETATM   15  O   UNL     1     -39.349  51.131 -53.909  1.00  0.00    -0.356 OA
HETATM   16  C   UNL     1     -40.126  50.014 -54.331  1.00  0.00     0.210 C 
ENDBRANCH  11  15
ENDBRANCH   8   9
BRANCH   8  17
HETATM   17  N   UNL     1     -42.352  55.966 -51.679  1.00  0.00    -0.061 N 
HETATM   18  H   UNL     1     -41.714  55.653 -50.935  1.00  0.00     0.280 HD
HETATM   19  C   UNL     1     -43.731  55.952 -51.078  1.00  0.00     0.236 C 
HETATM   20  C   UNL     1     -44.336  57.275 -51.495  1.00  0.00     0.029 C 
HETATM   21  C   UNL     1     -43.159  58.225 -51.430  1.00  0.00     0.029 C 
HETATM   22  C   UNL     1     -41.983  57.414 -51.946  1.00  0.00     0.236 C 
ENDBRANCH   8  17
ENDBRANCH   7   8
ENDBRANCH   1   7
BRANCH   3  23
HETATM   23  C   UNL     1     -43.074  56.349 -58.168  1.00  0.00     0.149 C 
HETATM   24  C   UNL     1     -44.081  56.033 -59.314  1.00  0.00     0.149 C 
HETATM   25  C   UNL     1     -43.719  56.966 -60.485  1.00  0.00     0.073 C 
HETATM   26  C   UNL     1     -43.040  58.106 -59.785  1.00  0.00    -0.047 A 
HETATM   27  C   UNL     1     -42.673  57.762 -58.480  1.00  0.00    -0.026 A 
HETATM   28  C   UNL     1     -42.727  59.349 -60.313  1.00  0.00     0.008 A 
HETATM   29  C   UNL     1     -41.977  58.658 -57.679  1.00  0.00     0.010 A 
HETATM   30  C   UNL     1     -41.668  59.917 -58.199  1.00  0.00     0.001 A 
HETATM   31  C   UNL     1     -42.042  60.259 -59.507  1.00  0.00     0.001 A 
BRANCH  24  32
HETATM   32  O   UNL     1     -45.434  56.300 -58.896  1.00  0.00    -0.393 OA
HETATM   33  H   UNL     1     -45.909  55.452 -58.946  1.00  0.00     0.210 HD
ENDBRANCH  24  32
ENDBRANCH   3  23
TORSDOF 7
ENDMDL
MODEL 3
REMARK VINA RESULT:      -8.5      2.060      3.211
REMARK  7 active torsions:
REMARK  status: ('A' for Active; 'I' for Inactive)
REMARK    1  A    between atoms: O_2  and  C_3 
REMARK    2  A    between atoms: C_5  and  C_6 
REMARK    3  A    between atoms: C_6  and  N_7 
REMARK    4  A    between atoms: C_6  and  C_13 
REMARK    5  A    between atoms: C_13  and  N_14 
REMARK       I    between atoms: N_14  and  C_15 
REMARK       I    between atoms: C_15  and  N_16 
REMARK    6  A    between atoms: N_16  and  C_17 
REMARK    7  A    between atoms: C_18  and  O_19 
ROOT
HETATM    1  N   UNL     1     -42.844  54.759 -55.471  1.00  0.00    -0.341 N 
HETATM    2  C   UNL     1     -41.623  54.486 -54.908  1.00  0.00     0.316 C 
HETATM    3  N   UNL     1     -41.735  53.952 -53.663  1.00  0.00    -0.332 N 
HETATM    4  O   UNL     1     -40.572  54.601 -55.522  1.00  0.00    -0.247 OA
HETATM    5  H   UNL     1     -43.576  54.965 -54.802  1.00  0.00     0.164 HD
HETATM    6  H   UNL     1     -42.465  54.320 -53.068  1.00  0.00     0.165 HD
ENDROOT
BRANCH   1   7
HETATM    7  C   UNL     1     -42.917  55.419 -56.768  1.00  0.00     0.162 C 
BRANCH   7   8
HETATM    8  C   UNL     1     -42.590  56.951 -56.796  1.00  0.00     0.238 C 
BRANCH   8   9
HETATM    9  C   UNL     1     -43.143  57.695 -55.585  1.00  0.00    -0.023 A 
HETATM   10  C   UNL     1     -42.237  58.237 -54.655  1.00  0.00     0.046 A 
HETATM   11  C   UNL     1     -42.678  58.925 -53.520  1.00  0.00     0.068 A 
HETATM   12  C   UNL     1     -44.043  59.105 -53.318  1.00  0.00     0.037 A 
HETATM   13  C   UNL     1     -44.956  58.586 -54.238  1.00  0.00     0.003 A 
HETATM   14  C   UNL     1     -44.514  57.885 -55.362  1.00  0.00     0.009 A 
BRANCH  11  15
HETATM   15  O   UNL     1     -41.678  59.373 -52.704  1.00  0.00    -0.356 OA
HETATM   16  C   UNL     1     -40.381  58.825 -52.921  1.00  0.00     0.210 C 
ENDBRANCH  11  15
ENDBRANCH   8   9
BRANCH   8  17
HETATM   17  N   UNL     1     -43.006  57.665 -58.088  1.00  0.00    -0.061 N 
HETATM   18  H   UNL     1     -43.606  58.431 -57.754  1.00  0.00     0.280 HD
HETATM   19  C   UNL     1     -43.825  56.901 -59.092  1.00  0.00     0.236 C 
HETATM   20  C   UNL     1     -42.888  56.697 -60.263  1.00  0.00     0.029 C 
HETATM   21  C   UNL     1     -42.098  57.988 -60.299  1.00  0.00     0.029 C 
HETATM   22  C   UNL     1     -41.872  58.338 -58.840  1.00  0.00     0.236 C 
ENDBRANCH   8  17
ENDBRANCH   7   8
ENDBRANCH   1   7
BRANCH   3  23
HETATM   23  C   UNL     1     -40.535  53.592 -52.927  1.00  0.00     0.149 C 
HETATM   24  C   UNL     1     -40.671  53.811 -51.390  1.00  0.00     0.149 C 
HETATM   25  C   UNL     1     -39.862  52.689 -50.714  1.00  0.00     0.073 C 
HETATM   26  C   UNL     1     -39.867  51.616 -51.763  1.00  0.00    -0.047 A 
HETATM   27  C   UNL     1     -40.243  52.121 -53.012  1.00  0.00    -0.026 A 
HETATM   28  C   UNL     1     -39.502  50.289 -51.608  1.00  0.00     0.008 A 
HETATM   29  C   UNL     1     -40.254  51.304 -54.134  1.00  0.00     0.010 A 
HETATM   30  C   UNL     1     -39.899  49.962 -53.985  1.00  0.00     0.001 A 
HETATM   31  C   UNL     1     -39.526  49.458 -52.730  1.00  0.00     0.001 A 
BRANCH  24  32
HETATM   32  O   UNL     1     -42.050  53.714 -50.979  1.00  0.00    -0.393 OA
HETATM   33  H   UNL     1     -42.081  54.011 -50.053  1.00  0.00     0.210 HD
ENDBRANCH  24  32
ENDBRANCH   3  23
TORSDOF 7
ENDMDL
MODEL 4
REMARK VINA RESULT:      -8.4      1.932      3.624
REMARK  7 active torsions:
REMARK  status: ('A' for Active; 'I' for Inactive)
REMARK    1  A    between atoms: O_2  and  C_3 
REMARK    2  A    between atoms: C_5  and  C_6 
REMARK    3  A    between atoms: C_6  and  N_7 
REMARK    4  A    between atoms: C_6  and  C_13 
REMARK    5  A    between atoms: C_13  and  N_14 
REMARK       I    between atoms: N_14  and  C_15 
REMARK       I    between atoms: C_15  and  N_16 
REMARK    6  A    between atoms: N_16  and  C_17 
REMARK    7  A    between atoms: C_18  and  O_19 
ROOT
HETATM    1  N   UNL     1     -43.303  54.741 -56.424  1.00  0.00    -0.341 N 
HETATM    2  C   UNL     1     -42.372  55.007 -55.451  1.00  0.00     0.316 C 
HETATM    3  N   UNL     1     -42.698  54.448 -54.256  1.00  0.00    -0.332 N 
HETATM    4  O   UNL     1     -41.317  55.579 -55.686  1.00  0.00    -0.247 OA
HETATM    5  H   UNL     1     -44.243  54.595 -56.075  1.00  0.00     0.164 HD
HETATM    6  H   UNL     1     -43.676  54.451 -53.997  1.00  0.00     0.165 HD
ENDROOT
BRANCH   1   7
HETATM    7  C   UNL     1     -43.165  55.335 -57.747  1.00  0.00     0.162 C 
BRANCH   7   8
HETATM    8  C   UNL     1     -43.279  56.895 -57.832  1.00  0.00     0.238 C 
BRANCH   8   9
HETATM    9  C   UNL     1     -44.617  57.360 -58.396  1.00  0.00    -0.023 A 
HETATM   10  C   UNL     1     -45.229  56.590 -59.402  1.00  0.00     0.046 A 
HETATM   11  C   UNL     1     -46.452  56.963 -59.967  1.00  0.00     0.068 A 
HETATM   12  C   UNL     1     -47.097  58.107 -59.505  1.00  0.00     0.037 A 
HETATM   13  C   UNL     1     -46.511  58.876 -58.497  1.00  0.00     0.003 A 
HETATM   14  C   UNL     1     -45.281  58.509 -57.947  1.00  0.00     0.009 A 
BRANCH  11  15
HETATM   15  O   UNL     1     -46.906  56.124 -60.944  1.00  0.00    -0.356 OA
HETATM   16  C   UNL     1     -47.955  56.615 -61.773  1.00  0.00     0.210 C 
ENDBRANCH  11  15
ENDBRANCH   8   9
BRANCH   8  17
HETATM   17  N   UNL     1     -42.126  57.576 -58.580  1.00  0.00    -0.061 N 
HETATM   18  H   UNL     1     -41.296  57.059 -58.260  1.00  0.00     0.280 HD
HETATM   19  C   UNL     1     -41.849  59.027 -58.292  1.00  0.00     0.236 C 
HETATM   20  C   UNL     1     -42.250  59.744 -59.564  1.00  0.00     0.029 C 
HETATM   21  C   UNL     1     -41.828  58.778 -60.650  1.00  0.00     0.029 C 
HETATM   22  C   UNL     1     -42.153  57.405 -60.088  1.00  0.00     0.236 C 
ENDBRANCH   8  17
ENDBRANCH   7   8
ENDBRANCH   1   7
BRANCH   3  23
HETATM   23  C   UNL     1     -41.812  54.623 -53.118  1.00  0.00     0.149 C 
HETATM   24  C   UNL     1     -42.575  54.785 -51.769  1.00  0.00     0.149 C 
HETATM   25  C   UNL     1     -41.709  54.103 -50.692  1.00  0.00     0.073 C 
HETATM   26  C   UNL     1     -40.922  53.111 -51.497  1.00  0.00    -0.047 A 
HETATM   27  C   UNL     1     -40.975  53.402 -52.864  1.00  0.00    -0.026 A 
HETATM   28  C   UNL     1     -40.165  52.054 -51.018  1.00  0.00     0.008 A 
HETATM   29  C   UNL     1     -40.263  52.640 -53.779  1.00  0.00     0.010 A 
HETATM   30  C   UNL     1     -39.507  51.564 -53.307  1.00  0.00     0.001 A 
HETATM   31  C   UNL     1     -39.460  51.274 -51.936  1.00  0.00     0.001 A 
BRANCH  24  32
HETATM   32  O   UNL     1     -43.860  54.134 -51.825  1.00  0.00    -0.393 OA
HETATM   33  H   UNL     1     -43.689  53.213 -52.092  1.00  0.00     0.210 HD
ENDBRANCH  24  32
ENDBRANCH   3  23
TORSDOF 7
ENDMDL
MODEL 5
REMARK VINA RESULT:      -8.3      1.949      3.200
REMARK  7 active torsions:
REMARK  status: ('A' for Active; 'I' for Inactive)
REMARK    1  A    between atoms: O_2  and  C_3 
REMARK    2  A    between atoms: C_5  and  C_6 
REMARK    3  A    between atoms: C_6  and  N_7 
REMARK    4  A    between atoms: C_6  and  C_13 
REMARK    5  A    between atoms: C_13  and  N_14 
REMARK       I    between atoms: N_14  and  C_15 
REMARK       I    between atoms: C_15  and  N_16 
REMARK    6  A    between atoms: N_16  and  C_17 
REMARK    7  A    between atoms: C_18  and  O_19 
ROOT
HETATM    1  N   UNL     1     -43.008  55.888 -54.700  1.00  0.00    -0.341 N 
HETATM    2  C   UNL     1     -41.833  55.633 -54.037  1.00  0.00     0.316 C 
HETATM    3  N   UNL     1     -41.702  54.322 -53.704  1.00  0.00    -0.332 N 
HETATM    4  O   UNL     1     -40.964  56.479 -53.884  1.00  0.00    -0.247 OA
HETATM    5  H   UNL     1     -43.765  55.258 -54.468  1.00  0.00     0.164 HD
HETATM    6  H   UNL     1     -42.537  53.837 -53.404  1.00  0.00     0.165 HD
ENDROOT
BRANCH   1   7
HETATM    7  C   UNL     1     -43.360  57.256 -55.057  1.00  0.00     0.162 C 
BRANCH   7   8
HETATM    8  C   UNL     1     -44.320  57.437 -56.282  1.00  0.00     0.238 C 
BRANCH   8   9
HETATM    9  C   UNL     1     -43.578  57.458 -57.614  1.00  0.00    -0.023 A 
HETATM   10  C   UNL     1     -44.058  56.657 -58.666  1.00  0.00     0.046 A 
HETATM   11  C   UNL     1     -43.421  56.626 -59.911  1.00  0.00     0.068 A 
HETATM   12  C   UNL     1     -42.304  57.427 -60.127  1.00  0.00     0.037 A 
HETATM   13  C   UNL     1     -41.822  58.240 -59.099  1.00  0.00     0.003 A 
HETATM   14  C   UNL     1     -42.450  58.257 -57.852  1.00  0.00     0.009 A 
BRANCH  11  15
HETATM   15  O   UNL     1     -43.995  55.784 -60.820  1.00  0.00    -0.356 OA
HETATM   16  C   UNL     1     -44.731  54.682 -60.298  1.00  0.00     0.210 C 
ENDBRANCH  11  15
ENDBRANCH   8   9
BRANCH   8  17
HETATM   17  N   UNL     1     -45.257  58.647 -56.181  1.00  0.00    -0.061 N 
HETATM   18  H   UNL     1     -45.927  58.369 -55.453  1.00  0.00     0.280 HD
HETATM   19  C   UNL     1     -46.080  59.013 -57.387  1.00  0.00     0.236 C 
HETATM   20  C   UNL     1     -45.485  60.321 -57.864  1.00  0.00     0.029 C 
HETATM   21  C   UNL     1     -45.123  61.024 -56.573  1.00  0.00     0.029 C 
HETATM   22  C   UNL     1     -44.606  59.919 -55.668  1.00  0.00     0.236 C 
ENDBRANCH   8  17
ENDBRANCH   7   8
ENDBRANCH   1   7
BRANCH   3  23
HETATM   23  C   UNL     1     -40.509  53.876 -53.005  1.00  0.00     0.149 C 
HETATM   24  C   UNL     1     -40.625  53.998 -51.456  1.00  0.00     0.149 C 
HETATM   25  C   UNL     1     -39.847  52.808 -50.863  1.00  0.00     0.073 C 
HETATM   26  C   UNL     1     -39.897  51.807 -51.979  1.00  0.00    -0.047 A 
HETATM   27  C   UNL     1     -40.267  52.405 -53.188  1.00  0.00    -0.026 A 
HETATM   28  C   UNL     1     -39.574  50.461 -51.915  1.00  0.00     0.008 A 
HETATM   29  C   UNL     1     -40.314  51.664 -54.361  1.00  0.00     0.010 A 
HETATM   30  C   UNL     1     -40.003  50.303 -54.303  1.00  0.00     0.001 A 
HETATM   31  C   UNL     1     -39.636  49.707 -53.088  1.00  0.00     0.001 A 
BRANCH  24  32
HETATM   32  O   UNL     1     -42.002  53.920 -51.038  1.00  0.00    -0.393 OA
HETATM   33  H   UNL     1     -42.004  53.446 -50.187  1.00  0.00     0.210 HD
ENDBRANCH  24  32
ENDBRANCH   3  23
TORSDOF 7
ENDMDL
MODEL 6
REMARK VINA RESULT:      -8.2      2.074      3.767
REMARK  7 active torsions:
REMARK  status: ('A' for Active; 'I' for Inactive)
REMARK    1  A    between atoms: O_2  and  C_3 
REMARK    2  A    between atoms: C_5  and  C_6 
REMARK    3  A    between atoms: C_6  and  N_7 
REMARK    4  A    between atoms: C_6  and  C_13 
REMARK    5  A    between atoms: C_13  and  N_14 
REMARK       I    between atoms: N_14  and  C_15 
REMARK       I    between atoms: C_15  and  N_16 
REMARK    6  A    between atoms: N_16  and  C_17 
REMARK    7  A    between atoms: C_18  and  O_19 
ROOT
HETATM    1  N   UNL     1     -42.683  55.245 -55.276  1.00  0.00    -0.341 N 
HETATM    2  C   UNL     1     -41.498  54.941 -54.653  1.00  0.00     0.316 C 
HETATM    3  N   UNL     1     -41.666  54.090 -53.608  1.00  0.00    -0.332 N 
HETATM    4  O   UNL     1     -40.413  55.306 -55.083  1.00  0.00    -0.247 OA
HETATM    5  H   UNL     1     -43.495  55.201 -54.673  1.00  0.00     0.164 HD
HETATM    6  H   UNL     1     -42.489  54.222 -53.034  1.00  0.00     0.165 HD
ENDROOT
BRANCH   1   7
HETATM    7  C   UNL     1     -42.707  56.215 -56.363  1.00  0.00     0.162 C 
BRANCH   7   8
HETATM    8  C   UNL     1     -43.839  57.296 -56.314  1.00  0.00     0.238 C 
BRANCH   8   9
HETATM    9  C   UNL     1     -44.305  57.726 -57.701  1.00  0.00    -0.023 A 
HETATM   10  C   UNL     1     -44.364  56.761 -58.723  1.00  0.00     0.046 A 
HETATM   11  C   UNL     1     -44.776  57.091 -60.017  1.00  0.00     0.068 A 
HETATM   12  C   UNL     1     -45.167  58.397 -60.298  1.00  0.00     0.037 A 
HETATM   13  C   UNL     1     -45.128  59.365 -59.293  1.00  0.00     0.003 A 
HETATM   14  C   UNL     1     -44.700  59.037 -58.005  1.00  0.00     0.009 A 
BRANCH  11  15
HETATM   15  O   UNL     1     -44.760  56.049 -60.901  1.00  0.00    -0.356 OA
HETATM   16  C   UNL     1     -44.765  54.738 -60.344  1.00  0.00     0.210 C 
ENDBRANCH  11  15
ENDBRANCH   8   9
BRANCH   8  17
HETATM   17  N   UNL     1     -43.504  58.529 -55.465  1.00  0.00    -0.061 N 
HETATM   18  H   UNL     1     -43.882  59.309 -56.019  1.00  0.00     0.280 HD
HETATM   19  C   UNL     1     -42.054  58.853 -55.222  1.00  0.00     0.236 C 
HETATM   20  C   UNL     1     -41.850  58.575 -53.749  1.00  0.00     0.029 C 
HETATM   21  C   UNL     1     -43.156  59.024 -53.130  1.00  0.00     0.029 C 
HETATM   22  C   UNL     1     -44.218  58.597 -54.127  1.00  0.00     0.236 C 
ENDBRANCH   8  17
ENDBRANCH   7   8
ENDBRANCH   1   7
BRANCH   3  23
HETATM   23  C   UNL     1     -40.510  53.655 -52.844  1.00  0.00     0.149 C 
HETATM   24  C   UNL     1     -40.725  53.746 -51.303  1.00  0.00     0.149 C 
HETATM   25  C   UNL     1     -39.960  52.561 -50.683  1.00  0.00     0.073 C 
HETATM   26  C   UNL     1     -39.918  51.580 -51.818  1.00  0.00    -0.047 A 
HETATM   27  C   UNL     1     -40.225  52.193 -53.037  1.00  0.00    -0.026 A 
HETATM   28  C   UNL     1     -39.572  50.240 -51.757  1.00  0.00     0.008 A 
HETATM   29  C   UNL     1     -40.183  51.473 -54.223  1.00  0.00     0.010 A 
HETATM   30  C   UNL     1     -39.847  50.118 -54.170  1.00  0.00     0.001 A 
HETATM   31  C   UNL     1     -39.544  49.507 -52.944  1.00  0.00     0.001 A 
BRANCH  24  32
HETATM   32  O   UNL     1     -42.123  53.632 -50.973  1.00  0.00    -0.393 OA
HETATM   33  H   UNL     1     -42.231  52.772 -50.529  1.00  0.00     0.210 HD
ENDBRANCH  24  32
ENDBRANCH   3  23
TORSDOF 7
ENDMDL
MODEL 7
REMARK VINA RESULT:      -8.2      2.106      4.071
REMARK  7 active torsions:
REMARK  status: ('A' for Active; 'I' for Inactive)
REMARK    1  A    between atoms: O_2  and  C_3 
REMARK    2  A    between atoms: C_5  and  C_6 
REMARK    3  A    between atoms: C_6  and  N_7 
REMARK    4  A    between atoms: C_6  and  C_13 
REMARK    5  A    between atoms: C_13  and  N_14 
REMARK       I    between atoms: N_14  and  C_15 
REMARK       I    between atoms: C_15  and  N_16 
REMARK    6  A    between atoms: N_16  and  C_17 
REMARK    7  A    between atoms: C_18  and  O_19 
ROOT
HETATM    1  N   UNL     1     -44.187  56.923 -55.817  1.00  0.00    -0.341 N 
HETATM    2  C   UNL     1     -43.226  56.893 -54.838  1.00  0.00     0.316 C 
HETATM    3  N   UNL     1     -43.059  55.651 -54.314  1.00  0.00    -0.332 N 
HETATM    4  O   UNL     1     -42.525  57.859 -54.570  1.00  0.00    -0.247 OA
HETATM    5  H   UNL     1     -44.910  56.222 -55.715  1.00  0.00     0.164 HD
HETATM    6  H   UNL     1     -43.891  55.089 -54.187  1.00  0.00     0.165 HD
ENDROOT
BRANCH   1   7
HETATM    7  C   UNL     1     -44.564  58.191 -56.430  1.00  0.00     0.162 C 
BRANCH   7   8
HETATM    8  C   UNL     1     -44.236  58.360 -57.952  1.00  0.00     0.238 C 
BRANCH   8   9
HETATM    9  C   UNL     1     -44.567  57.116 -58.769  1.00  0.00    -0.023 A 
HETATM   10  C   UNL     1     -45.828  57.031 -59.388  1.00  0.00     0.046 A 
HETATM   11  C   UNL     1     -46.197  55.916 -60.146  1.00  0.00     0.068 A 
HETATM   12  C   UNL     1     -45.288  54.876 -60.319  1.00  0.00     0.037 A 
HETATM   13  C   UNL     1     -44.027  54.949 -59.724  1.00  0.00     0.003 A 
HETATM   14  C   UNL     1     -43.667  56.057 -58.954  1.00  0.00     0.009 A 
BRANCH  11  15
HETATM   15  O   UNL     1     -47.460  55.975 -60.664  1.00  0.00    -0.356 OA
HETATM   16  C   UNL     1     -47.797  57.150 -61.395  1.00  0.00     0.210 C 
ENDBRANCH  11  15
ENDBRANCH   8   9
BRANCH   8  17
HETATM   17  N   UNL     1     -42.801  58.816 -58.245  1.00  0.00    -0.061 N 
HETATM   18  H   UNL     1     -42.266  57.938 -58.238  1.00  0.00     0.280 HD
HETATM   19  C   UNL     1     -42.126  59.724 -57.254  1.00  0.00     0.236 C 
HETATM   20  C   UNL     1     -42.013  61.050 -57.975  1.00  0.00     0.029 C 
HETATM   21  C   UNL     1     -41.729  60.640 -59.404  1.00  0.00     0.029 C 
HETATM   22  C   UNL     1     -42.588  59.408 -59.627  1.00  0.00     0.236 C 
ENDBRANCH   8  17
ENDBRANCH   7   8
ENDBRANCH   1   7
BRANCH   3  23
HETATM   23  C   UNL     1     -42.070  55.439 -53.271  1.00  0.00     0.149 C 
HETATM   24  C   UNL     1     -42.704  55.149 -51.877  1.00  0.00     0.149 C 
HETATM   25  C   UNL     1     -41.769  54.149 -51.171  1.00  0.00     0.073 C 
HETATM   26  C   UNL     1     -41.091  53.475 -52.327  1.00  0.00    -0.047 A 
HETATM   27  C   UNL     1     -41.256  54.200 -53.512  1.00  0.00    -0.026 A 
HETATM   28  C   UNL     1     -40.330  52.317 -52.296  1.00  0.00     0.008 A 
HETATM   29  C   UNL     1     -40.654  53.780 -54.690  1.00  0.00     0.010 A 
HETATM   30  C   UNL     1     -39.896  52.607 -54.671  1.00  0.00     0.001 A 
HETATM   31  C   UNL     1     -39.736  51.882 -53.481  1.00  0.00     0.001 A 
BRANCH  24  32
HETATM   32  O   UNL     1     -44.010  54.556 -52.022  1.00  0.00    -0.393 OA
HETATM   33  H   UNL     1     -44.040  53.806 -51.402  1.00  0.00     0.210 HD
ENDBRANCH  24  32
ENDBRANCH   3  23
TORSDOF 7
ENDMDL
MODEL 8
REMARK VINA RESULT:      -8.0      1.684      2.487
REMARK  7 active torsions:
REMARK  status: ('A' for Active; 'I' for Inactive)
REMARK    1  A    between atoms: O_2  and  C_3 
REMARK    2  A    between atoms: C_5  and  C_6 
REMARK    3  A    between atoms: C_6  and  N_7 
REMARK    4  A    between atoms: C_6  and  C_13 
REMARK    5  A    between atoms: C_13  and  N_14 
REMARK       I    between atoms: N_14  and  C_15 
REMARK       I    between atoms: C_15  and  N_16 
REMARK    6  A    between atoms: N_16  and  C_17 
REMARK    7  A    between atoms: C_18  and  O_19 
ROOT
HETATM    1  N   UNL     1     -43.708  56.673 -57.058  1.00  0.00    -0.341 N 
HETATM    2  C   UNL     1     -42.826  56.868 -56.024  1.00  0.00     0.316 C 
HETATM    3  N   UNL     1     -42.631  55.741 -55.291  1.00  0.00    -0.332 N 
HETATM    4  O   UNL     1     -42.203  57.910 -55.875  1.00  0.00    -0.247 OA
HETATM    5  H   UNL     1     -44.397  55.951 -56.889  1.00  0.00     0.164 HD
HETATM    6  H   UNL     1     -43.438  55.152 -55.128  1.00  0.00     0.165 HD
ENDROOT
BRANCH   1   7
HETATM    7  C   UNL     1     -44.106  57.796 -57.897  1.00  0.00     0.162 C 
BRANCH   7   8
HETATM    8  C   UNL     1     -43.603  57.776 -59.381  1.00  0.00     0.238 C 
BRANCH   8   9
HETATM    9  C   UNL     1     -42.952  59.089 -59.801  1.00  0.00    -0.023 A 
HETATM   10  C   UNL     1     -42.139  59.767 -58.875  1.00  0.00     0.046 A 
HETATM   11  C   UNL     1     -41.518  60.978 -59.194  1.00  0.00     0.068 A 
HETATM   12  C   UNL     1     -41.683  61.515 -60.468  1.00  0.00     0.037 A 
HETATM   13  C   UNL     1     -42.475  60.849 -61.406  1.00  0.00     0.003 A 
HETATM   14  C   UNL     1     -43.107  59.647 -61.078  1.00  0.00     0.009 A 
BRANCH  11  15
HETATM   15  O   UNL     1     -40.779  61.521 -58.182  1.00  0.00    -0.356 OA
HETATM   16  C   UNL     1     -40.035  62.696 -58.492  1.00  0.00     0.210 C 
ENDBRANCH  11  15
ENDBRANCH   8   9
BRANCH   8  17
HETATM   17  N   UNL     1     -44.666  57.363 -60.406  1.00  0.00    -0.061 N 
HETATM   18  H   UNL     1     -44.327  57.781 -61.282  1.00  0.00     0.280 HD
HETATM   19  C   UNL     1     -46.071  57.868 -60.218  1.00  0.00     0.236 C 
HETATM   20  C   UNL     1     -46.867  56.634 -59.848  1.00  0.00     0.029 C 
HETATM   21  C   UNL     1     -46.233  55.551 -60.694  1.00  0.00     0.029 C 
HETATM   22  C   UNL     1     -44.749  55.871 -60.675  1.00  0.00     0.236 C 
ENDBRANCH   8  17
ENDBRANCH   7   8
ENDBRANCH   1   7
BRANCH   3  23
HETATM   23  C   UNL     1     -41.717  55.769 -54.162  1.00  0.00     0.149 C 
HETATM   24  C   UNL     1     -42.424  56.073 -52.808  1.00  0.00     0.149 C 
HETATM   25  C   UNL     1     -41.679  55.261 -51.732  1.00  0.00     0.073 C 
HETATM   26  C   UNL     1     -41.087  54.139 -52.533  1.00  0.00    -0.047 A 
HETATM   27  C   UNL     1     -41.103  54.422 -53.902  1.00  0.00    -0.026 A 
HETATM   28  C   UNL     1     -40.521  52.970 -52.050  1.00  0.00     0.008 A 
HETATM   29  C   UNL     1     -40.545  53.538 -54.816  1.00  0.00     0.010 A 
HETATM   30  C   UNL     1     -39.984  52.352 -54.339  1.00  0.00     0.001 A 
HETATM   31  C   UNL     1     -39.973  52.071 -52.965  1.00  0.00     0.001 A 
BRANCH  24  32
HETATM   32  O   UNL     1     -43.804  55.657 -52.846  1.00  0.00    -0.393 OA
HETATM   33  H   UNL     1     -44.328  56.418 -52.540  1.00  0.00     0.210 HD
ENDBRANCH  24  32
ENDBRANCH   3  23
TORSDOF 7
ENDMDL
MODEL 9
REMARK VINA RESULT:      -7.9      2.826      8.659
REMARK  7 active torsions:
REMARK  status: ('A' for Active; 'I' for Inactive)
REMARK    1  A    between atoms: O_2  and  C_3 
REMARK    2  A    between atoms: C_5  and  C_6 
REMARK    3  A    between atoms: C_6  and  N_7 
REMARK    4  A    between atoms: C_6  and  C_13 
REMARK    5  A    between atoms: C_13  and  N_14 
REMARK       I    between atoms: N_14  and  C_15 
REMARK       I    between atoms: C_15  and  N_16 
REMARK    6  A    between atoms: N_16  and  C_17 
REMARK    7  A    between atoms: C_18  and  O_19 
ROOT
HETATM    1  N   UNL     1     -42.839  57.442 -55.573  1.00  0.00    -0.341 N 
HETATM    2  C   UNL     1     -42.822  57.429 -56.945  1.00  0.00     0.316 C 
HETATM    3  N   UNL     1     -43.691  56.522 -57.465  1.00  0.00    -0.332 N 
HETATM    4  O   UNL     1     -42.182  58.235 -57.606  1.00  0.00    -0.247 OA
HETATM    5  H   UNL     1     -43.098  56.560 -55.149  1.00  0.00     0.164 HD
HETATM    6  H   UNL     1     -43.782  55.640 -56.978  1.00  0.00     0.165 HD
ENDROOT
BRANCH   1   7
HETATM    7  C   UNL     1     -41.907  58.290 -54.841  1.00  0.00     0.162 C 
BRANCH   7   8
HETATM    8  C   UNL     1     -41.143  57.624 -53.646  1.00  0.00     0.238 C 
BRANCH   8   9
HETATM    9  C   UNL     1     -41.116  56.102 -53.737  1.00  0.00    -0.023 A 
HETATM   10  C   UNL     1     -41.924  55.358 -52.859  1.00  0.00     0.046 A 
HETATM   11  C   UNL     1     -41.941  53.960 -52.886  1.00  0.00     0.068 A 
HETATM   12  C   UNL     1     -41.163  53.286 -53.823  1.00  0.00     0.037 A 
HETATM   13  C   UNL     1     -40.365  54.008 -54.712  1.00  0.00     0.003 A 
HETATM   14  C   UNL     1     -40.338  55.404 -54.672  1.00  0.00     0.009 A 
BRANCH  11  15
HETATM   15  O   UNL     1     -42.761  53.384 -51.958  1.00  0.00    -0.356 OA
HETATM   16  C   UNL     1     -43.325  54.250 -50.977  1.00  0.00     0.210 C 
ENDBRANCH  11  15
ENDBRANCH   8   9
BRANCH   8  17
HETATM   17  N   UNL     1     -41.632  58.060 -52.259  1.00  0.00    -0.061 N 
HETATM   18  H   UNL     1     -41.961  57.182 -51.836  1.00  0.00     0.280 HD
HETATM   19  C   UNL     1     -42.789  59.019 -52.180  1.00  0.00     0.236 C 
HETATM   20  C   UNL     1     -42.177  60.303 -51.663  1.00  0.00     0.029 C 
HETATM   21  C   UNL     1     -41.134  59.814 -50.681  1.00  0.00     0.029 C 
HETATM   22  C   UNL     1     -40.547  58.575 -51.331  1.00  0.00     0.236 C 
ENDBRANCH   8  17
ENDBRANCH   7   8
ENDBRANCH   1   7
BRANCH   3  23
HETATM   23  C   UNL     1     -43.807  56.385 -58.907  1.00  0.00     0.149 C 
HETATM   24  C   UNL     1     -43.811  54.901 -59.382  1.00  0.00     0.149 C 
HETATM   25  C   UNL     1     -44.753  54.833 -60.598  1.00  0.00     0.073 C 
HETATM   26  C   UNL     1     -45.661  56.005 -60.364  1.00  0.00    -0.047 A 
HETATM   27  C   UNL     1     -45.131  56.883 -59.413  1.00  0.00    -0.026 A 
HETATM   28  C   UNL     1     -46.856  56.283 -61.008  1.00  0.00     0.008 A 
HETATM   29  C   UNL     1     -45.787  58.064 -59.095  1.00  0.00     0.010 A 
HETATM   30  C   UNL     1     -46.998  58.346 -59.730  1.00  0.00     0.001 A 
HETATM   31  C   UNL     1     -47.528  57.461 -60.680  1.00  0.00     0.001 A 
BRANCH  24  32
HETATM   32  O   UNL     1     -44.311  54.033 -58.346  1.00  0.00    -0.393 OA
HETATM   33  H   UNL     1     -43.897  53.164 -58.493  1.00  0.00     0.210 HD
ENDBRANCH  24  32
ENDBRANCH   3  23
TORSDOF 7
ENDMDL
MODEL 10
REMARK VINA RESULT:      -7.7      2.808      8.111
REMARK  7 active torsions:
REMARK  status: ('A' for Active; 'I' for Inactive)
REMARK    1  A    between atoms: O_2  and  C_3 
REMARK    2  A    between atoms: C_5  and  C_6 
REMARK    3  A    between atoms: C_6  and  N_7 
REMARK    4  A    between atoms: C_6  and  C_13 
REMARK    5  A    between atoms: C_13  and  N_14 
REMARK       I    between atoms: N_14  and  C_15 
REMARK       I    between atoms: C_15  and  N_16 
REMARK    6  A    between atoms: N_16  and  C_17 
REMARK    7  A    between atoms: C_18  and  O_19 
ROOT
HETATM    1  N   UNL     1     -43.779  55.281 -54.591  1.00  0.00    -0.341 N 
HETATM    2  C   UNL     1     -43.029  55.308 -55.740  1.00  0.00     0.316 C 
HETATM    3  N   UNL     1     -43.550  56.142 -56.678  1.00  0.00    -0.332 N 
HETATM    4  O   UNL     1     -41.953  54.737 -55.840  1.00  0.00    -0.247 OA
HETATM    5  H   UNL     1     -44.763  55.475 -54.729  1.00  0.00     0.164 HD
HETATM    6  H   UNL     1     -44.557  56.168 -56.763  1.00  0.00     0.165 HD
ENDROOT
BRANCH   1   7
HETATM    7  C   UNL     1     -43.421  54.373 -53.509  1.00  0.00     0.162 C 
BRANCH   7   8
HETATM    8  C   UNL     1     -42.858  55.027 -52.201  1.00  0.00     0.238 C 
BRANCH   8   9
HETATM    9  C   UNL     1     -43.257  56.492 -52.055  1.00  0.00    -0.023 A 
HETATM   10  C   UNL     1     -42.460  57.473 -52.674  1.00  0.00     0.046 A 
HETATM   11  C   UNL     1     -42.766  58.833 -52.574  1.00  0.00     0.068 A 
HETATM   12  C   UNL     1     -43.901  59.229 -51.871  1.00  0.00     0.037 A 
HETATM   13  C   UNL     1     -44.711  58.268 -51.262  1.00  0.00     0.003 A 
HETATM   14  C   UNL     1     -44.394  56.911 -51.350  1.00  0.00     0.009 A 
BRANCH  11  15
HETATM   15  O   UNL     1     -41.887  59.661 -53.213  1.00  0.00    -0.356 OA
HETATM   16  C   UNL     1     -42.446  60.647 -54.075  1.00  0.00     0.210 C 
ENDBRANCH  11  15
ENDBRANCH   8   9
BRANCH   8  17
HETATM   17  N   UNL     1     -41.344  54.872 -52.015  1.00  0.00    -0.061 N 
HETATM   18  H   UNL     1     -40.967  55.754 -52.386  1.00  0.00     0.280 HD
HETATM   19  C   UNL     1     -40.644  53.770 -52.764  1.00  0.00     0.236 C 
HETATM   20  C   UNL     1     -40.232  52.788 -51.688  1.00  0.00     0.029 C 
HETATM   21  C   UNL     1     -39.860  53.687 -50.528  1.00  0.00     0.029 C 
HETATM   22  C   UNL     1     -40.881  54.809 -50.570  1.00  0.00     0.236 C 
ENDBRANCH   8  17
ENDBRANCH   7   8
ENDBRANCH   1   7
BRANCH   3  23
HETATM   23  C   UNL     1     -42.872  56.299 -57.954  1.00  0.00     0.149 C 
HETATM   24  C   UNL     1     -43.756  55.893 -59.171  1.00  0.00     0.149 C 
HETATM   25  C   UNL     1     -43.380  56.844 -60.322  1.00  0.00     0.073 C 
HETATM   26  C   UNL     1     -42.853  58.042 -59.587  1.00  0.00    -0.047 A 
HETATM   27  C   UNL     1     -42.563  57.738 -58.253  1.00  0.00    -0.026 A 
HETATM   28  C   UNL     1     -42.601  59.301 -60.106  1.00  0.00     0.008 A 
HETATM   29  C   UNL     1     -42.007  58.693 -57.413  1.00  0.00     0.010 A 
HETATM   30  C   UNL     1     -41.761  59.969 -57.924  1.00  0.00     0.001 A 
HETATM   31  C   UNL     1     -42.057  60.270 -59.261  1.00  0.00     0.001 A 
BRANCH  24  32
HETATM   32  O   UNL     1     -45.155  56.052 -58.862  1.00  0.00    -0.393 OA
HETATM   33  H   UNL     1     -45.288  56.998 -58.671  1.00  0.00     0.210 HD
ENDBRANCH  24  32
ENDBRANCH   3  23
TORSDOF 7
ENDMDL
