MODEL 1
REMARK VINA RESULT:      -8.1      0.000      0.000
REMARK  7 active torsions:
REMARK  status: ('A' for Active; 'I' for Inactive)
REMARK    1  A    between atoms: N_2  and  C_4 
REMARK    2  A    between atoms: C_4  and  C_5 
REMARK    3  A    between atoms: C_5  and  O_6 
REMARK    4  A    between atoms: O_6  and  C_7 
REMARK    5  A    between atoms: C_10  and  N_11 
REMARK       I    between atoms: N_11  and  C_12 
REMARK    6  A    between atoms: C_12  and  C_13 
REMARK    7  A    between atoms: C_14  and  C_15 
ROOT
HETATM    1  N   UNL     1     -42.936  55.569 -52.242  1.00  0.00    -0.323 N 
HETATM    2  C   UNL     1     -41.572  55.494 -52.026  1.00  0.00     0.258 C 
HETATM    3  O   UNL     1     -40.817  56.407 -51.721  1.00  0.00    -0.267 OA
HETATM    4  H   UNL     1     -43.436  54.713 -52.460  1.00  0.00     0.169 HD
ENDROOT
BRANCH   2   5
HETATM    5  C   UNL     1     -40.993  54.135 -52.115  1.00  0.00     0.065 A 
HETATM    6  C   UNL     1     -40.664  53.468 -53.308  1.00  0.00     0.077 A 
HETATM    7  C   UNL     1     -40.212  52.114 -53.228  1.00  0.00     0.009 A 
HETATM    8  C   UNL     1     -40.036  51.562 -51.933  1.00  0.00     0.067 A 
HETATM    9  C   UNL     1     -39.935  51.274 -54.338  1.00  0.00     0.014 A 
HETATM   10  N   UNL     1     -40.291  52.240 -50.808  1.00  0.00    -0.259 NA
HETATM   11  C   UNL     1     -39.582  50.259 -51.796  1.00  0.00     0.032 A 
HETATM   12  C   UNL     1     -40.759  53.500 -50.909  1.00  0.00     0.135 A 
HETATM   13  C   UNL     1     -39.303  49.454 -52.898  1.00  0.00     0.002 A 
HETATM   14  C   UNL     1     -39.484  49.963 -54.173  1.00  0.00     0.001 A 
BRANCH   6  15
HETATM   15  C   UNL     1     -40.816  54.205 -54.611  1.00  0.00     0.419 C 
HETATM   16  F   UNL     1     -40.432  55.510 -54.537  1.00  0.00    -0.166 F 
HETATM   17  F   UNL     1     -40.114  53.701 -55.659  1.00  0.00    -0.166 F 
HETATM   18  F   UNL     1     -42.121  54.226 -55.010  1.00  0.00    -0.166 F 
ENDBRANCH   6  15
ENDBRANCH   2   5
BRANCH   1  19
HETATM   19  C   UNL     1     -43.736  56.732 -52.182  1.00  0.00     0.035 A 
HETATM   20  C   UNL     1     -44.459  57.123 -51.055  1.00  0.00     0.032 A 
HETATM   21  C   UNL     1     -45.239  58.287 -51.069  1.00  0.00     0.039 A 
HETATM   22  C   UNL     1     -45.300  59.082 -52.211  1.00  0.00     0.069 A 
HETATM   23  C   UNL     1     -44.581  58.693 -53.342  1.00  0.00     0.039 A 
HETATM   24  C   UNL     1     -43.806  57.528 -53.330  1.00  0.00     0.032 A 
BRANCH  22  25
HETATM   25  O   UNL     1     -46.015  60.240 -52.347  1.00  0.00    -0.349 OA
BRANCH  25  26
HETATM   26  C   UNL     1     -46.047  61.107 -51.215  1.00  0.00     0.203 C 
BRANCH  26  27
HETATM   27  C   UNL     1     -44.830  62.033 -51.303  1.00  0.00     0.260 C 
BRANCH  27  28
HETATM   28  N   UNL     1     -43.879  61.859 -50.130  1.00  0.00    -0.077 N 
HETATM   29  C   UNL     1     -42.682  61.007 -50.449  1.00  0.00     0.269 C 
HETATM   30  H   UNL     1     -43.533  62.794 -49.871  1.00  0.00     0.279 HD
HETATM   31  C   UNL     1     -44.608  61.335 -48.918  1.00  0.00     0.269 C 
ENDBRANCH  27  28
ENDBRANCH  26  27
ENDBRANCH  25  26
ENDBRANCH  22  25
ENDBRANCH   1  19
TORSDOF 7
ENDMDL
MODEL 2
REMARK VINA RESULT:      -7.9      1.740      2.559
REMARK  7 active torsions:
REMARK  status: ('A' for Active; 'I' for Inactive)
REMARK    1  A    between atoms: N_2  and  C_4 
REMARK    2  A    between atoms: C_4  and  C_5 
REMARK    3  A    between atoms: C_5  and  O_6 
REMARK    4  A    between atoms: O_6  and  C_7 
REMARK    5  A    between atoms: C_10  and  N_11 
REMARK       I    between atoms: N_11  and  C_12 
REMARK    6  A    between atoms: C_12  and  C_13 
REMARK    7  A    between atoms: C_14  and  C_15 
ROOT
HETATM    1  N   UNL     1     -43.000  55.697 -52.382  1.00  0.00    -0.323 N 
HETATM    2  C   UNL     1     -41.630  55.635 -52.201  1.00  0.00     0.258 C 
HETATM    3  O   UNL     1     -40.870  56.561 -51.950  1.00  0.00    -0.267 OA
HETATM    4  H   UNL     1     -43.502  54.833 -52.555  1.00  0.00     0.169 HD
ENDROOT
BRANCH   2   5
HETATM    5  C   UNL     1     -41.047  54.276 -52.258  1.00  0.00     0.065 A 
HETATM    6  C   UNL     1     -40.756  53.564 -53.435  1.00  0.00     0.077 A 
HETATM    7  C   UNL     1     -40.295  52.217 -53.318  1.00  0.00     0.009 A 
HETATM    8  C   UNL     1     -40.071  51.716 -52.010  1.00  0.00     0.067 A 
HETATM    9  C   UNL     1     -40.051  51.335 -54.404  1.00  0.00     0.014 A 
HETATM   10  N   UNL     1     -40.290  52.437 -50.904  1.00  0.00    -0.259 NA
HETATM   11  C   UNL     1     -39.605  50.421 -51.838  1.00  0.00     0.032 A 
HETATM   12  C   UNL     1     -40.768  53.690 -51.037  1.00  0.00     0.135 A 
HETATM   13  C   UNL     1     -39.360  49.575 -52.917  1.00  0.00     0.002 A 
HETATM   14  C   UNL     1     -39.588  50.033 -54.203  1.00  0.00     0.001 A 
BRANCH   6  15
HETATM   15  C   UNL     1     -40.957  54.250 -54.759  1.00  0.00     0.419 C 
HETATM   16  F   UNL     1     -42.233  54.157 -55.225  1.00  0.00    -0.166 F 
HETATM   17  F   UNL     1     -40.680  55.579 -54.783  1.00  0.00    -0.166 F 
HETATM   18  F   UNL     1     -40.171  53.686 -55.723  1.00  0.00    -0.166 F 
ENDBRANCH   6  15
ENDBRANCH   2   5
BRANCH   1  19
HETATM   19  C   UNL     1     -43.803  56.858 -52.341  1.00  0.00     0.035 A 
HETATM   20  C   UNL     1     -43.996  57.712 -53.428  1.00  0.00     0.032 A 
HETATM   21  C   UNL     1     -44.803  58.851 -53.315  1.00  0.00     0.039 A 
HETATM   22  C   UNL     1     -45.437  59.149 -52.112  1.00  0.00     0.069 A 
HETATM   23  C   UNL     1     -45.246  58.301 -51.020  1.00  0.00     0.039 A 
HETATM   24  C   UNL     1     -44.436  57.165 -51.132  1.00  0.00     0.032 A 
BRANCH  22  25
HETATM   25  O   UNL     1     -46.253  60.222 -51.877  1.00  0.00    -0.349 OA
BRANCH  25  26
HETATM   26  C   UNL     1     -46.341  61.196 -52.914  1.00  0.00     0.203 C 
BRANCH  26  27
HETATM   27  C   UNL     1     -47.580  62.055 -52.641  1.00  0.00     0.260 C 
BRANCH  27  28
HETATM   28  N   UNL     1     -48.640  61.911 -53.721  1.00  0.00    -0.077 N 
HETATM   29  C   UNL     1     -48.297  62.629 -54.998  1.00  0.00     0.269 C 
HETATM   30  H   UNL     1     -48.721  60.909 -53.943  1.00  0.00     0.279 HD
HETATM   31  C   UNL     1     -49.993  62.334 -53.209  1.00  0.00     0.269 C 
ENDBRANCH  27  28
ENDBRANCH  26  27
ENDBRANCH  25  26
ENDBRANCH  22  25
ENDBRANCH   1  19
TORSDOF 7
ENDMDL
MODEL 3
REMARK VINA RESULT:      -7.8      1.557      2.135
REMARK  7 active torsions:
REMARK  status: ('A' for Active; 'I' for Inactive)
REMARK    1  A    between atoms: N_2  and  C_4 
REMARK    2  A    between atoms: C_4  and  C_5 
REMARK    3  A    between atoms: C_5  and  O_6 
REMARK    4  A    between atoms: O_6  and  C_7 
REMARK    5  A    between atoms: C_10  and  N_11 
REMARK       I    between atoms: N_11  and  C_12 
REMARK    6  A    between atoms: C_12  and  C_13 
REMARK    7  A    between atoms: C_14  and  C_15 
ROOT
HETATM    1  N   UNL     1     -40.963  56.386 -51.555  1.00  0.00    -0.323 N 
HETATM    2  C   UNL     1     -41.808  55.293 -51.590  1.00  0.00     0.258 C 
HETATM    3  O   UNL     1     -43.031  55.297 -51.531  1.00  0.00    -0.267 OA
HETATM    4  H   UNL     1     -39.965  56.225 -51.647  1.00  0.00     0.169 HD
ENDROOT
BRANCH   2   5
HETATM    5  C   UNL     1     -41.143  53.985 -51.788  1.00  0.00     0.065 A 
HETATM    6  C   UNL     1     -40.834  53.410 -53.033  1.00  0.00     0.077 A 
HETATM    7  C   UNL     1     -40.288  52.090 -53.055  1.00  0.00     0.009 A 
HETATM    8  C   UNL     1     -40.006  51.481 -51.805  1.00  0.00     0.067 A 
HETATM    9  C   UNL     1     -40.014  51.334 -54.225  1.00  0.00     0.014 A 
HETATM   10  N   UNL     1     -40.246  52.076 -50.631  1.00  0.00    -0.259 NA
HETATM   11  C   UNL     1     -39.458  50.207 -51.768  1.00  0.00     0.032 A 
HETATM   12  C   UNL     1     -40.803  53.303 -50.634  1.00  0.00     0.135 A 
HETATM   13  C   UNL     1     -39.184  49.487 -52.928  1.00  0.00     0.002 A 
HETATM   14  C   UNL     1     -39.467  50.051 -54.160  1.00  0.00     0.001 A 
BRANCH   6  15
HETATM   15  C   UNL     1     -41.104  54.206 -54.281  1.00  0.00     0.419 C 
HETATM   16  F   UNL     1     -40.694  53.579 -55.418  1.00  0.00    -0.166 F 
HETATM   17  F   UNL     1     -42.406  54.517 -54.512  1.00  0.00    -0.166 F 
HETATM   18  F   UNL     1     -40.435  55.396 -54.254  1.00  0.00    -0.166 F 
ENDBRANCH   6  15
ENDBRANCH   2   5
BRANCH   1  19
HETATM   19  C   UNL     1     -41.340  57.740 -51.413  1.00  0.00     0.035 A 
HETATM   20  C   UNL     1     -40.901  58.567 -50.379  1.00  0.00     0.032 A 
HETATM   21  C   UNL     1     -41.320  59.901 -50.296  1.00  0.00     0.039 A 
HETATM   22  C   UNL     1     -42.182  60.429 -51.254  1.00  0.00     0.069 A 
HETATM   23  C   UNL     1     -42.627  59.606 -52.289  1.00  0.00     0.039 A 
HETATM   24  C   UNL     1     -42.211  58.272 -52.369  1.00  0.00     0.032 A 
BRANCH  22  25
HETATM   25  O   UNL     1     -42.656  61.712 -51.288  1.00  0.00    -0.349 OA
BRANCH  25  26
HETATM   26  C   UNL     1     -44.032  61.893 -50.959  1.00  0.00     0.203 C 
BRANCH  26  27
HETATM   27  C   UNL     1     -44.147  61.900 -49.431  1.00  0.00     0.260 C 
BRANCH  27  28
HETATM   28  N   UNL     1     -44.822  60.649 -48.892  1.00  0.00    -0.077 N 
HETATM   29  C   UNL     1     -45.606  59.895 -49.931  1.00  0.00     0.269 C 
HETATM   30  H   UNL     1     -44.082  60.021 -48.548  1.00  0.00     0.279 HD
HETATM   31  C   UNL     1     -45.681  60.972 -47.695  1.00  0.00     0.269 C 
ENDBRANCH  27  28
ENDBRANCH  26  27
ENDBRANCH  25  26
ENDBRANCH  22  25
ENDBRANCH   1  19
TORSDOF 7
ENDMDL
MODEL 4
REMARK VINA RESULT:      -7.6      2.396      3.261
REMARK  7 active torsions:
REMARK  status: ('A' for Active; 'I' for Inactive)
REMARK    1  A    between atoms: N_2  and  C_4 
REMARK    2  A    between atoms: C_4  and  C_5 
REMARK    3  A    between atoms: C_5  and  O_6 
REMARK    4  A    between atoms: O_6  and  C_7 
REMARK    5  A    between atoms: C_10  and  N_11 
REMARK       I    between atoms: N_11  and  C_12 
REMARK    6  A    between atoms: C_12  and  C_13 
REMARK    7  A    between atoms: C_14  and  C_15 
ROOT
HETATM    1  N   UNL     1     -43.041  56.762 -51.861  1.00  0.00    -0.323 N 
HETATM    2  C   UNL     1     -41.683  56.509 -51.897  1.00  0.00     0.258 C 
HETATM    3  O   UNL     1     -40.779  57.243 -51.519  1.00  0.00    -0.267 OA
HETATM    4  H   UNL     1     -43.674  56.038 -52.185  1.00  0.00     0.169 HD
ENDROOT
BRANCH   2   5
HETATM    5  C   UNL     1     -41.303  55.166 -52.392  1.00  0.00     0.065 A 
HETATM    6  C   UNL     1     -40.849  54.103 -51.592  1.00  0.00     0.077 A 
HETATM    7  C   UNL     1     -40.420  52.902 -52.236  1.00  0.00     0.009 A 
HETATM    8  C   UNL     1     -40.570  52.830 -53.645  1.00  0.00     0.067 A 
HETATM    9  C   UNL     1     -39.847  51.779 -51.583  1.00  0.00     0.014 A 
HETATM   10  N   UNL     1     -41.069  53.831 -54.380  1.00  0.00    -0.259 NA
HETATM   11  C   UNL     1     -40.186  51.681 -54.321  1.00  0.00     0.032 A 
HETATM   12  C   UNL     1     -41.425  54.971 -53.755  1.00  0.00     0.135 A 
HETATM   13  C   UNL     1     -39.638  50.585 -53.660  1.00  0.00     0.002 A 
HETATM   14  C   UNL     1     -39.464  50.636 -52.288  1.00  0.00     0.001 A 
BRANCH   6  15
HETATM   15  C   UNL     1     -40.826  54.285 -50.098  1.00  0.00     0.419 C 
HETATM   16  F   UNL     1     -41.930  54.922 -49.617  1.00  0.00    -0.166 F 
HETATM   17  F   UNL     1     -40.743  53.144 -49.366  1.00  0.00    -0.166 F 
HETATM   18  F   UNL     1     -39.763  55.052 -49.718  1.00  0.00    -0.166 F 
ENDBRANCH   6  15
ENDBRANCH   2   5
BRANCH   1  19
HETATM   19  C   UNL     1     -43.667  57.943 -51.404  1.00  0.00     0.035 A 
HETATM   20  C   UNL     1     -43.001  59.154 -51.212  1.00  0.00     0.032 A 
HETATM   21  C   UNL     1     -43.684  60.286 -50.749  1.00  0.00     0.039 A 
HETATM   22  C   UNL     1     -45.049  60.224 -50.478  1.00  0.00     0.069 A 
HETATM   23  C   UNL     1     -45.719  59.015 -50.664  1.00  0.00     0.039 A 
HETATM   24  C   UNL     1     -45.036  57.883 -51.123  1.00  0.00     0.032 A 
BRANCH  22  25
HETATM   25  O   UNL     1     -45.827  61.256 -50.031  1.00  0.00    -0.349 OA
BRANCH  25  26
HETATM   26  C   UNL     1     -45.361  61.956 -48.879  1.00  0.00     0.203 C 
BRANCH  26  27
HETATM   27  C   UNL     1     -46.219  61.517 -47.689  1.00  0.00     0.260 C 
BRANCH  27  28
HETATM   28  N   UNL     1     -45.544  60.448 -46.845  1.00  0.00    -0.077 N 
HETATM   29  C   UNL     1     -46.511  59.491 -46.202  1.00  0.00     0.269 C 
HETATM   30  H   UNL     1     -44.935  59.899 -47.468  1.00  0.00     0.279 HD
HETATM   31  C   UNL     1     -44.633  61.068 -45.816  1.00  0.00     0.269 C 
ENDBRANCH  27  28
ENDBRANCH  26  27
ENDBRANCH  25  26
ENDBRANCH  22  25
ENDBRANCH   1  19
TORSDOF 7
ENDMDL
MODEL 5
REMARK VINA RESULT:      -7.4      1.498      2.169
REMARK  7 active torsions:
REMARK  status: ('A' for Active; 'I' for Inactive)
REMARK    1  A    between atoms: N_2  and  C_4 
REMARK    2  A    between atoms: C_4  and  C_5 
REMARK    3  A    between atoms: C_5  and  O_6 
REMARK    4  A    between atoms: O_6  and  C_7 
REMARK    5  A    between atoms: C_10  and  N_11 
REMARK       I    between atoms: N_11  and  C_12 
REMARK    6  A    between atoms: C_12  and  C_13 
REMARK    7  A    between atoms: C_14  and  C_15 
ROOT
HETATM    1  N   UNL     1     -42.579  55.808 -51.863  1.00  0.00    -0.323 N 
HETATM    2  C   UNL     1     -41.298  55.547 -51.414  1.00  0.00     0.258 C 
HETATM    3  O   UNL     1     -40.560  56.300 -50.792  1.00  0.00    -0.267 OA
HETATM    4  H   UNL     1     -43.082  55.067 -52.341  1.00  0.00     0.169 HD
ENDROOT
BRANCH   2   5
HETATM    5  C   UNL     1     -40.808  54.173 -51.667  1.00  0.00     0.065 A 
HETATM    6  C   UNL     1     -40.560  53.620 -52.935  1.00  0.00     0.077 A 
HETATM    7  C   UNL     1     -40.191  52.241 -53.015  1.00  0.00     0.009 A 
HETATM    8  C   UNL     1     -40.009  51.544 -51.792  1.00  0.00     0.067 A 
HETATM    9  C   UNL     1     -40.003  51.509 -54.217  1.00  0.00     0.014 A 
HETATM   10  N   UNL     1     -40.184  52.112 -50.593  1.00  0.00    -0.259 NA
HETATM   11  C   UNL     1     -39.633  50.209 -51.810  1.00  0.00     0.032 A 
HETATM   12  C   UNL     1     -40.576  53.401 -50.544  1.00  0.00     0.135 A 
HETATM   13  C   UNL     1     -39.440  49.512 -53.001  1.00  0.00     0.002 A 
HETATM   14  C   UNL     1     -39.630  50.164 -54.207  1.00  0.00     0.001 A 
BRANCH   6  15
HETATM   15  C   UNL     1     -40.706  54.500 -54.147  1.00  0.00     0.419 C 
HETATM   16  F   UNL     1     -39.962  54.081 -55.208  1.00  0.00    -0.166 F 
HETATM   17  F   UNL     1     -41.966  54.621 -54.639  1.00  0.00    -0.166 F 
HETATM   18  F   UNL     1     -40.285  55.770 -53.879  1.00  0.00    -0.166 F 
ENDBRANCH   6  15
ENDBRANCH   2   5
BRANCH   1  19
HETATM   19  C   UNL     1     -43.292  57.019 -51.719  1.00  0.00     0.035 A 
HETATM   20  C   UNL     1     -44.556  57.115 -51.137  1.00  0.00     0.032 A 
HETATM   21  C   UNL     1     -45.209  58.350 -51.032  1.00  0.00     0.039 A 
HETATM   22  C   UNL     1     -44.601  59.511 -51.504  1.00  0.00     0.069 A 
HETATM   23  C   UNL     1     -43.339  59.421 -52.091  1.00  0.00     0.039 A 
HETATM   24  C   UNL     1     -42.689  58.186 -52.199  1.00  0.00     0.032 A 
BRANCH  22  25
HETATM   25  O   UNL     1     -45.129  60.772 -51.455  1.00  0.00    -0.349 OA
BRANCH  25  26
HETATM   26  C   UNL     1     -44.876  61.615 -52.576  1.00  0.00     0.203 C 
BRANCH  26  27
HETATM   27  C   UNL     1     -45.938  61.309 -53.637  1.00  0.00     0.260 C 
BRANCH  27  28
HETATM   28  N   UNL     1     -45.330  60.937 -54.980  1.00  0.00    -0.077 N 
HETATM   29  C   UNL     1     -45.253  59.453 -55.214  1.00  0.00     0.269 C 
HETATM   30  H   UNL     1     -45.934  61.334 -55.714  1.00  0.00     0.279 HD
HETATM   31  C   UNL     1     -43.979  61.584 -55.159  1.00  0.00     0.269 C 
ENDBRANCH  27  28
ENDBRANCH  26  27
ENDBRANCH  25  26
ENDBRANCH  22  25
ENDBRANCH   1  19
TORSDOF 7
ENDMDL
MODEL 6
REMARK VINA RESULT:      -7.3      3.694      5.202
REMARK  7 active torsions:
REMARK  status: ('A' for Active; 'I' for Inactive)
REMARK    1  A    between atoms: N_2  and  C_4 
REMARK    2  A    between atoms: C_4  and  C_5 
REMARK    3  A    between atoms: C_5  and  O_6 
REMARK    4  A    between atoms: O_6  and  C_7 
REMARK    5  A    between atoms: C_10  and  N_11 
REMARK       I    between atoms: N_11  and  C_12 
REMARK    6  A    between atoms: C_12  and  C_13 
REMARK    7  A    between atoms: C_14  and  C_15 
ROOT
HETATM    1  N   UNL     1     -43.033  55.884 -54.436  1.00  0.00    -0.323 N 
HETATM    2  C   UNL     1     -41.861  56.116 -53.740  1.00  0.00     0.258 C 
HETATM    3  O   UNL     1     -41.217  57.157 -53.695  1.00  0.00    -0.267 OA
HETATM    4  H   UNL     1     -43.470  54.972 -54.351  1.00  0.00     0.169 HD
ENDROOT
BRANCH   2   5
HETATM    5  C   UNL     1     -41.382  54.986 -52.912  1.00  0.00     0.065 A 
HETATM    6  C   UNL     1     -40.703  53.855 -53.395  1.00  0.00     0.077 A 
HETATM    7  C   UNL     1     -40.403  52.799 -52.480  1.00  0.00     0.009 A 
HETATM    8  C   UNL     1     -40.732  53.008 -51.116  1.00  0.00     0.067 A 
HETATM    9  C   UNL     1     -39.811  51.556 -52.825  1.00  0.00     0.014 A 
HETATM   10  N   UNL     1     -41.319  54.123 -50.667  1.00  0.00    -0.259 NA
HETATM   11  C   UNL     1     -40.447  52.024 -50.180  1.00  0.00     0.032 A 
HETATM   12  C   UNL     1     -41.633  55.086 -51.556  1.00  0.00     0.135 A 
HETATM   13  C   UNL     1     -39.854  50.815 -50.538  1.00  0.00     0.002 A 
HETATM   14  C   UNL     1     -39.540  50.579 -51.865  1.00  0.00     0.001 A 
BRANCH   6  15
HETATM   15  C   UNL     1     -40.334  53.804 -54.854  1.00  0.00     0.419 C 
HETATM   16  F   UNL     1     -39.754  52.628 -55.220  1.00  0.00    -0.166 F 
HETATM   17  F   UNL     1     -41.361  53.967 -55.727  1.00  0.00    -0.166 F 
HETATM   18  F   UNL     1     -39.425  54.775 -55.160  1.00  0.00    -0.166 F 
ENDBRANCH   6  15
ENDBRANCH   2   5
BRANCH   1  19
HETATM   19  C   UNL     1     -43.717  56.800 -55.266  1.00  0.00     0.035 A 
HETATM   20  C   UNL     1     -44.856  57.504 -54.877  1.00  0.00     0.032 A 
HETATM   21  C   UNL     1     -45.488  58.394 -55.755  1.00  0.00     0.039 A 
HETATM   22  C   UNL     1     -44.983  58.597 -57.037  1.00  0.00     0.069 A 
HETATM   23  C   UNL     1     -43.845  57.892 -57.433  1.00  0.00     0.039 A 
HETATM   24  C   UNL     1     -43.217  57.001 -56.556  1.00  0.00     0.032 A 
BRANCH  22  25
HETATM   25  O   UNL     1     -45.501  59.440 -57.981  1.00  0.00    -0.349 OA
BRANCH  25  26
HETATM   26  C   UNL     1     -46.423  58.870 -58.908  1.00  0.00     0.203 C 
BRANCH  26  27
HETATM   27  C   UNL     1     -45.677  58.646 -60.227  1.00  0.00     0.260 C 
BRANCH  27  28
HETATM   28  N   UNL     1     -45.791  57.214 -60.725  1.00  0.00    -0.077 N 
HETATM   29  C   UNL     1     -46.919  56.447 -60.091  1.00  0.00     0.269 C 
HETATM   30  H   UNL     1     -45.973  57.251 -61.738  1.00  0.00     0.279 HD
HETATM   31  C   UNL     1     -44.483  56.482 -60.565  1.00  0.00     0.269 C 
ENDBRANCH  27  28
ENDBRANCH  26  27
ENDBRANCH  25  26
ENDBRANCH  22  25
ENDBRANCH   1  19
TORSDOF 7
ENDMDL
MODEL 7
REMARK VINA RESULT:      -7.2      2.559      3.563
REMARK  7 active torsions:
REMARK  status: ('A' for Active; 'I' for Inactive)
REMARK    1  A    between atoms: N_2  and  C_4 
REMARK    2  A    between atoms: C_4  and  C_5 
REMARK    3  A    between atoms: C_5  and  O_6 
REMARK    4  A    between atoms: O_6  and  C_7 
REMARK    5  A    between atoms: C_10  and  N_11 
REMARK       I    between atoms: N_11  and  C_12 
REMARK    6  A    between atoms: C_12  and  C_13 
REMARK    7  A    between atoms: C_14  and  C_15 
ROOT
HETATM    1  N   UNL     1     -43.767  56.950 -52.669  1.00  0.00    -0.323 N 
HETATM    2  C   UNL     1     -42.388  56.875 -52.728  1.00  0.00     0.258 C 
HETATM    3  O   UNL     1     -41.586  57.781 -52.545  1.00  0.00    -0.267 OA
HETATM    4  H   UNL     1     -44.301  56.099 -52.815  1.00  0.00     0.169 HD
ENDROOT
BRANCH   2   5
HETATM    5  C   UNL     1     -41.838  55.523 -52.977  1.00  0.00     0.065 A 
HETATM    6  C   UNL     1     -41.276  54.682 -52.002  1.00  0.00     0.077 A 
HETATM    7  C   UNL     1     -40.691  53.448 -52.424  1.00  0.00     0.009 A 
HETATM    8  C   UNL     1     -40.800  53.112 -53.798  1.00  0.00     0.067 A 
HETATM    9  C   UNL     1     -40.000  52.536 -51.583  1.00  0.00     0.014 A 
HETATM   10  N   UNL     1     -41.401  53.899 -54.698  1.00  0.00    -0.259 NA
HETATM   11  C   UNL     1     -40.266  51.918 -54.260  1.00  0.00     0.032 A 
HETATM   12  C   UNL     1     -41.906  55.078 -54.285  1.00  0.00     0.135 A 
HETATM   13  C   UNL     1     -39.603  51.030 -53.415  1.00  0.00     0.002 A 
HETATM   14  C   UNL     1     -39.466  51.343 -52.074  1.00  0.00     0.001 A 
BRANCH   6  15
HETATM   15  C   UNL     1     -41.307  55.124 -50.564  1.00  0.00     0.419 C 
HETATM   16  F   UNL     1     -40.335  56.029 -50.260  1.00  0.00    -0.166 F 
HETATM   17  F   UNL     1     -42.460  55.710 -50.152  1.00  0.00    -0.166 F 
HETATM   18  F   UNL     1     -41.103  54.067 -49.725  1.00  0.00    -0.166 F 
ENDBRANCH   6  15
ENDBRANCH   2   5
BRANCH   1  19
HETATM   19  C   UNL     1     -44.539  58.105 -52.413  1.00  0.00     0.035 A 
HETATM   20  C   UNL     1     -44.864  59.056 -53.380  1.00  0.00     0.032 A 
HETATM   21  C   UNL     1     -45.630  60.183 -53.053  1.00  0.00     0.039 A 
HETATM   22  C   UNL     1     -46.088  60.370 -51.752  1.00  0.00     0.069 A 
HETATM   23  C   UNL     1     -45.763  59.423 -50.779  1.00  0.00     0.039 A 
HETATM   24  C   UNL     1     -44.995  58.300 -51.105  1.00  0.00     0.032 A 
BRANCH  22  25
HETATM   25  O   UNL     1     -46.847  61.419 -51.310  1.00  0.00    -0.349 OA
BRANCH  25  26
HETATM   26  C   UNL     1     -47.534  62.174 -52.305  1.00  0.00     0.203 C 
BRANCH  26  27
HETATM   27  C   UNL     1     -47.469  63.649 -51.897  1.00  0.00     0.260 C 
BRANCH  27  28
HETATM   28  N   UNL     1     -48.779  64.150 -51.309  1.00  0.00    -0.077 N 
HETATM   29  C   UNL     1     -48.868  63.986 -49.817  1.00  0.00     0.269 C 
HETATM   30  H   UNL     1     -48.846  65.157 -51.514  1.00  0.00     0.279 HD
HETATM   31  C   UNL     1     -49.958  63.507 -51.995  1.00  0.00     0.269 C 
ENDBRANCH  27  28
ENDBRANCH  26  27
ENDBRANCH  25  26
ENDBRANCH  22  25
ENDBRANCH   1  19
TORSDOF 7
ENDMDL
MODEL 8
REMARK VINA RESULT:      -7.0      4.111      5.221
REMARK  7 active torsions:
REMARK  status: ('A' for Active; 'I' for Inactive)
REMARK    1  A    between atoms: N_2  and  C_4 
REMARK    2  A    between atoms: C_4  and  C_5 
REMARK    3  A    between atoms: C_5  and  O_6 
REMARK    4  A    between atoms: O_6  and  C_7 
REMARK    5  A    between atoms: C_10  and  N_11 
REMARK       I    between atoms: N_11  and  C_12 
REMARK    6  A    between atoms: C_12  and  C_13 
REMARK    7  A    between atoms: C_14  and  C_15 
ROOT
HETATM    1  N   UNL     1     -42.295  54.716 -55.378  1.00  0.00    -0.323 N 
HETATM    2  C   UNL     1     -41.093  54.766 -54.697  1.00  0.00     0.258 C 
HETATM    3  O   UNL     1     -40.317  55.710 -54.627  1.00  0.00    -0.267 OA
HETATM    4  H   UNL     1     -42.847  53.867 -55.317  1.00  0.00     0.169 HD
ENDROOT
BRANCH   2   5
HETATM    5  C   UNL     1     -40.757  53.553 -53.918  1.00  0.00     0.065 A 
HETATM    6  C   UNL     1     -40.957  53.393 -52.536  1.00  0.00     0.077 A 
HETATM    7  C   UNL     1     -40.480  52.199 -51.913  1.00  0.00     0.009 A 
HETATM    8  C   UNL     1     -39.914  51.207 -52.755  1.00  0.00     0.067 A 
HETATM    9  C   UNL     1     -40.516  51.928 -50.520  1.00  0.00     0.014 A 
HETATM   10  N   UNL     1     -39.795  51.353 -54.080  1.00  0.00    -0.259 NA
HETATM   11  C   UNL     1     -39.450  50.021 -52.207  1.00  0.00     0.032 A 
HETATM   12  C   UNL     1     -40.212  52.507 -54.639  1.00  0.00     0.135 A 
HETATM   13  C   UNL     1     -39.507  49.768 -50.838  1.00  0.00     0.002 A 
HETATM   14  C   UNL     1     -40.037  50.727 -49.993  1.00  0.00     0.001 A 
BRANCH   6  15
HETATM   15  C   UNL     1     -41.654  54.490 -51.777  1.00  0.00     0.419 C 
HETATM   16  F   UNL     1     -42.767  54.957 -52.408  1.00  0.00    -0.166 F 
HETATM   17  F   UNL     1     -42.078  54.167 -50.529  1.00  0.00    -0.166 F 
HETATM   18  F   UNL     1     -40.835  55.573 -51.626  1.00  0.00    -0.166 F 
ENDBRANCH   6  15
ENDBRANCH   2   5
BRANCH   1  19
HETATM   19  C   UNL     1     -42.863  55.744 -56.163  1.00  0.00     0.035 A 
HETATM   20  C   UNL     1     -43.348  56.944 -55.643  1.00  0.00     0.032 A 
HETATM   21  C   UNL     1     -43.905  57.919 -56.481  1.00  0.00     0.039 A 
HETATM   22  C   UNL     1     -43.977  57.709 -57.856  1.00  0.00     0.069 A 
HETATM   23  C   UNL     1     -43.496  56.509 -58.382  1.00  0.00     0.039 A 
HETATM   24  C   UNL     1     -42.944  55.534 -57.544  1.00  0.00     0.032 A 
BRANCH  22  25
HETATM   25  O   UNL     1     -44.489  58.582 -58.777  1.00  0.00    -0.349 OA
BRANCH  25  26
HETATM   26  C   UNL     1     -44.331  59.971 -58.496  1.00  0.00     0.203 C 
BRANCH  26  27
HETATM   27  C   UNL     1     -43.544  60.593 -59.654  1.00  0.00     0.260 C 
BRANCH  27  28
HETATM   28  N   UNL     1     -42.041  60.548 -59.428  1.00  0.00    -0.077 N 
HETATM   29  C   UNL     1     -41.651  60.619 -57.977  1.00  0.00     0.269 C 
HETATM   30  H   UNL     1     -41.699  59.650 -59.797  1.00  0.00     0.279 HD
HETATM   31  C   UNL     1     -41.343  61.618 -60.228  1.00  0.00     0.269 C 
ENDBRANCH  27  28
ENDBRANCH  26  27
ENDBRANCH  25  26
ENDBRANCH  22  25
ENDBRANCH   1  19
TORSDOF 7
ENDMDL
MODEL 9
REMARK VINA RESULT:      -7.0      1.870      2.614
REMARK  7 active torsions:
REMARK  status: ('A' for Active; 'I' for Inactive)
REMARK    1  A    between atoms: N_2  and  C_4 
REMARK    2  A    between atoms: C_4  and  C_5 
REMARK    3  A    between atoms: C_5  and  O_6 
REMARK    4  A    between atoms: O_6  and  C_7 
REMARK    5  A    between atoms: C_10  and  N_11 
REMARK       I    between atoms: N_11  and  C_12 
REMARK    6  A    between atoms: C_12  and  C_13 
REMARK    7  A    between atoms: C_14  and  C_15 
ROOT
HETATM    1  N   UNL     1     -41.535  57.521 -52.198  1.00  0.00    -0.323 N 
HETATM    2  C   UNL     1     -42.287  56.380 -51.990  1.00  0.00     0.258 C 
HETATM    3  O   UNL     1     -43.483  56.314 -51.734  1.00  0.00    -0.267 OA
HETATM    4  H   UNL     1     -40.554  57.413 -52.433  1.00  0.00     0.169 HD
ENDROOT
BRANCH   2   5
HETATM    5  C   UNL     1     -41.560  55.102 -52.164  1.00  0.00     0.065 A 
HETATM    6  C   UNL     1     -41.546  54.328 -53.337  1.00  0.00     0.077 A 
HETATM    7  C   UNL     1     -40.882  53.063 -53.309  1.00  0.00     0.009 A 
HETATM    8  C   UNL     1     -40.197  52.714 -52.117  1.00  0.00     0.067 A 
HETATM    9  C   UNL     1     -40.859  52.124 -54.373  1.00  0.00     0.014 A 
HETATM   10  N   UNL     1     -40.167  53.499 -51.033  1.00  0.00    -0.259 NA
HETATM   11  C   UNL     1     -39.520  51.506 -52.040  1.00  0.00     0.032 A 
HETATM   12  C   UNL     1     -40.839  54.667 -51.068  1.00  0.00     0.135 A 
HETATM   13  C   UNL     1     -39.499  50.603 -53.101  1.00  0.00     0.002 A 
HETATM   14  C   UNL     1     -40.174  50.911 -54.268  1.00  0.00     0.001 A 
BRANCH   6  15
HETATM   15  C   UNL     1     -42.240  54.863 -54.561  1.00  0.00     0.419 C 
HETATM   16  F   UNL     1     -41.929  56.161 -54.831  1.00  0.00    -0.166 F 
HETATM   17  F   UNL     1     -41.985  54.201 -55.719  1.00  0.00    -0.166 F 
HETATM   18  F   UNL     1     -43.595  54.833 -54.403  1.00  0.00    -0.166 F 
ENDBRANCH   6  15
ENDBRANCH   2   5
BRANCH   1  19
HETATM   19  C   UNL     1     -41.991  58.856 -52.129  1.00  0.00     0.035 A 
HETATM   20  C   UNL     1     -42.302  59.632 -53.246  1.00  0.00     0.032 A 
HETATM   21  C   UNL     1     -42.744  60.954 -53.104  1.00  0.00     0.039 A 
HETATM   22  C   UNL     1     -42.888  61.516 -51.839  1.00  0.00     0.069 A 
HETATM   23  C   UNL     1     -42.575  60.746 -50.718  1.00  0.00     0.039 A 
HETATM   24  C   UNL     1     -42.130  59.427 -50.860  1.00  0.00     0.032 A 
BRANCH  22  25
HETATM   25  O   UNL     1     -43.316  62.788 -51.568  1.00  0.00    -0.349 OA
BRANCH  25  26
HETATM   26  C   UNL     1     -44.628  62.918 -51.024  1.00  0.00     0.203 C 
BRANCH  26  27
HETATM   27  C   UNL     1     -45.598  63.113 -52.193  1.00  0.00     0.260 C 
BRANCH  27  28
HETATM   28  N   UNL     1     -46.449  61.881 -52.458  1.00  0.00    -0.077 N 
HETATM   29  C   UNL     1     -47.868  62.203 -52.838  1.00  0.00     0.269 C 
HETATM   30  H   UNL     1     -46.024  61.376 -53.247  1.00  0.00     0.279 HD
HETATM   31  C   UNL     1     -46.405  60.934 -51.285  1.00  0.00     0.269 C 
ENDBRANCH  27  28
ENDBRANCH  26  27
ENDBRANCH  25  26
ENDBRANCH  22  25
ENDBRANCH   1  19
TORSDOF 7
ENDMDL
MODEL 10
REMARK VINA RESULT:      -7.0      2.611      3.329
REMARK  7 active torsions:
REMARK  status: ('A' for Active; 'I' for Inactive)
REMARK    1  A    between atoms: N_2  and  C_4 
REMARK    2  A    between atoms: C_4  and  C_5 
REMARK    3  A    between atoms: C_5  and  O_6 
REMARK    4  A    between atoms: O_6  and  C_7 
REMARK    5  A    between atoms: C_10  and  N_11 
REMARK       I    between atoms: N_11  and  C_12 
REMARK    6  A    between atoms: C_12  and  C_13 
REMARK    7  A    between atoms: C_14  and  C_15 
ROOT
HETATM    1  N   UNL     1     -42.967  56.145 -53.121  1.00  0.00    -0.323 N 
HETATM    2  C   UNL     1     -41.633  56.086 -52.760  1.00  0.00     0.258 C 
HETATM    3  O   UNL     1     -40.862  57.025 -52.606  1.00  0.00    -0.267 OA
HETATM    4  H   UNL     1     -43.488  55.277 -53.179  1.00  0.00     0.169 HD
ENDROOT
BRANCH   2   5
HETATM    5  C   UNL     1     -41.117  54.730 -52.469  1.00  0.00     0.065 A 
HETATM    6  C   UNL     1     -40.666  53.808 -53.430  1.00  0.00     0.077 A 
HETATM    7  C   UNL     1     -40.298  52.497 -52.995  1.00  0.00     0.009 A 
HETATM    8  C   UNL     1     -40.326  52.243 -51.599  1.00  0.00     0.067 A 
HETATM    9  C   UNL     1     -39.917  51.426 -53.845  1.00  0.00     0.014 A 
HETATM   10  N   UNL     1     -40.695  53.159 -50.696  1.00  0.00    -0.259 NA
HETATM   11  C   UNL     1     -39.962  50.994 -51.119  1.00  0.00     0.032 A 
HETATM   12  C   UNL     1     -41.080  54.374 -51.133  1.00  0.00     0.135 A 
HETATM   13  C   UNL     1     -39.579  49.959 -51.970  1.00  0.00     0.002 A 
HETATM   14  C   UNL     1     -39.561  50.176 -53.336  1.00  0.00     0.001 A 
BRANCH   6  15
HETATM   15  C   UNL     1     -40.602  54.241 -54.869  1.00  0.00     0.419 C 
HETATM   16  F   UNL     1     -40.010  53.322 -55.681  1.00  0.00    -0.166 F 
HETATM   17  F   UNL     1     -41.797  54.500 -55.460  1.00  0.00    -0.166 F 
HETATM   18  F   UNL     1     -39.864  55.381 -55.003  1.00  0.00    -0.166 F 
ENDBRANCH   6  15
ENDBRANCH   2   5
BRANCH   1  19
HETATM   19  C   UNL     1     -43.710  57.310 -53.416  1.00  0.00     0.035 A 
HETATM   20  C   UNL     1     -43.821  58.403 -52.556  1.00  0.00     0.032 A 
HETATM   21  C   UNL     1     -44.581  59.525 -52.911  1.00  0.00     0.039 A 
HETATM   22  C   UNL     1     -45.236  59.572 -54.139  1.00  0.00     0.069 A 
HETATM   23  C   UNL     1     -45.131  58.481 -55.002  1.00  0.00     0.039 A 
HETATM   24  C   UNL     1     -44.375  57.359 -54.645  1.00  0.00     0.032 A 
BRANCH  22  25
HETATM   25  O   UNL     1     -45.999  60.608 -54.603  1.00  0.00    -0.349 OA
BRANCH  25  26
HETATM   26  C   UNL     1     -45.932  60.873 -56.003  1.00  0.00     0.203 C 
BRANCH  26  27
HETATM   27  C   UNL     1     -46.881  62.038 -56.301  1.00  0.00     0.260 C 
BRANCH  27  28
HETATM   28  N   UNL     1     -48.339  61.609 -56.333  1.00  0.00    -0.077 N 
HETATM   29  C   UNL     1     -48.857  61.345 -57.720  1.00  0.00     0.269 C 
HETATM   30  H   UNL     1     -48.414  60.730 -55.802  1.00  0.00     0.279 HD
HETATM   31  C   UNL     1     -49.210  62.606 -55.611  1.00  0.00     0.269 C 
ENDBRANCH  27  28
ENDBRANCH  26  27
ENDBRANCH  25  26
ENDBRANCH  22  25
ENDBRANCH   1  19
TORSDOF 7
ENDMDL
