MODEL 1
REMARK VINA RESULT:      -8.6      0.000      0.000
REMARK  8 active torsions:
REMARK  status: ('A' for Active; 'I' for Inactive)
REMARK    1  A    between atoms: C_4  and  O_5 
REMARK    2  A    between atoms: O_5  and  C_6 
REMARK    3  A    between atoms: C_8  and  C_9 
REMARK    4  A    between atoms: C_9  and  N_10 
REMARK    5  A    between atoms: C_9  and  C_14 
REMARK       I    between atoms: N_10  and  C_11 
REMARK       I    between atoms: C_11  and  N_12 
REMARK    6  A    between atoms: C_14  and  C_15 
REMARK       I    between atoms: C_15  and  N_16 
REMARK    7  A    between atoms: N_16  and  N_17 
REMARK       I    between atoms: N_17  and  C_18 
REMARK    8  A    between atoms: C_18  and  C_19 
ROOT
HETATM    1  C   UNL     1     -41.914  57.945 -52.062  1.00  0.00     0.128 C 
ENDROOT
BRANCH   1   2
HETATM    2  C   UNL     1     -42.072  56.451 -51.743  1.00  0.00    -0.032 A 
HETATM    3  C   UNL     1     -40.997  55.547 -51.820  1.00  0.00     0.046 A 
HETATM    4  C   UNL     1     -41.150  54.194 -51.494  1.00  0.00     0.076 A 
HETATM    5  C   UNL     1     -42.391  53.722 -51.070  1.00  0.00     0.037 A 
HETATM    6  C   UNL     1     -43.483  54.587 -51.035  1.00  0.00     0.003 A 
HETATM    7  C   UNL     1     -43.328  55.931 -51.383  1.00  0.00     0.009 A 
BRANCH   4   8
HETATM    8  O   UNL     1     -39.998  53.440 -51.556  1.00  0.00    -0.311 OA
BRANCH   8   9
HETATM    9  C   UNL     1     -39.992  52.289 -52.303  1.00  0.00     0.076 A 
HETATM   10  C   UNL     1     -40.242  52.284 -53.678  1.00  0.00     0.037 A 
HETATM   11  C   UNL     1     -40.177  51.084 -54.388  1.00  0.00     0.003 A 
HETATM   12  C   UNL     1     -39.836  49.900 -53.731  1.00  0.00     0.000 A 
HETATM   13  C   UNL     1     -39.554  49.914 -52.365  1.00  0.00     0.003 A 
HETATM   14  C   UNL     1     -39.625  51.111 -51.652  1.00  0.00     0.037 A 
ENDBRANCH   8   9
ENDBRANCH   4   8
ENDBRANCH   1   2
BRANCH   1  15
HETATM   15  N   UNL     1     -41.049  58.602 -51.088  1.00  0.00    -0.334 N 
HETATM   16  C   UNL     1     -39.870  59.173 -51.444  1.00  0.00     0.314 C 
HETATM   17  N   UNL     1     -39.234  59.759 -50.405  1.00  0.00    -0.352 N 
HETATM   18  O   UNL     1     -39.423  59.188 -52.581  1.00  0.00    -0.248 OA
HETATM   19  H   UNL     1     -39.296  59.302 -49.507  1.00  0.00     0.160 HD
HETATM   20  H   UNL     1     -38.308  60.099 -50.639  1.00  0.00     0.160 HD
HETATM   21  H   UNL     1     -41.470  58.936 -50.231  1.00  0.00     0.165 HD
ENDBRANCH   1  15
BRANCH   1  22
HETATM   22  C   UNL     1     -43.283  58.639 -52.131  1.00  0.00     0.134 C 
BRANCH  22  23
HETATM   23  C   UNL     1     -43.538  59.804 -51.199  1.00  0.00     0.238 C 
HETATM   24  N   UNL     1     -44.362  59.581 -50.117  1.00  0.00    -0.267 N 
HETATM   25  H   UNL     1     -45.170  58.952 -50.190  1.00  0.00     0.190 HD
HETATM   26  O   UNL     1     -42.926  60.866 -51.342  1.00  0.00    -0.272 OA
BRANCH  24  27
HETATM   27  N   UNL     1     -44.554  60.677 -49.258  1.00  0.00    -0.262 N 
HETATM   28  C   UNL     1     -45.420  60.584 -48.186  1.00  0.00     0.293 C 
HETATM   29  O   UNL     1     -46.152  59.613 -48.004  1.00  0.00    -0.264 OA
HETATM   30  H   UNL     1     -43.892  61.449 -49.332  1.00  0.00     0.190 HD
BRANCH  28  31
HETATM   31  C   UNL     1     -45.371  61.730 -47.302  1.00  0.00     0.144 A 
HETATM   32  O   UNL     1     -45.069  62.967 -47.815  1.00  0.00    -0.317 OA
HETATM   33  C   UNL     1     -45.071  63.844 -46.778  1.00  0.00     0.143 A 
HETATM   34  C   UNL     1     -45.376  63.200 -45.603  1.00  0.00     0.027 A 
HETATM   35  C   UNL     1     -45.568  61.838 -45.938  1.00  0.00     0.045 A 
ENDBRANCH  28  31
ENDBRANCH  24  27
ENDBRANCH  22  23
ENDBRANCH   1  22
TORSDOF 8
ENDMDL
MODEL 2
REMARK VINA RESULT:      -8.3      5.018      7.683
REMARK  8 active torsions:
REMARK  status: ('A' for Active; 'I' for Inactive)
REMARK    1  A    between atoms: C_4  and  O_5 
REMARK    2  A    between atoms: O_5  and  C_6 
REMARK    3  A    between atoms: C_8  and  C_9 
REMARK    4  A    between atoms: C_9  and  N_10 
REMARK    5  A    between atoms: C_9  and  C_14 
REMARK       I    between atoms: N_10  and  C_11 
REMARK       I    between atoms: C_11  and  N_12 
REMARK    6  A    between atoms: C_14  and  C_15 
REMARK       I    between atoms: C_15  and  N_16 
REMARK    7  A    between atoms: N_16  and  N_17 
REMARK       I    between atoms: N_17  and  C_18 
REMARK    8  A    between atoms: C_18  and  C_19 
ROOT
HETATM    1  C   UNL     1     -41.235  56.736 -53.700  1.00  0.00     0.128 C 
ENDROOT
BRANCH   1   2
HETATM    2  C   UNL     1     -41.495  55.724 -52.576  1.00  0.00    -0.032 A 
HETATM    3  C   UNL     1     -40.620  54.654 -52.308  1.00  0.00     0.046 A 
HETATM    4  C   UNL     1     -40.855  53.760 -51.257  1.00  0.00     0.076 A 
HETATM    5  C   UNL     1     -41.972  53.928 -50.442  1.00  0.00     0.037 A 
HETATM    6  C   UNL     1     -42.880  54.948 -50.719  1.00  0.00     0.003 A 
HETATM    7  C   UNL     1     -42.652  55.825 -51.782  1.00  0.00     0.009 A 
BRANCH   4   8
HETATM    8  O   UNL     1     -39.883  52.799 -51.074  1.00  0.00    -0.311 OA
BRANCH   8   9
HETATM    9  C   UNL     1     -39.794  51.760 -51.966  1.00  0.00     0.076 A 
HETATM   10  C   UNL     1     -39.567  50.442 -51.564  1.00  0.00     0.037 A 
HETATM   11  C   UNL     1     -39.531  49.424 -52.519  1.00  0.00     0.003 A 
HETATM   12  C   UNL     1     -39.750  49.720 -53.865  1.00  0.00     0.000 A 
HETATM   13  C   UNL     1     -40.011  51.033 -54.259  1.00  0.00     0.003 A 
HETATM   14  C   UNL     1     -40.040  52.052 -53.308  1.00  0.00     0.037 A 
ENDBRANCH   8   9
ENDBRANCH   4   8
ENDBRANCH   1   2
BRANCH   1  15
HETATM   15  N   UNL     1     -42.170  57.854 -53.628  1.00  0.00    -0.334 N 
HETATM   16  C   UNL     1     -41.746  59.143 -53.595  1.00  0.00     0.314 C 
HETATM   17  N   UNL     1     -42.765  60.032 -53.564  1.00  0.00    -0.352 N 
HETATM   18  O   UNL     1     -40.574  59.488 -53.614  1.00  0.00    -0.248 OA
HETATM   19  H   UNL     1     -43.583  59.780 -53.029  1.00  0.00     0.160 HD
HETATM   20  H   UNL     1     -42.460  60.990 -53.438  1.00  0.00     0.160 HD
HETATM   21  H   UNL     1     -43.117  57.700 -53.947  1.00  0.00     0.165 HD
ENDBRANCH   1  15
BRANCH   1  22
HETATM   22  C   UNL     1     -41.304  56.056 -55.076  1.00  0.00     0.134 C 
BRANCH  22  23
HETATM   23  C   UNL     1     -42.536  56.288 -55.924  1.00  0.00     0.238 C 
HETATM   24  N   UNL     1     -42.341  56.591 -57.254  1.00  0.00    -0.267 N 
HETATM   25  H   UNL     1     -41.544  57.163 -57.554  1.00  0.00     0.190 HD
HETATM   26  O   UNL     1     -43.663  56.087 -55.461  1.00  0.00    -0.272 OA
BRANCH  24  27
HETATM   27  N   UNL     1     -43.508  56.773 -58.017  1.00  0.00    -0.262 N 
HETATM   28  C   UNL     1     -43.594  56.263 -59.298  1.00  0.00     0.293 C 
HETATM   29  O   UNL     1     -42.637  55.752 -59.877  1.00  0.00    -0.264 OA
HETATM   30  H   UNL     1     -44.339  57.104 -57.527  1.00  0.00     0.190 HD
BRANCH  28  31
HETATM   31  C   UNL     1     -44.916  56.380 -59.879  1.00  0.00     0.144 A 
HETATM   32  O   UNL     1     -45.721  57.432 -59.521  1.00  0.00    -0.317 OA
HETATM   33  C   UNL     1     -46.893  57.288 -60.190  1.00  0.00     0.143 A 
HETATM   34  C   UNL     1     -46.862  56.164 -60.981  1.00  0.00     0.027 A 
HETATM   35  C   UNL     1     -45.589  55.578 -60.781  1.00  0.00     0.045 A 
ENDBRANCH  28  31
ENDBRANCH  24  27
ENDBRANCH  22  23
ENDBRANCH   1  22
TORSDOF 8
ENDMDL
MODEL 3
REMARK VINA RESULT:      -8.2      1.864      2.268
REMARK  8 active torsions:
REMARK  status: ('A' for Active; 'I' for Inactive)
REMARK    1  A    between atoms: C_4  and  O_5 
REMARK    2  A    between atoms: O_5  and  C_6 
REMARK    3  A    between atoms: C_8  and  C_9 
REMARK    4  A    between atoms: C_9  and  N_10 
REMARK    5  A    between atoms: C_9  and  C_14 
REMARK       I    between atoms: N_10  and  C_11 
REMARK       I    between atoms: C_11  and  N_12 
REMARK    6  A    between atoms: C_14  and  C_15 
REMARK       I    between atoms: C_15  and  N_16 
REMARK    7  A    between atoms: N_16  and  N_17 
REMARK       I    between atoms: N_17  and  C_18 
REMARK    8  A    between atoms: C_18  and  C_19 
ROOT
HETATM    1  C   UNL     1     -42.454  57.707 -52.777  1.00  0.00     0.128 C 
ENDROOT
BRANCH   1   2
HETATM    2  C   UNL     1     -42.399  56.304 -52.154  1.00  0.00    -0.032 A 
HETATM    3  C   UNL     1     -41.261  55.482 -52.250  1.00  0.00     0.046 A 
HETATM    4  C   UNL     1     -41.215  54.219 -51.649  1.00  0.00     0.076 A 
HETATM    5  C   UNL     1     -42.313  53.757 -50.925  1.00  0.00     0.037 A 
HETATM    6  C   UNL     1     -43.470  54.531 -50.860  1.00  0.00     0.003 A 
HETATM    7  C   UNL     1     -43.517  55.782 -51.480  1.00  0.00     0.009 A 
BRANCH   4   8
HETATM    8  O   UNL     1     -40.015  53.552 -51.773  1.00  0.00    -0.311 OA
BRANCH   8   9
HETATM    9  C   UNL     1     -39.991  52.329 -52.396  1.00  0.00     0.076 A 
HETATM   10  C   UNL     1     -40.218  52.179 -53.766  1.00  0.00     0.037 A 
HETATM   11  C   UNL     1     -40.136  50.911 -54.345  1.00  0.00     0.003 A 
HETATM   12  C   UNL     1     -39.800  49.805 -53.563  1.00  0.00     0.000 A 
HETATM   13  C   UNL     1     -39.541  49.963 -52.202  1.00  0.00     0.003 A 
HETATM   14  C   UNL     1     -39.629  51.228 -51.619  1.00  0.00     0.037 A 
ENDBRANCH   8   9
ENDBRANCH   4   8
ENDBRANCH   1   2
BRANCH   1  15
HETATM   15  N   UNL     1     -42.121  57.666 -54.197  1.00  0.00    -0.334 N 
HETATM   16  C   UNL     1     -43.059  57.424 -55.147  1.00  0.00     0.314 C 
HETATM   17  N   UNL     1     -42.558  57.461 -56.403  1.00  0.00    -0.352 N 
HETATM   18  O   UNL     1     -44.241  57.215 -54.918  1.00  0.00    -0.248 OA
HETATM   19  H   UNL     1     -41.627  57.097 -56.541  1.00  0.00     0.160 HD
HETATM   20  H   UNL     1     -43.227  57.184 -57.112  1.00  0.00     0.160 HD
HETATM   21  H   UNL     1     -41.286  58.148 -54.500  1.00  0.00     0.165 HD
ENDBRANCH   1  15
BRANCH   1  22
HETATM   22  C   UNL     1     -41.526  58.675 -52.028  1.00  0.00     0.134 C 
BRANCH  22  23
HETATM   23  C   UNL     1     -42.145  59.616 -51.017  1.00  0.00     0.238 C 
HETATM   24  N   UNL     1     -43.470  59.416 -50.695  1.00  0.00    -0.267 N 
HETATM   25  H   UNL     1     -44.144  59.101 -51.403  1.00  0.00     0.190 HD
HETATM   26  O   UNL     1     -41.449  60.441 -50.419  1.00  0.00    -0.272 OA
BRANCH  24  27
HETATM   27  N   UNL     1     -44.005  60.291 -49.733  1.00  0.00    -0.262 N 
HETATM   28  C   UNL     1     -45.286  60.103 -49.250  1.00  0.00     0.293 C 
HETATM   29  O   UNL     1     -46.058  59.268 -49.718  1.00  0.00    -0.264 OA
HETATM   30  H   UNL     1     -43.355  60.923 -49.265  1.00  0.00     0.190 HD
BRANCH  28  31
HETATM   31  C   UNL     1     -45.619  60.975 -48.143  1.00  0.00     0.144 A 
HETATM   32  O   UNL     1     -46.775  61.714 -48.187  1.00  0.00    -0.317 OA
HETATM   33  C   UNL     1     -46.829  62.447 -47.046  1.00  0.00     0.143 A 
HETATM   34  C   UNL     1     -45.731  62.193 -46.258  1.00  0.00     0.027 A 
HETATM   35  C   UNL     1     -44.951  61.245 -46.964  1.00  0.00     0.045 A 
ENDBRANCH  28  31
ENDBRANCH  24  27
ENDBRANCH  22  23
ENDBRANCH   1  22
TORSDOF 8
ENDMDL
MODEL 4
REMARK VINA RESULT:      -8.1      3.509      6.604
REMARK  8 active torsions:
REMARK  status: ('A' for Active; 'I' for Inactive)
REMARK    1  A    between atoms: C_4  and  O_5 
REMARK    2  A    between atoms: O_5  and  C_6 
REMARK    3  A    between atoms: C_8  and  C_9 
REMARK    4  A    between atoms: C_9  and  N_10 
REMARK    5  A    between atoms: C_9  and  C_14 
REMARK       I    between atoms: N_10  and  C_11 
REMARK       I    between atoms: C_11  and  N_12 
REMARK    6  A    between atoms: C_14  and  C_15 
REMARK       I    between atoms: C_15  and  N_16 
REMARK    7  A    between atoms: N_16  and  N_17 
REMARK       I    between atoms: N_17  and  C_18 
REMARK    8  A    between atoms: C_18  and  C_19 
ROOT
HETATM    1  C   UNL     1     -41.629  58.143 -51.381  1.00  0.00     0.128 C 
ENDROOT
BRANCH   1   2
HETATM    2  C   UNL     1     -41.934  56.651 -51.186  1.00  0.00    -0.032 A 
HETATM    3  C   UNL     1     -40.937  55.662 -51.276  1.00  0.00     0.046 A 
HETATM    4  C   UNL     1     -41.225  54.308 -51.062  1.00  0.00     0.076 A 
HETATM    5  C   UNL     1     -42.525  53.920 -50.742  1.00  0.00     0.037 A 
HETATM    6  C   UNL     1     -43.538  54.875 -50.698  1.00  0.00     0.003 A 
HETATM    7  C   UNL     1     -43.249  56.222 -50.933  1.00  0.00     0.009 A 
BRANCH   4   8
HETATM    8  O   UNL     1     -40.141  53.459 -51.121  1.00  0.00    -0.311 OA
BRANCH   8   9
HETATM    9  C   UNL     1     -40.101  52.492 -52.094  1.00  0.00     0.076 A 
HETATM   10  C   UNL     1     -40.406  52.758 -53.431  1.00  0.00     0.037 A 
HETATM   11  C   UNL     1     -40.303  51.738 -54.379  1.00  0.00     0.003 A 
HETATM   12  C   UNL     1     -39.870  50.468 -53.996  1.00  0.00     0.000 A 
HETATM   13  C   UNL     1     -39.533  50.215 -52.666  1.00  0.00     0.003 A 
HETATM   14  C   UNL     1     -39.642  51.230 -51.716  1.00  0.00     0.037 A 
ENDBRANCH   8   9
ENDBRANCH   4   8
ENDBRANCH   1   2
BRANCH   1  15
HETATM   15  N   UNL     1     -42.856  58.910 -51.573  1.00  0.00    -0.334 N 
HETATM   16  C   UNL     1     -43.023  60.144 -51.034  1.00  0.00     0.314 C 
HETATM   17  N   UNL     1     -44.213  60.702 -51.355  1.00  0.00    -0.352 N 
HETATM   18  O   UNL     1     -42.192  60.718 -50.347  1.00  0.00    -0.248 OA
HETATM   19  H   UNL     1     -45.012  60.088 -51.411  1.00  0.00     0.160 HD
HETATM   20  H   UNL     1     -44.389  61.578 -50.876  1.00  0.00     0.160 HD
HETATM   21  H   UNL     1     -43.432  58.686 -52.373  1.00  0.00     0.165 HD
ENDBRANCH   1  15
BRANCH   1  22
HETATM   22  C   UNL     1     -40.664  58.356 -52.557  1.00  0.00     0.134 C 
BRANCH  22  23
HETATM   23  C   UNL     1     -41.243  58.395 -53.955  1.00  0.00     0.238 C 
HETATM   24  N   UNL     1     -41.666  57.202 -54.498  1.00  0.00    -0.267 N 
HETATM   25  H   UNL     1     -41.167  56.326 -54.304  1.00  0.00     0.190 HD
HETATM   26  O   UNL     1     -41.439  59.474 -54.523  1.00  0.00    -0.272 OA
BRANCH  24  27
HETATM   27  N   UNL     1     -42.224  57.280 -55.787  1.00  0.00    -0.262 N 
HETATM   28  C   UNL     1     -42.563  56.130 -56.474  1.00  0.00     0.293 C 
HETATM   29  O   UNL     1     -42.281  55.004 -56.068  1.00  0.00    -0.264 OA
HETATM   30  H   UNL     1     -42.552  58.193 -56.098  1.00  0.00     0.190 HD
BRANCH  28  31
HETATM   31  C   UNL     1     -43.285  56.384 -57.704  1.00  0.00     0.144 A 
HETATM   32  O   UNL     1     -44.270  57.340 -57.725  1.00  0.00    -0.317 OA
HETATM   33  C   UNL     1     -44.788  57.356 -58.979  1.00  0.00     0.143 A 
HETATM   34  C   UNL     1     -44.152  56.434 -59.776  1.00  0.00     0.027 A 
HETATM   35  C   UNL     1     -43.184  55.806 -58.955  1.00  0.00     0.045 A 
ENDBRANCH  28  31
ENDBRANCH  24  27
ENDBRANCH  22  23
ENDBRANCH   1  22
TORSDOF 8
ENDMDL
MODEL 5
REMARK VINA RESULT:      -7.8     17.534     19.686
REMARK  8 active torsions:
REMARK  status: ('A' for Active; 'I' for Inactive)
REMARK    1  A    between atoms: C_4  and  O_5 
REMARK    2  A    between atoms: O_5  and  C_6 
REMARK    3  A    between atoms: C_8  and  C_9 
REMARK    4  A    between atoms: C_9  and  N_10 
REMARK    5  A    between atoms: C_9  and  C_14 
REMARK       I    between atoms: N_10  and  C_11 
REMARK       I    between atoms: C_11  and  N_12 
REMARK    6  A    between atoms: C_14  and  C_15 
REMARK       I    between atoms: C_15  and  N_16 
REMARK    7  A    between atoms: N_16  and  N_17 
REMARK       I    between atoms: N_17  and  C_18 
REMARK    8  A    between atoms: C_18  and  C_19 
ROOT
HETATM    1  C   UNL     1     -36.688  41.295 -53.482  1.00  0.00     0.128 C 
ENDROOT
BRANCH   1   2
HETATM    2  C   UNL     1     -36.420  41.506 -54.979  1.00  0.00    -0.032 A 
HETATM    3  C   UNL     1     -37.371  41.186 -55.967  1.00  0.00     0.046 A 
HETATM    4  C   UNL     1     -37.123  41.415 -57.326  1.00  0.00     0.076 A 
HETATM    5  C   UNL     1     -35.914  41.984 -57.722  1.00  0.00     0.037 A 
HETATM    6  C   UNL     1     -34.937  42.261 -56.768  1.00  0.00     0.003 A 
HETATM    7  C   UNL     1     -35.182  42.010 -55.415  1.00  0.00     0.009 A 
BRANCH   4   8
HETATM    8  O   UNL     1     -38.167  41.111 -58.173  1.00  0.00    -0.311 OA
BRANCH   8   9
HETATM    9  C   UNL     1     -38.008  40.110 -59.098  1.00  0.00     0.076 A 
HETATM   10  C   UNL     1     -37.437  40.331 -60.354  1.00  0.00     0.037 A 
HETATM   11  C   UNL     1     -37.263  39.260 -61.232  1.00  0.00     0.003 A 
HETATM   12  C   UNL     1     -37.632  37.971 -60.845  1.00  0.00     0.000 A 
HETATM   13  C   UNL     1     -38.171  37.748 -59.577  1.00  0.00     0.003 A 
HETATM   14  C   UNL     1     -38.352  38.818 -58.701  1.00  0.00     0.037 A 
ENDBRANCH   8   9
ENDBRANCH   4   8
ENDBRANCH   1   2
BRANCH   1  15
HETATM   15  N   UNL     1     -37.997  41.817 -53.104  1.00  0.00    -0.334 N 
HETATM   16  C   UNL     1     -38.934  41.040 -52.504  1.00  0.00     0.314 C 
HETATM   17  N   UNL     1     -40.065  41.718 -52.203  1.00  0.00    -0.352 N 
HETATM   18  O   UNL     1     -38.785  39.858 -52.236  1.00  0.00    -0.248 OA
HETATM   19  H   UNL     1     -40.370  42.423 -52.857  1.00  0.00     0.160 HD
HETATM   20  H   UNL     1     -40.807  41.125 -51.848  1.00  0.00     0.160 HD
HETATM   21  H   UNL     1     -38.086  42.816 -52.969  1.00  0.00     0.165 HD
ENDBRANCH   1  15
BRANCH   1  22
HETATM   22  C   UNL     1     -35.579  41.934 -52.632  1.00  0.00     0.134 C 
BRANCH  22  23
HETATM   23  C   UNL     1     -35.116  41.196 -51.396  1.00  0.00     0.238 C 
HETATM   24  N   UNL     1     -33.766  41.212 -51.117  1.00  0.00    -0.267 N 
HETATM   25  H   UNL     1     -33.071  41.190 -51.872  1.00  0.00     0.190 HD
HETATM   26  O   UNL     1     -35.935  40.712 -50.610  1.00  0.00    -0.272 OA
BRANCH  24  27
HETATM   27  N   UNL     1     -33.374  40.540 -49.946  1.00  0.00    -0.262 N 
HETATM   28  C   UNL     1     -32.082  40.071 -49.806  1.00  0.00     0.293 C 
HETATM   29  O   UNL     1     -31.262  40.096 -50.722  1.00  0.00    -0.264 OA
HETATM   30  H   UNL     1     -34.003  40.595 -49.145  1.00  0.00     0.190 HD
BRANCH  28  31
HETATM   31  C   UNL     1     -31.793  39.564 -48.481  1.00  0.00     0.144 A 
HETATM   32  O   UNL     1     -30.874  40.213 -47.694  1.00  0.00    -0.317 OA
HETATM   33  C   UNL     1     -30.784  39.523 -46.528  1.00  0.00     0.143 A 
HETATM   34  C   UNL     1     -31.632  38.442 -46.541  1.00  0.00     0.027 A 
HETATM   35  C   UNL     1     -32.282  38.466 -47.799  1.00  0.00     0.045 A 
ENDBRANCH  28  31
ENDBRANCH  24  27
ENDBRANCH  22  23
ENDBRANCH   1  22
TORSDOF 8
ENDMDL
MODEL 6
REMARK VINA RESULT:      -7.7      2.129      2.748
REMARK  8 active torsions:
REMARK  status: ('A' for Active; 'I' for Inactive)
REMARK    1  A    between atoms: C_4  and  O_5 
REMARK    2  A    between atoms: O_5  and  C_6 
REMARK    3  A    between atoms: C_8  and  C_9 
REMARK    4  A    between atoms: C_9  and  N_10 
REMARK    5  A    between atoms: C_9  and  C_14 
REMARK       I    between atoms: N_10  and  C_11 
REMARK       I    between atoms: C_11  and  N_12 
REMARK    6  A    between atoms: C_14  and  C_15 
REMARK       I    between atoms: C_15  and  N_16 
REMARK    7  A    between atoms: N_16  and  N_17 
REMARK       I    between atoms: N_17  and  C_18 
REMARK    8  A    between atoms: C_18  and  C_19 
ROOT
HETATM    1  C   UNL     1     -41.888  59.113 -53.843  1.00  0.00     0.128 C 
ENDROOT
BRANCH   1   2
HETATM    2  C   UNL     1     -42.223  57.812 -54.587  1.00  0.00    -0.032 A 
HETATM    3  C   UNL     1     -42.415  56.590 -53.917  1.00  0.00     0.046 A 
HETATM    4  C   UNL     1     -42.753  55.419 -54.607  1.00  0.00     0.076 A 
HETATM    5  C   UNL     1     -42.917  55.455 -55.990  1.00  0.00     0.037 A 
HETATM    6  C   UNL     1     -42.680  56.642 -56.682  1.00  0.00     0.003 A 
HETATM    7  C   UNL     1     -42.323  57.802 -55.990  1.00  0.00     0.009 A 
BRANCH   4   8
HETATM    8  O   UNL     1     -42.972  54.312 -53.816  1.00  0.00    -0.311 OA
BRANCH   8   9
HETATM    9  C   UNL     1     -41.898  53.563 -53.404  1.00  0.00     0.076 A 
HETATM   10  C   UNL     1     -41.093  52.849 -54.295  1.00  0.00     0.037 A 
HETATM   11  C   UNL     1     -39.990  52.141 -53.815  1.00  0.00     0.003 A 
HETATM   12  C   UNL     1     -39.676  52.172 -52.455  1.00  0.00     0.000 A 
HETATM   13  C   UNL     1     -40.462  52.914 -51.573  1.00  0.00     0.003 A 
HETATM   14  C   UNL     1     -41.569  53.616 -52.049  1.00  0.00     0.037 A 
ENDBRANCH   8   9
ENDBRANCH   4   8
ENDBRANCH   1   2
BRANCH   1  15
HETATM   15  N   UNL     1     -41.419  58.838 -52.489  1.00  0.00    -0.334 N 
HETATM   16  C   UNL     1     -40.107  58.923 -52.152  1.00  0.00     0.314 C 
HETATM   17  N   UNL     1     -39.882  58.664 -50.843  1.00  0.00    -0.352 N 
HETATM   18  O   UNL     1     -39.211  59.220 -52.926  1.00  0.00    -0.248 OA
HETATM   19  H   UNL     1     -40.447  57.949 -50.409  1.00  0.00     0.160 HD
HETATM   20  H   UNL     1     -38.898  58.626 -50.604  1.00  0.00     0.160 HD
HETATM   21  H   UNL     1     -42.085  58.924 -51.732  1.00  0.00     0.165 HD
ENDBRANCH   1  15
BRANCH   1  22
HETATM   22  C   UNL     1     -43.099  60.058 -53.820  1.00  0.00     0.134 C 
BRANCH  22  23
HETATM   23  C   UNL     1     -43.462  60.716 -52.507  1.00  0.00     0.238 C 
HETATM   24  N   UNL     1     -44.646  60.334 -51.914  1.00  0.00    -0.267 N 
HETATM   25  H   UNL     1     -45.471  60.105 -52.480  1.00  0.00     0.190 HD
HETATM   26  O   UNL     1     -42.664  61.466 -51.938  1.00  0.00    -0.272 OA
BRANCH  24  27
HETATM   27  N   UNL     1     -44.939  60.945 -50.681  1.00  0.00    -0.262 N 
HETATM   28  C   UNL     1     -45.510  60.216 -49.656  1.00  0.00     0.293 C 
HETATM   29  O   UNL     1     -45.907  59.061 -49.801  1.00  0.00    -0.264 OA
HETATM   30  H   UNL     1     -44.533  61.864 -50.509  1.00  0.00     0.190 HD
BRANCH  28  31
HETATM   31  C   UNL     1     -45.583  60.940 -48.404  1.00  0.00     0.144 A 
HETATM   32  O   UNL     1     -46.423  60.497 -47.414  1.00  0.00    -0.317 OA
HETATM   33  C   UNL     1     -46.309  61.360 -46.372  1.00  0.00     0.143 A 
HETATM   34  C   UNL     1     -45.405  62.353 -46.666  1.00  0.00     0.027 A 
HETATM   35  C   UNL     1     -44.937  62.084 -47.975  1.00  0.00     0.045 A 
ENDBRANCH  28  31
ENDBRANCH  24  27
ENDBRANCH  22  23
ENDBRANCH   1  22
TORSDOF 8
ENDMDL
MODEL 7
REMARK VINA RESULT:      -7.7     17.397     19.724
REMARK  8 active torsions:
REMARK  status: ('A' for Active; 'I' for Inactive)
REMARK    1  A    between atoms: C_4  and  O_5 
REMARK    2  A    between atoms: O_5  and  C_6 
REMARK    3  A    between atoms: C_8  and  C_9 
REMARK    4  A    between atoms: C_9  and  N_10 
REMARK    5  A    between atoms: C_9  and  C_14 
REMARK       I    between atoms: N_10  and  C_11 
REMARK       I    between atoms: C_11  and  N_12 
REMARK    6  A    between atoms: C_14  and  C_15 
REMARK       I    between atoms: C_15  and  N_16 
REMARK    7  A    between atoms: N_16  and  N_17 
REMARK       I    between atoms: N_17  and  C_18 
REMARK    8  A    between atoms: C_18  and  C_19 
ROOT
HETATM    1  C   UNL     1     -37.459  41.165 -55.919  1.00  0.00     0.128 C 
ENDROOT
BRANCH   1   2
HETATM    2  C   UNL     1     -37.423  40.994 -57.444  1.00  0.00    -0.032 A 
HETATM    3  C   UNL     1     -37.590  39.743 -58.066  1.00  0.00     0.046 A 
HETATM    4  C   UNL     1     -37.588  39.609 -59.460  1.00  0.00     0.076 A 
HETATM    5  C   UNL     1     -37.428  40.737 -60.262  1.00  0.00     0.037 A 
HETATM    6  C   UNL     1     -37.209  41.979 -59.670  1.00  0.00     0.003 A 
HETATM    7  C   UNL     1     -37.191  42.103 -58.278  1.00  0.00     0.009 A 
BRANCH   4   8
HETATM    8  O   UNL     1     -37.824  38.334 -59.928  1.00  0.00    -0.311 OA
BRANCH   8   9
HETATM    9  C   UNL     1     -38.910  38.110 -60.737  1.00  0.00     0.076 A 
HETATM   10  C   UNL     1     -40.222  38.132 -60.257  1.00  0.00     0.037 A 
HETATM   11  C   UNL     1     -41.285  37.940 -61.141  1.00  0.00     0.003 A 
HETATM   12  C   UNL     1     -41.038  37.755 -62.502  1.00  0.00     0.000 A 
HETATM   13  C   UNL     1     -39.728  37.767 -62.984  1.00  0.00     0.003 A 
HETATM   14  C   UNL     1     -38.664  37.952 -62.101  1.00  0.00     0.037 A 
ENDBRANCH   8   9
ENDBRANCH   4   8
ENDBRANCH   1   2
BRANCH   1  15
HETATM   15  N   UNL     1     -38.795  41.533 -55.462  1.00  0.00    -0.334 N 
HETATM   16  C   UNL     1     -39.192  41.345 -54.178  1.00  0.00     0.314 C 
HETATM   17  N   UNL     1     -40.451  41.781 -53.947  1.00  0.00    -0.352 N 
HETATM   18  O   UNL     1     -38.495  40.857 -53.302  1.00  0.00    -0.248 OA
HETATM   19  H   UNL     1     -41.128  41.652 -54.684  1.00  0.00     0.160 HD
HETATM   20  H   UNL     1     -40.792  41.555 -53.020  1.00  0.00     0.160 HD
HETATM   21  H   UNL     1     -39.300  42.230 -55.992  1.00  0.00     0.165 HD
ENDBRANCH   1  15
BRANCH   1  22
HETATM   22  C   UNL     1     -36.422  42.201 -55.459  1.00  0.00     0.134 C 
BRANCH  22  23
HETATM   23  C   UNL     1     -35.370  41.761 -54.465  1.00  0.00     0.238 C 
HETATM   24  N   UNL     1     -35.612  42.016 -53.132  1.00  0.00    -0.267 N 
HETATM   25  H   UNL     1     -36.098  42.871 -52.838  1.00  0.00     0.190 HD
HETATM   26  O   UNL     1     -34.400  41.091 -54.832  1.00  0.00    -0.272 OA
BRANCH  24  27
HETATM   27  N   UNL     1     -34.626  41.569 -52.234  1.00  0.00    -0.262 N 
HETATM   28  C   UNL     1     -34.963  40.746 -51.177  1.00  0.00     0.293 C 
HETATM   29  O   UNL     1     -36.127  40.474 -50.890  1.00  0.00    -0.264 OA
HETATM   30  H   UNL     1     -33.653  41.701 -52.507  1.00  0.00     0.190 HD
BRANCH  28  31
HETATM   31  C   UNL     1     -33.816  40.234 -50.456  1.00  0.00     0.144 A 
HETATM   32  O   UNL     1     -34.004  39.334 -49.437  1.00  0.00    -0.317 OA
HETATM   33  C   UNL     1     -32.780  39.039 -48.929  1.00  0.00     0.143 A 
HETATM   34  C   UNL     1     -31.800  39.728 -49.604  1.00  0.00     0.027 A 
HETATM   35  C   UNL     1     -32.466  40.498 -50.587  1.00  0.00     0.045 A 
ENDBRANCH  28  31
ENDBRANCH  24  27
ENDBRANCH  22  23
ENDBRANCH   1  22
TORSDOF 8
ENDMDL
MODEL 8
REMARK VINA RESULT:      -7.6      2.840      3.914
REMARK  8 active torsions:
REMARK  status: ('A' for Active; 'I' for Inactive)
REMARK    1  A    between atoms: C_4  and  O_5 
REMARK    2  A    between atoms: O_5  and  C_6 
REMARK    3  A    between atoms: C_8  and  C_9 
REMARK    4  A    between atoms: C_9  and  N_10 
REMARK    5  A    between atoms: C_9  and  C_14 
REMARK       I    between atoms: N_10  and  C_11 
REMARK       I    between atoms: C_11  and  N_12 
REMARK    6  A    between atoms: C_14  and  C_15 
REMARK       I    between atoms: C_15  and  N_16 
REMARK    7  A    between atoms: N_16  and  N_17 
REMARK       I    between atoms: N_17  and  C_18 
REMARK    8  A    between atoms: C_18  and  C_19 
ROOT
HETATM    1  C   UNL     1     -42.316  56.384 -53.668  1.00  0.00     0.128 C 
ENDROOT
BRANCH   1   2
HETATM    2  C   UNL     1     -42.078  55.443 -52.478  1.00  0.00    -0.032 A 
HETATM    3  C   UNL     1     -40.982  54.561 -52.423  1.00  0.00     0.046 A 
HETATM    4  C   UNL     1     -40.761  53.734 -51.315  1.00  0.00     0.076 A 
HETATM    5  C   UNL     1     -41.632  53.784 -50.230  1.00  0.00     0.037 A 
HETATM    6  C   UNL     1     -42.753  54.611 -50.282  1.00  0.00     0.003 A 
HETATM    7  C   UNL     1     -42.980  55.419 -51.400  1.00  0.00     0.009 A 
BRANCH   4   8
HETATM    8  O   UNL     1     -39.616  52.968 -51.373  1.00  0.00    -0.311 OA
BRANCH   8   9
HETATM    9  C   UNL     1     -39.619  51.817 -52.121  1.00  0.00     0.076 A 
HETATM   10  C   UNL     1     -39.485  50.550 -51.549  1.00  0.00     0.037 A 
HETATM   11  C   UNL     1     -39.540  49.416 -52.362  1.00  0.00     0.003 A 
HETATM   12  C   UNL     1     -39.757  49.549 -53.734  1.00  0.00     0.000 A 
HETATM   13  C   UNL     1     -39.924  50.815 -54.297  1.00  0.00     0.003 A 
HETATM   14  C   UNL     1     -39.862  51.949 -53.488  1.00  0.00     0.037 A 
ENDBRANCH   8   9
ENDBRANCH   4   8
ENDBRANCH   1   2
BRANCH   1  15
HETATM   15  N   UNL     1     -42.568  55.630 -54.892  1.00  0.00    -0.334 N 
HETATM   16  C   UNL     1     -43.246  56.165 -55.938  1.00  0.00     0.314 C 
HETATM   17  N   UNL     1     -43.343  55.320 -56.990  1.00  0.00    -0.352 N 
HETATM   18  O   UNL     1     -43.708  57.296 -55.959  1.00  0.00    -0.248 OA
HETATM   19  H   UNL     1     -43.468  54.339 -56.786  1.00  0.00     0.160 HD
HETATM   20  H   UNL     1     -43.932  55.671 -57.736  1.00  0.00     0.160 HD
HETATM   21  H   UNL     1     -41.956  54.852 -55.102  1.00  0.00     0.165 HD
ENDBRANCH   1  15
BRANCH   1  22
HETATM   22  C   UNL     1     -41.132  57.344 -53.853  1.00  0.00     0.134 C 
BRANCH  22  23
HETATM   23  C   UNL     1     -41.346  58.808 -53.534  1.00  0.00     0.238 C 
HETATM   24  N   UNL     1     -42.647  59.243 -53.404  1.00  0.00    -0.267 N 
HETATM   25  H   UNL     1     -43.395  58.855 -53.990  1.00  0.00     0.190 HD
HETATM   26  O   UNL     1     -40.387  59.541 -53.278  1.00  0.00    -0.272 OA
BRANCH  24  27
HETATM   27  N   UNL     1     -42.808  60.602 -53.081  1.00  0.00    -0.262 N 
HETATM   28  C   UNL     1     -43.253  60.976 -51.827  1.00  0.00     0.293 C 
HETATM   29  O   UNL     1     -43.649  60.165 -50.992  1.00  0.00    -0.264 OA
HETATM   30  H   UNL     1     -42.396  61.285 -53.717  1.00  0.00     0.190 HD
BRANCH  28  31
HETATM   31  C   UNL     1     -43.194  62.405 -51.596  1.00  0.00     0.144 A 
HETATM   32  O   UNL     1     -43.100  63.260 -52.666  1.00  0.00    -0.317 OA
HETATM   33  C   UNL     1     -43.043  64.522 -52.169  1.00  0.00     0.143 A 
HETATM   34  C   UNL     1     -43.104  64.502 -50.796  1.00  0.00     0.027 A 
HETATM   35  C   UNL     1     -43.201  63.139 -50.425  1.00  0.00     0.045 A 
ENDBRANCH  28  31
ENDBRANCH  24  27
ENDBRANCH  22  23
ENDBRANCH   1  22
TORSDOF 8
ENDMDL
MODEL 9
REMARK VINA RESULT:      -7.5      4.699      6.552
REMARK  8 active torsions:
REMARK  status: ('A' for Active; 'I' for Inactive)
REMARK    1  A    between atoms: C_4  and  O_5 
REMARK    2  A    between atoms: O_5  and  C_6 
REMARK    3  A    between atoms: C_8  and  C_9 
REMARK    4  A    between atoms: C_9  and  N_10 
REMARK    5  A    between atoms: C_9  and  C_14 
REMARK       I    between atoms: N_10  and  C_11 
REMARK       I    between atoms: C_11  and  N_12 
REMARK    6  A    between atoms: C_14  and  C_15 
REMARK       I    between atoms: C_15  and  N_16 
REMARK    7  A    between atoms: N_16  and  N_17 
REMARK       I    between atoms: N_17  and  C_18 
REMARK    8  A    between atoms: C_18  and  C_19 
ROOT
HETATM    1  C   UNL     1     -43.054  55.391 -53.035  1.00  0.00     0.128 C 
ENDROOT
BRANCH   1   2
HETATM    2  C   UNL     1     -42.040  55.115 -51.916  1.00  0.00    -0.032 A 
HETATM    3  C   UNL     1     -41.382  53.878 -51.784  1.00  0.00     0.046 A 
HETATM    4  C   UNL     1     -40.435  53.654 -50.778  1.00  0.00     0.076 A 
HETATM    5  C   UNL     1     -40.119  54.676 -49.886  1.00  0.00     0.037 A 
HETATM    6  C   UNL     1     -40.794  55.892 -49.964  1.00  0.00     0.003 A 
HETATM    7  C   UNL     1     -41.754  56.104 -50.957  1.00  0.00     0.009 A 
BRANCH   4   8
HETATM    8  O   UNL     1     -39.827  52.417 -50.807  1.00  0.00    -0.311 OA
BRANCH   8   9
HETATM    9  C   UNL     1     -39.862  51.683 -51.967  1.00  0.00     0.076 A 
HETATM   10  C   UNL     1     -40.000  52.272 -53.226  1.00  0.00     0.037 A 
HETATM   11  C   UNL     1     -39.983  51.472 -54.369  1.00  0.00     0.003 A 
HETATM   12  C   UNL     1     -39.800  50.093 -54.255  1.00  0.00     0.000 A 
HETATM   13  C   UNL     1     -39.628  49.511 -52.999  1.00  0.00     0.003 A 
HETATM   14  C   UNL     1     -39.652  50.308 -51.854  1.00  0.00     0.037 A 
ENDBRANCH   8   9
ENDBRANCH   4   8
ENDBRANCH   1   2
BRANCH   1  15
HETATM   15  N   UNL     1     -42.379  55.702 -54.292  1.00  0.00    -0.334 N 
HETATM   16  C   UNL     1     -42.455  54.881 -55.370  1.00  0.00     0.314 C 
HETATM   17  N   UNL     1     -41.791  55.361 -56.445  1.00  0.00    -0.352 N 
HETATM   18  O   UNL     1     -43.072  53.826 -55.395  1.00  0.00    -0.248 OA
HETATM   19  H   UNL     1     -40.926  55.853 -56.274  1.00  0.00     0.160 HD
HETATM   20  H   UNL     1     -41.757  54.711 -57.222  1.00  0.00     0.160 HD
HETATM   21  H   UNL     1     -42.148  56.669 -54.477  1.00  0.00     0.165 HD
ENDBRANCH   1  15
BRANCH   1  22
HETATM   22  C   UNL     1     -44.014  56.523 -52.638  1.00  0.00     0.134 C 
BRANCH  22  23
HETATM   23  C   UNL     1     -44.537  57.428 -53.732  1.00  0.00     0.238 C 
HETATM   24  N   UNL     1     -45.373  56.867 -54.673  1.00  0.00    -0.267 N 
HETATM   25  H   UNL     1     -45.233  55.902 -54.995  1.00  0.00     0.190 HD
HETATM   26  O   UNL     1     -44.320  58.643 -53.698  1.00  0.00    -0.272 OA
BRANCH  24  27
HETATM   27  N   UNL     1     -45.862  57.743 -55.657  1.00  0.00    -0.262 N 
HETATM   28  C   UNL     1     -45.199  57.885 -56.861  1.00  0.00     0.293 C 
HETATM   29  O   UNL     1     -44.104  57.371 -57.083  1.00  0.00    -0.264 OA
HETATM   30  H   UNL     1     -46.810  58.100 -55.535  1.00  0.00     0.190 HD
BRANCH  28  31
HETATM   31  C   UNL     1     -45.923  58.683 -57.829  1.00  0.00     0.144 A 
HETATM   32  O   UNL     1     -47.286  58.808 -57.719  1.00  0.00    -0.317 OA
HETATM   33  C   UNL     1     -47.704  59.582 -58.752  1.00  0.00     0.143 A 
HETATM   34  C   UNL     1     -46.637  59.969 -59.528  1.00  0.00     0.027 A 
HETATM   35  C   UNL     1     -45.489  59.389 -58.935  1.00  0.00     0.045 A 
ENDBRANCH  28  31
ENDBRANCH  24  27
ENDBRANCH  22  23
ENDBRANCH   1  22
TORSDOF 8
ENDMDL
MODEL 10
REMARK VINA RESULT:      -7.4      4.638      7.727
REMARK  8 active torsions:
REMARK  status: ('A' for Active; 'I' for Inactive)
REMARK    1  A    between atoms: C_4  and  O_5 
REMARK    2  A    between atoms: O_5  and  C_6 
REMARK    3  A    between atoms: C_8  and  C_9 
REMARK    4  A    between atoms: C_9  and  N_10 
REMARK    5  A    between atoms: C_9  and  C_14 
REMARK       I    between atoms: N_10  and  C_11 
REMARK       I    between atoms: C_11  and  N_12 
REMARK    6  A    between atoms: C_14  and  C_15 
REMARK       I    between atoms: C_15  and  N_16 
REMARK    7  A    between atoms: N_16  and  N_17 
REMARK       I    between atoms: N_17  and  C_18 
REMARK    8  A    between atoms: C_18  and  C_19 
ROOT
HETATM    1  C   UNL     1     -42.604  59.262 -53.202  1.00  0.00     0.128 C 
ENDROOT
BRANCH   1   2
HETATM    2  C   UNL     1     -42.121  58.193 -52.211  1.00  0.00    -0.032 A 
HETATM    3  C   UNL     1     -42.526  56.848 -52.298  1.00  0.00     0.046 A 
HETATM    4  C   UNL     1     -42.049  55.879 -51.407  1.00  0.00     0.076 A 
HETATM    5  C   UNL     1     -41.143  56.240 -50.412  1.00  0.00     0.037 A 
HETATM    6  C   UNL     1     -40.768  57.575 -50.273  1.00  0.00     0.003 A 
HETATM    7  C   UNL     1     -41.263  58.542 -51.153  1.00  0.00     0.009 A 
BRANCH   4   8
HETATM    8  O   UNL     1     -42.482  54.593 -51.650  1.00  0.00    -0.311 OA
BRANCH   8   9
HETATM    9  C   UNL     1     -41.653  53.722 -52.311  1.00  0.00     0.076 A 
HETATM   10  C   UNL     1     -41.634  53.612 -53.704  1.00  0.00     0.037 A 
HETATM   11  C   UNL     1     -40.735  52.738 -54.316  1.00  0.00     0.003 A 
HETATM   12  C   UNL     1     -39.840  51.999 -53.541  1.00  0.00     0.000 A 
HETATM   13  C   UNL     1     -39.837  52.136 -52.153  1.00  0.00     0.003 A 
HETATM   14  C   UNL     1     -40.740  53.004 -51.538  1.00  0.00     0.037 A 
ENDBRANCH   8   9
ENDBRANCH   4   8
ENDBRANCH   1   2
BRANCH   1  15
HETATM   15  N   UNL     1     -44.061  59.285 -53.281  1.00  0.00    -0.334 N 
HETATM   16  C   UNL     1     -44.777  60.408 -53.018  1.00  0.00     0.314 C 
HETATM   17  N   UNL     1     -46.108  60.233 -53.179  1.00  0.00    -0.352 N 
HETATM   18  O   UNL     1     -44.290  61.479 -52.689  1.00  0.00    -0.248 OA
HETATM   19  H   UNL     1     -46.494  59.341 -52.909  1.00  0.00     0.160 HD
HETATM   20  H   UNL     1     -46.657  61.034 -52.889  1.00  0.00     0.160 HD
HETATM   21  H   UNL     1     -44.514  58.587 -53.855  1.00  0.00     0.165 HD
ENDBRANCH   1  15
BRANCH   1  22
HETATM   22  C   UNL     1     -41.986  59.041 -54.591  1.00  0.00     0.134 C 
BRANCH  22  23
HETATM   23  C   UNL     1     -42.884  58.528 -55.695  1.00  0.00     0.238 C 
HETATM   24  N   UNL     1     -42.775  57.197 -56.033  1.00  0.00    -0.267 N 
HETATM   25  H   UNL     1     -41.867  56.719 -56.011  1.00  0.00     0.190 HD
HETATM   26  O   UNL     1     -43.762  59.250 -56.177  1.00  0.00    -0.272 OA
BRANCH  24  27
HETATM   27  N   UNL     1     -43.644  56.748 -57.044  1.00  0.00    -0.262 N 
HETATM   28  C   UNL     1     -43.260  56.797 -58.370  1.00  0.00     0.293 C 
HETATM   29  O   UNL     1     -42.223  57.343 -58.743  1.00  0.00    -0.264 OA
HETATM   30  H   UNL     1     -44.458  56.208 -56.753  1.00  0.00     0.190 HD
BRANCH  28  31
HETATM   31  C   UNL     1     -44.188  56.138 -59.265  1.00  0.00     0.144 A 
HETATM   32  O   UNL     1     -45.439  56.670 -59.453  1.00  0.00    -0.317 OA
HETATM   33  C   UNL     1     -46.099  55.852 -60.313  1.00  0.00     0.143 A 
HETATM   34  C   UNL     1     -45.297  54.802 -60.691  1.00  0.00     0.027 A 
HETATM   35  C   UNL     1     -44.066  54.984 -60.016  1.00  0.00     0.045 A 
ENDBRANCH  28  31
ENDBRANCH  24  27
ENDBRANCH  22  23
ENDBRANCH   1  22
TORSDOF 8
ENDMDL
