MODEL 1
REMARK VINA RESULT:      -9.3      0.000      0.000
REMARK  7 active torsions:
REMARK  status: ('A' for Active; 'I' for Inactive)
REMARK    1  A    between atoms: C_3  and  C_4 
REMARK       I    between atoms: C_4  and  N_5 
REMARK    2  A    between atoms: N_5  and  C_6 
REMARK    3  A    between atoms: C_6  and  C_7 
REMARK    4  A    between atoms: C_7  and  O_8 
REMARK    5  A    between atoms: C_7  and  C_9 
REMARK    6  A    between atoms: C_18  and  N_19 
REMARK       I    between atoms: N_19  and  C_20 
REMARK    7  A    between atoms: C_20  and  C_21 
ROOT
HETATM    1  C   UNL     1     -41.385  58.794 -54.036  1.00  0.00     0.050 C 
HETATM    2  C   UNL     1     -41.628  57.345 -54.313  1.00  0.00    -0.037 A 
HETATM    3  C   UNL     1     -42.210  56.833 -55.468  1.00  0.00     0.080 A 
HETATM    4  S   UNL     1     -42.327  55.123 -55.398  1.00  0.00    -0.066 SA
HETATM    5  C   UNL     1     -41.565  55.041 -53.892  1.00  0.00     0.078 A 
HETATM    6  C   UNL     1     -41.253  56.292 -53.412  1.00  0.00     0.045 A 
ENDROOT
BRANCH   3   7
HETATM    7  C   UNL     1     -42.663  57.573 -56.643  1.00  0.00     0.259 C 
HETATM    8  N   UNL     1     -41.896  57.448 -57.784  1.00  0.00    -0.354 N 
HETATM    9  H   UNL     1     -41.046  56.902 -57.697  1.00  0.00     0.162 HD
HETATM   10  O   UNL     1     -43.658  58.296 -56.645  1.00  0.00    -0.267 OA
BRANCH   8  11
HETATM   11  C   UNL     1     -42.017  58.356 -58.919  1.00  0.00     0.159 C 
BRANCH  11  12
HETATM   12  C   UNL     1     -42.322  57.671 -60.273  1.00  0.00     0.169 C 
BRANCH  12  13
HETATM   13  O   UNL     1     -41.508  56.519 -60.492  1.00  0.00    -0.389 OA
HETATM   14  H   UNL     1     -40.573  56.809 -60.437  1.00  0.00     0.210 HD
ENDBRANCH  12  13
BRANCH  12  15
HETATM   15  C   UNL     1     -43.771  57.217 -60.313  1.00  0.00    -0.028 A 
HETATM   16  C   UNL     1     -44.811  58.144 -60.145  1.00  0.00     0.013 A 
HETATM   17  C   UNL     1     -46.143  57.721 -60.149  1.00  0.00     0.043 A 
HETATM   18  C   UNL     1     -46.436  56.372 -60.317  1.00  0.00     0.116 A 
HETATM   19  F   UNL     1     -47.714  55.969 -60.317  1.00  0.00    -0.206 F 
HETATM   20  C   UNL     1     -45.424  55.436 -60.483  1.00  0.00     0.043 A 
HETATM   21  C   UNL     1     -44.094  55.857 -60.480  1.00  0.00     0.013 A 
ENDBRANCH  12  15
ENDBRANCH  11  12
ENDBRANCH   8  11
ENDBRANCH   3   7
BRANCH   5  22
HETATM   22  N   UNL     1     -41.264  53.846 -53.266  1.00  0.00    -0.317 N 
HETATM   23  C   UNL     1     -40.369  52.884 -53.690  1.00  0.00     0.258 C 
HETATM   24  O   UNL     1     -39.750  52.887 -54.750  1.00  0.00    -0.267 OA
HETATM   25  H   UNL     1     -41.778  53.668 -52.412  1.00  0.00     0.169 HD
BRANCH  23  26
HETATM   26  C   UNL     1     -40.101  51.756 -52.735  1.00  0.00     0.054 A 
HETATM   27  C   UNL     1     -39.792  50.432 -53.083  1.00  0.00     0.049 A 
HETATM   28 CL   UNL     1     -39.584  49.882 -54.711  1.00  0.00    -0.083 Cl
HETATM   29  C   UNL     1     -39.606  49.465 -52.083  1.00  0.00     0.025 A 
HETATM   30  C   UNL     1     -39.711  49.806 -50.735  1.00  0.00     0.002 A 
HETATM   31  C   UNL     1     -39.997  51.117 -50.376  1.00  0.00     0.001 A 
HETATM   32  C   UNL     1     -40.188  52.083 -51.367  1.00  0.00     0.019 A 
ENDBRANCH  23  26
ENDBRANCH   5  22
TORSDOF 7
ENDMDL
MODEL 2
REMARK VINA RESULT:      -8.8      6.031      8.628
REMARK  7 active torsions:
REMARK  status: ('A' for Active; 'I' for Inactive)
REMARK    1  A    between atoms: C_3  and  C_4 
REMARK       I    between atoms: C_4  and  N_5 
REMARK    2  A    between atoms: N_5  and  C_6 
REMARK    3  A    between atoms: C_6  and  C_7 
REMARK    4  A    between atoms: C_7  and  O_8 
REMARK    5  A    between atoms: C_7  and  C_9 
REMARK    6  A    between atoms: C_18  and  N_19 
REMARK       I    between atoms: N_19  and  C_20 
REMARK    7  A    between atoms: C_20  and  C_21 
ROOT
HETATM    1  C   UNL     1     -44.880  58.093 -54.317  1.00  0.00     0.050 C 
HETATM    2  C   UNL     1     -43.784  57.382 -53.590  1.00  0.00    -0.037 A 
HETATM    3  C   UNL     1     -42.991  57.935 -52.589  1.00  0.00     0.080 A 
HETATM    4  S   UNL     1     -41.837  56.803 -52.016  1.00  0.00    -0.066 SA
HETATM    5  C   UNL     1     -42.406  55.574 -53.027  1.00  0.00     0.078 A 
HETATM    6  C   UNL     1     -43.436  56.010 -53.828  1.00  0.00     0.045 A 
ENDROOT
BRANCH   3   7
HETATM    7  C   UNL     1     -43.080  59.277 -52.019  1.00  0.00     0.259 C 
HETATM    8  N   UNL     1     -43.645  59.378 -50.764  1.00  0.00    -0.354 N 
HETATM    9  H   UNL     1     -44.011  58.520 -50.365  1.00  0.00     0.162 HD
HETATM   10  O   UNL     1     -42.700  60.288 -52.608  1.00  0.00    -0.267 OA
BRANCH   8  11
HETATM   11  C   UNL     1     -44.101  60.646 -50.204  1.00  0.00     0.159 C 
BRANCH  11  12
HETATM   12  C   UNL     1     -45.455  60.581 -49.457  1.00  0.00     0.169 C 
BRANCH  12  13
HETATM   13  O   UNL     1     -45.813  59.245 -49.103  1.00  0.00    -0.389 OA
HETATM   14  H   UNL     1     -46.676  59.053 -49.529  1.00  0.00     0.210 HD
ENDBRANCH  12  13
BRANCH  12  15
HETATM   15  C   UNL     1     -45.381  61.386 -48.172  1.00  0.00    -0.028 A 
HETATM   16  C   UNL     1     -45.236  62.782 -48.215  1.00  0.00     0.013 A 
HETATM   17  C   UNL     1     -45.134  63.519 -47.033  1.00  0.00     0.043 A 
HETATM   18  C   UNL     1     -45.175  62.863 -45.807  1.00  0.00     0.116 A 
HETATM   19  F   UNL     1     -45.074  63.573 -44.675  1.00  0.00    -0.206 F 
HETATM   20  C   UNL     1     -45.316  61.484 -45.739  1.00  0.00     0.043 A 
HETATM   21  C   UNL     1     -45.417  60.746 -46.919  1.00  0.00     0.013 A 
ENDBRANCH  12  15
ENDBRANCH  11  12
ENDBRANCH   8  11
ENDBRANCH   3   7
BRANCH   5  22
HETATM   22  N   UNL     1     -41.906  54.285 -52.997  1.00  0.00    -0.317 N 
HETATM   23  C   UNL     1     -40.809  53.799 -53.680  1.00  0.00     0.258 C 
HETATM   24  O   UNL     1     -40.140  54.413 -54.506  1.00  0.00    -0.267 OA
HETATM   25  H   UNL     1     -42.424  53.637 -52.416  1.00  0.00     0.169 HD
BRANCH  23  26
HETATM   26  C   UNL     1     -40.376  52.402 -53.338  1.00  0.00     0.054 A 
HETATM   27  C   UNL     1     -39.907  51.964 -52.090  1.00  0.00     0.049 A 
HETATM   28 CL   UNL     1     -39.822  52.965 -50.680  1.00  0.00    -0.083 Cl
HETATM   29  C   UNL     1     -39.494  50.634 -51.919  1.00  0.00     0.025 A 
HETATM   30  C   UNL     1     -39.556  49.728 -52.977  1.00  0.00     0.002 A 
HETATM   31  C   UNL     1     -40.037  50.144 -54.213  1.00  0.00     0.001 A 
HETATM   32  C   UNL     1     -40.444  51.467 -54.390  1.00  0.00     0.019 A 
ENDBRANCH  23  26
ENDBRANCH   5  22
TORSDOF 7
ENDMDL
MODEL 3
REMARK VINA RESULT:      -8.5      1.930      2.430
REMARK  7 active torsions:
REMARK  status: ('A' for Active; 'I' for Inactive)
REMARK    1  A    between atoms: C_3  and  C_4 
REMARK       I    between atoms: C_4  and  N_5 
REMARK    2  A    between atoms: N_5  and  C_6 
REMARK    3  A    between atoms: C_6  and  C_7 
REMARK    4  A    between atoms: C_7  and  O_8 
REMARK    5  A    between atoms: C_7  and  C_9 
REMARK    6  A    between atoms: C_18  and  N_19 
REMARK       I    between atoms: N_19  and  C_20 
REMARK    7  A    between atoms: C_20  and  C_21 
ROOT
HETATM    1  C   UNL     1     -42.772  59.100 -52.407  1.00  0.00     0.050 C 
HETATM    2  C   UNL     1     -42.461  57.918 -53.268  1.00  0.00    -0.037 A 
HETATM    3  C   UNL     1     -42.389  57.932 -54.658  1.00  0.00     0.080 A 
HETATM    4  S   UNL     1     -42.023  56.374 -55.275  1.00  0.00    -0.066 SA
HETATM    5  C   UNL     1     -41.899  55.692 -53.734  1.00  0.00     0.078 A 
HETATM    6  C   UNL     1     -42.168  56.613 -52.748  1.00  0.00     0.045 A 
ENDROOT
BRANCH   3   7
HETATM    7  C   UNL     1     -42.557  59.077 -55.549  1.00  0.00     0.259 C 
HETATM    8  N   UNL     1     -43.714  59.109 -56.301  1.00  0.00    -0.354 N 
HETATM    9  H   UNL     1     -44.325  58.303 -56.220  1.00  0.00     0.162 HD
HETATM   10  O   UNL     1     -41.722  59.972 -55.665  1.00  0.00    -0.267 OA
BRANCH   8  11
HETATM   11  C   UNL     1     -43.882  59.987 -57.454  1.00  0.00     0.159 C 
BRANCH  11  12
HETATM   12  C   UNL     1     -43.217  59.485 -58.759  1.00  0.00     0.169 C 
BRANCH  12  13
HETATM   13  O   UNL     1     -41.792  59.507 -58.683  1.00  0.00    -0.389 OA
HETATM   14  H   UNL     1     -41.551  59.486 -57.732  1.00  0.00     0.210 HD
ENDBRANCH  12  13
BRANCH  12  15
HETATM   15  C   UNL     1     -43.634  58.051 -59.037  1.00  0.00    -0.028 A 
HETATM   16  C   UNL     1     -42.680  57.020 -59.036  1.00  0.00     0.013 A 
HETATM   17  C   UNL     1     -43.059  55.707 -59.325  1.00  0.00     0.043 A 
HETATM   18  C   UNL     1     -44.388  55.422 -59.619  1.00  0.00     0.116 A 
HETATM   19  F   UNL     1     -44.747  54.162 -59.899  1.00  0.00    -0.206 F 
HETATM   20  C   UNL     1     -45.348  56.425 -59.628  1.00  0.00     0.043 A 
HETATM   21  C   UNL     1     -44.972  57.737 -59.339  1.00  0.00     0.013 A 
ENDBRANCH  12  15
ENDBRANCH  11  12
ENDBRANCH   8  11
ENDBRANCH   3   7
BRANCH   5  22
HETATM   22  N   UNL     1     -41.526  54.378 -53.522  1.00  0.00    -0.317 N 
HETATM   23  C   UNL     1     -40.475  53.703 -54.112  1.00  0.00     0.258 C 
HETATM   24  O   UNL     1     -39.744  54.133 -54.999  1.00  0.00    -0.267 OA
HETATM   25  H   UNL     1     -42.108  53.867 -52.869  1.00  0.00     0.169 HD
BRANCH  23  26
HETATM   26  C   UNL     1     -40.181  52.331 -53.576  1.00  0.00     0.054 A 
HETATM   27  C   UNL     1     -39.797  52.020 -52.263  1.00  0.00     0.049 A 
HETATM   28 CL   UNL     1     -39.673  53.185 -50.988  1.00  0.00    -0.083 Cl
HETATM   29  C   UNL     1     -39.511  50.693 -51.907  1.00  0.00     0.025 A 
HETATM   30  C   UNL     1     -39.616  49.666 -52.844  1.00  0.00     0.002 A 
HETATM   31  C   UNL     1     -40.015  49.958 -54.143  1.00  0.00     0.001 A 
HETATM   32  C   UNL     1     -40.296  51.277 -54.504  1.00  0.00     0.019 A 
ENDBRANCH  23  26
ENDBRANCH   5  22
TORSDOF 7
ENDMDL
MODEL 4
REMARK VINA RESULT:      -8.4      2.295      2.904
REMARK  7 active torsions:
REMARK  status: ('A' for Active; 'I' for Inactive)
REMARK    1  A    between atoms: C_3  and  C_4 
REMARK       I    between atoms: C_4  and  N_5 
REMARK    2  A    between atoms: N_5  and  C_6 
REMARK    3  A    between atoms: C_6  and  C_7 
REMARK    4  A    between atoms: C_7  and  O_8 
REMARK    5  A    between atoms: C_7  and  C_9 
REMARK    6  A    between atoms: C_18  and  N_19 
REMARK       I    between atoms: N_19  and  C_20 
REMARK    7  A    between atoms: C_20  and  C_21 
ROOT
HETATM    1  C   UNL     1     -43.602  58.545 -54.276  1.00  0.00     0.050 C 
HETATM    2  C   UNL     1     -43.303  57.188 -54.828  1.00  0.00    -0.037 A 
HETATM    3  C   UNL     1     -43.488  56.797 -56.151  1.00  0.00     0.080 A 
HETATM    4  S   UNL     1     -43.043  55.158 -56.382  1.00  0.00    -0.066 SA
HETATM    5  C   UNL     1     -42.551  54.970 -54.776  1.00  0.00     0.078 A 
HETATM    6  C   UNL     1     -42.752  56.118 -54.045  1.00  0.00     0.045 A 
ENDROOT
BRANCH   3   7
HETATM    7  C   UNL     1     -43.964  57.614 -57.264  1.00  0.00     0.259 C 
HETATM    8  N   UNL     1     -45.332  57.714 -57.415  1.00  0.00    -0.354 N 
HETATM    9  H   UNL     1     -45.897  57.162 -56.779  1.00  0.00     0.162 HD
HETATM   10  O   UNL     1     -43.213  58.180 -58.057  1.00  0.00    -0.267 OA
BRANCH   8  11
HETATM   11  C   UNL     1     -45.957  58.207 -58.639  1.00  0.00     0.159 C 
BRANCH  11  12
HETATM   12  C   UNL     1     -45.920  57.222 -59.832  1.00  0.00     0.169 C 
BRANCH  12  13
HETATM   13  O   UNL     1     -46.075  55.864 -59.418  1.00  0.00    -0.389 OA
HETATM   14  H   UNL     1     -46.562  55.397 -60.130  1.00  0.00     0.210 HD
ENDBRANCH  12  13
BRANCH  12  15
HETATM   15  C   UNL     1     -47.049  57.532 -60.799  1.00  0.00    -0.028 A 
HETATM   16  C   UNL     1     -47.474  58.856 -60.994  1.00  0.00     0.013 A 
HETATM   17  C   UNL     1     -48.534  59.138 -61.859  1.00  0.00     0.043 A 
HETATM   18  C   UNL     1     -49.172  58.099 -62.528  1.00  0.00     0.116 A 
HETATM   19  F   UNL     1     -50.191  58.372 -63.354  1.00  0.00    -0.206 F 
HETATM   20  C   UNL     1     -48.771  56.781 -62.350  1.00  0.00     0.043 A 
HETATM   21  C   UNL     1     -47.712  56.498 -61.486  1.00  0.00     0.013 A 
ENDBRANCH  12  15
ENDBRANCH  11  12
ENDBRANCH   8  11
ENDBRANCH   3   7
BRANCH   5  22
HETATM   22  N   UNL     1     -41.977  53.807 -54.297  1.00  0.00    -0.317 N 
HETATM   23  C   UNL     1     -40.658  53.416 -54.416  1.00  0.00     0.258 C 
HETATM   24  O   UNL     1     -39.784  53.999 -55.051  1.00  0.00    -0.267 OA
HETATM   25  H   UNL     1     -42.614  53.179 -53.822  1.00  0.00     0.169 HD
BRANCH  23  26
HETATM   26  C   UNL     1     -40.257  52.185 -53.654  1.00  0.00     0.054 A 
HETATM   27  C   UNL     1     -39.924  52.127 -52.292  1.00  0.00     0.049 A 
HETATM   28 CL   UNL     1     -39.999  53.482 -51.217  1.00  0.00    -0.083 Cl
HETATM   29  C   UNL     1     -39.524  50.912 -51.715  1.00  0.00     0.025 A 
HETATM   30  C   UNL     1     -39.466  49.746 -52.479  1.00  0.00     0.002 A 
HETATM   31  C   UNL     1     -39.812  49.786 -53.824  1.00  0.00     0.001 A 
HETATM   32  C   UNL     1     -40.205  50.994 -54.405  1.00  0.00     0.019 A 
ENDBRANCH  23  26
ENDBRANCH   5  22
TORSDOF 7
ENDMDL
MODEL 5
REMARK VINA RESULT:      -7.9      3.860      5.303
REMARK  7 active torsions:
REMARK  status: ('A' for Active; 'I' for Inactive)
REMARK    1  A    between atoms: C_3  and  C_4 
REMARK       I    between atoms: C_4  and  N_5 
REMARK    2  A    between atoms: N_5  and  C_6 
REMARK    3  A    between atoms: C_6  and  C_7 
REMARK    4  A    between atoms: C_7  and  O_8 
REMARK    5  A    between atoms: C_7  and  C_9 
REMARK    6  A    between atoms: C_18  and  N_19 
REMARK       I    between atoms: N_19  and  C_20 
REMARK    7  A    between atoms: C_20  and  C_21 
ROOT
HETATM    1  C   UNL     1     -44.011  55.327 -59.398  1.00  0.00     0.050 C 
HETATM    2  C   UNL     1     -43.407  55.765 -58.102  1.00  0.00    -0.037 A 
HETATM    3  C   UNL     1     -43.155  57.083 -57.735  1.00  0.00     0.080 A 
HETATM    4  S   UNL     1     -42.443  57.169 -56.178  1.00  0.00    -0.066 SA
HETATM    5  C   UNL     1     -42.516  55.496 -55.952  1.00  0.00     0.078 A 
HETATM    6  C   UNL     1     -43.036  54.857 -57.053  1.00  0.00     0.045 A 
ENDROOT
BRANCH   3   7
HETATM    7  C   UNL     1     -43.452  58.294 -58.497  1.00  0.00     0.259 C 
HETATM    8  N   UNL     1     -42.398  58.869 -59.177  1.00  0.00    -0.354 N 
HETATM    9  H   UNL     1     -41.488  58.440 -59.043  1.00  0.00     0.162 HD
HETATM   10  O   UNL     1     -44.567  58.813 -58.535  1.00  0.00    -0.267 OA
BRANCH   8  11
HETATM   11  C   UNL     1     -42.446  60.229 -59.704  1.00  0.00     0.159 C 
BRANCH  11  12
HETATM   12  C   UNL     1     -41.761  61.296 -58.817  1.00  0.00     0.169 C 
BRANCH  12  13
HETATM   13  O   UNL     1     -41.030  60.714 -57.737  1.00  0.00    -0.389 OA
HETATM   14  H   UNL     1     -41.271  61.206 -56.924  1.00  0.00     0.210 HD
ENDBRANCH  12  13
BRANCH  12  15
HETATM   15  C   UNL     1     -40.780  62.109 -59.643  1.00  0.00    -0.028 A 
HETATM   16  C   UNL     1     -39.790  62.882 -59.015  1.00  0.00     0.013 A 
HETATM   17  C   UNL     1     -38.910  63.656 -59.774  1.00  0.00     0.043 A 
HETATM   18  C   UNL     1     -39.018  63.661 -61.161  1.00  0.00     0.116 A 
HETATM   19  F   UNL     1     -38.173  64.407 -61.886  1.00  0.00    -0.206 F 
HETATM   20  C   UNL     1     -39.990  62.907 -61.805  1.00  0.00     0.043 A 
HETATM   21  C   UNL     1     -40.870  62.133 -61.048  1.00  0.00     0.013 A 
ENDBRANCH  12  15
ENDBRANCH  11  12
ENDBRANCH   8  11
ENDBRANCH   3   7
BRANCH   5  22
HETATM   22  N   UNL     1     -42.135  54.879 -54.775  1.00  0.00    -0.317 N 
HETATM   23  C   UNL     1     -40.847  54.612 -54.352  1.00  0.00     0.258 C 
HETATM   24  O   UNL     1     -39.819  54.799 -54.997  1.00  0.00    -0.267 OA
HETATM   25  H   UNL     1     -42.897  54.585 -54.178  1.00  0.00     0.169 HD
BRANCH  23  26
HETATM   26  C   UNL     1     -40.701  54.088 -52.953  1.00  0.00     0.054 A 
HETATM   27  C   UNL     1     -40.229  52.817 -52.590  1.00  0.00     0.049 A 
HETATM   28 CL   UNL     1     -39.647  51.641 -53.720  1.00  0.00    -0.083 Cl
HETATM   29  C   UNL     1     -40.183  52.440 -51.239  1.00  0.00     0.025 A 
HETATM   30  C   UNL     1     -40.591  53.324 -50.240  1.00  0.00     0.002 A 
HETATM   31  C   UNL     1     -41.041  54.592 -50.584  1.00  0.00     0.001 A 
HETATM   32  C   UNL     1     -41.094  54.970 -51.927  1.00  0.00     0.019 A 
ENDBRANCH  23  26
ENDBRANCH   5  22
TORSDOF 7
ENDMDL
MODEL 6
REMARK VINA RESULT:      -7.9     15.334     17.963
REMARK  7 active torsions:
REMARK  status: ('A' for Active; 'I' for Inactive)
REMARK    1  A    between atoms: C_3  and  C_4 
REMARK       I    between atoms: C_4  and  N_5 
REMARK    2  A    between atoms: N_5  and  C_6 
REMARK    3  A    between atoms: C_6  and  C_7 
REMARK    4  A    between atoms: C_7  and  O_8 
REMARK    5  A    between atoms: C_7  and  C_9 
REMARK    6  A    between atoms: C_18  and  N_19 
REMARK       I    between atoms: N_19  and  C_20 
REMARK    7  A    between atoms: C_20  and  C_21 
ROOT
HETATM    1  C   UNL     1     -31.958  40.026 -53.768  1.00  0.00     0.050 C 
HETATM    2  C   UNL     1     -32.600  39.883 -52.425  1.00  0.00    -0.037 A 
HETATM    3  C   UNL     1     -33.924  39.519 -52.200  1.00  0.00     0.080 A 
HETATM    4  S   UNL     1     -34.280  39.481 -50.522  1.00  0.00    -0.066 SA
HETATM    5  C   UNL     1     -32.697  39.878 -50.084  1.00  0.00     0.078 A 
HETATM    6  C   UNL     1     -31.900  40.081 -51.187  1.00  0.00     0.045 A 
ENDROOT
BRANCH   3   7
HETATM    7  C   UNL     1     -34.935  39.170 -53.194  1.00  0.00     0.259 C 
HETATM    8  N   UNL     1     -35.682  40.212 -53.706  1.00  0.00    -0.354 N 
HETATM    9  H   UNL     1     -35.511  41.128 -53.304  1.00  0.00     0.162 HD
HETATM   10  O   UNL     1     -35.152  38.017 -53.563  1.00  0.00    -0.267 OA
BRANCH   8  11
HETATM   11  C   UNL     1     -36.924  40.005 -54.443  1.00  0.00     0.159 C 
BRANCH  11  12
HETATM   12  C   UNL     1     -37.563  41.292 -55.020  1.00  0.00     0.169 C 
BRANCH  12  13
HETATM   13  O   UNL     1     -36.845  42.467 -54.645  1.00  0.00    -0.389 OA
HETATM   14  H   UNL     1     -37.499  43.193 -54.559  1.00  0.00     0.210 HD
ENDBRANCH  12  13
BRANCH  12  15
HETATM   15  C   UNL     1     -37.575  41.232 -56.538  1.00  0.00    -0.028 A 
HETATM   16  C   UNL     1     -38.298  40.230 -57.204  1.00  0.00     0.013 A 
HETATM   17  C   UNL     1     -38.281  40.156 -58.599  1.00  0.00     0.043 A 
HETATM   18  C   UNL     1     -37.541  41.080 -59.329  1.00  0.00     0.116 A 
HETATM   19  F   UNL     1     -37.525  41.004 -60.667  1.00  0.00    -0.206 F 
HETATM   20  C   UNL     1     -36.817  42.079 -58.692  1.00  0.00     0.043 A 
HETATM   21  C   UNL     1     -36.832  42.154 -57.299  1.00  0.00     0.013 A 
ENDBRANCH  12  15
ENDBRANCH  11  12
ENDBRANCH   8  11
ENDBRANCH   3   7
BRANCH   5  22
HETATM   22  N   UNL     1     -32.274  39.939 -48.770  1.00  0.00    -0.317 N 
HETATM   23  C   UNL     1     -31.722  38.917 -48.022  1.00  0.00     0.258 C 
HETATM   24  O   UNL     1     -31.596  37.748 -48.374  1.00  0.00    -0.267 OA
HETATM   25  H   UNL     1     -32.405  40.836 -48.318  1.00  0.00     0.169 HD
BRANCH  23  26
HETATM   26  C   UNL     1     -31.188  39.294 -46.670  1.00  0.00     0.054 A 
HETATM   27  C   UNL     1     -31.539  38.703 -45.447  1.00  0.00     0.049 A 
HETATM   28 CL   UNL     1     -32.613  37.354 -45.296  1.00  0.00    -0.083 Cl
HETATM   29  C   UNL     1     -30.991  39.184 -44.248  1.00  0.00     0.025 A 
HETATM   30  C   UNL     1     -30.084  40.243 -44.254  1.00  0.00     0.002 A 
HETATM   31  C   UNL     1     -29.712  40.824 -45.461  1.00  0.00     0.001 A 
HETATM   32  C   UNL     1     -30.258  40.353 -46.656  1.00  0.00     0.019 A 
ENDBRANCH  23  26
ENDBRANCH   5  22
TORSDOF 7
ENDMDL
MODEL 7
REMARK VINA RESULT:      -7.8      4.824      9.891
REMARK  7 active torsions:
REMARK  status: ('A' for Active; 'I' for Inactive)
REMARK    1  A    between atoms: C_3  and  C_4 
REMARK       I    between atoms: C_4  and  N_5 
REMARK    2  A    between atoms: N_5  and  C_6 
REMARK    3  A    between atoms: C_6  and  C_7 
REMARK    4  A    between atoms: C_7  and  O_8 
REMARK    5  A    between atoms: C_7  and  C_9 
REMARK    6  A    between atoms: C_18  and  N_19 
REMARK       I    between atoms: N_19  and  C_20 
REMARK    7  A    between atoms: C_20  and  C_21 
ROOT
HETATM    1  C   UNL     1     -43.180  55.821 -57.352  1.00  0.00     0.050 C 
HETATM    2  C   UNL     1     -42.794  57.261 -57.228  1.00  0.00    -0.037 A 
HETATM    3  C   UNL     1     -42.982  58.050 -56.098  1.00  0.00     0.080 A 
HETATM    4  S   UNL     1     -42.421  59.650 -56.358  1.00  0.00    -0.066 SA
HETATM    5  C   UNL     1     -41.876  59.302 -57.919  1.00  0.00     0.078 A 
HETATM    6  C   UNL     1     -42.145  58.000 -58.273  1.00  0.00     0.045 A 
ENDROOT
BRANCH   3   7
HETATM    7  C   UNL     1     -43.546  57.648 -54.812  1.00  0.00     0.259 C 
HETATM    8  N   UNL     1     -42.683  57.035 -53.925  1.00  0.00    -0.354 N 
HETATM    9  H   UNL     1     -41.743  56.856 -54.263  1.00  0.00     0.162 HD
HETATM   10  O   UNL     1     -44.727  57.811 -54.509  1.00  0.00    -0.267 OA
BRANCH   8  11
HETATM   11  C   UNL     1     -43.148  56.291 -52.759  1.00  0.00     0.159 C 
BRANCH  11  12
HETATM   12  C   UNL     1     -43.529  54.817 -53.033  1.00  0.00     0.169 C 
BRANCH  12  13
HETATM   13  O   UNL     1     -44.279  54.668 -54.239  1.00  0.00    -0.389 OA
HETATM   14  H   UNL     1     -43.661  54.343 -54.928  1.00  0.00     0.210 HD
ENDBRANCH  12  13
BRANCH  12  15
HETATM   15  C   UNL     1     -42.275  53.972 -53.173  1.00  0.00    -0.028 A 
HETATM   16  C   UNL     1     -41.899  53.459 -54.425  1.00  0.00     0.013 A 
HETATM   17  C   UNL     1     -40.763  52.654 -54.546  1.00  0.00     0.043 A 
HETATM   18  C   UNL     1     -40.005  52.358 -53.419  1.00  0.00     0.116 A 
HETATM   19  F   UNL     1     -38.918  51.583 -53.538  1.00  0.00    -0.206 F 
HETATM   20  C   UNL     1     -40.358  52.853 -52.170  1.00  0.00     0.043 A 
HETATM   21  C   UNL     1     -41.491  53.657 -52.047  1.00  0.00     0.013 A 
ENDBRANCH  12  15
ENDBRANCH  11  12
ENDBRANCH   8  11
ENDBRANCH   3   7
BRANCH   5  22
HETATM   22  N   UNL     1     -41.205  60.222 -58.703  1.00  0.00    -0.317 N 
HETATM   23  C   UNL     1     -41.739  61.330 -59.332  1.00  0.00     0.258 C 
HETATM   24  O   UNL     1     -42.926  61.637 -59.374  1.00  0.00    -0.267 OA
HETATM   25  H   UNL     1     -40.217  60.038 -58.831  1.00  0.00     0.169 HD
BRANCH  23  26
HETATM   26  C   UNL     1     -40.759  62.263 -59.982  1.00  0.00     0.054 A 
HETATM   27  C   UNL     1     -40.658  62.533 -61.356  1.00  0.00     0.049 A 
HETATM   28 CL   UNL     1     -41.724  61.878 -62.552  1.00  0.00    -0.083 Cl
HETATM   29  C   UNL     1     -39.663  63.399 -61.834  1.00  0.00     0.025 A 
HETATM   30  C   UNL     1     -38.773  64.015 -60.954  1.00  0.00     0.002 A 
HETATM   31  C   UNL     1     -38.875  63.773 -59.590  1.00  0.00     0.001 A 
HETATM   32  C   UNL     1     -39.859  62.907 -59.109  1.00  0.00     0.019 A 
ENDBRANCH  23  26
ENDBRANCH   5  22
TORSDOF 7
ENDMDL
MODEL 8
REMARK VINA RESULT:      -7.7      1.899      2.342
REMARK  7 active torsions:
REMARK  status: ('A' for Active; 'I' for Inactive)
REMARK    1  A    between atoms: C_3  and  C_4 
REMARK       I    between atoms: C_4  and  N_5 
REMARK    2  A    between atoms: N_5  and  C_6 
REMARK    3  A    between atoms: C_6  and  C_7 
REMARK    4  A    between atoms: C_7  and  O_8 
REMARK    5  A    between atoms: C_7  and  C_9 
REMARK    6  A    between atoms: C_18  and  N_19 
REMARK       I    between atoms: N_19  and  C_20 
REMARK    7  A    between atoms: C_20  and  C_21 
ROOT
HETATM    1  C   UNL     1     -44.641  57.414 -53.234  1.00  0.00     0.050 C 
HETATM    2  C   UNL     1     -43.750  56.379 -53.842  1.00  0.00    -0.037 A 
HETATM    3  C   UNL     1     -43.285  56.387 -55.154  1.00  0.00     0.080 A 
HETATM    4  S   UNL     1     -42.300  55.019 -55.471  1.00  0.00    -0.066 SA
HETATM    5  C   UNL     1     -42.426  54.447 -53.886  1.00  0.00     0.078 A 
HETATM    6  C   UNL     1     -43.236  55.250 -53.118  1.00  0.00     0.045 A 
ENDROOT
BRANCH   3   7
HETATM    7  C   UNL     1     -43.528  57.396 -56.181  1.00  0.00     0.259 C 
HETATM    8  N   UNL     1     -44.709  57.286 -56.888  1.00  0.00    -0.354 N 
HETATM    9  H   UNL     1     -45.283  56.476 -56.680  1.00  0.00     0.162 HD
HETATM   10  O   UNL     1     -42.735  58.299 -56.444  1.00  0.00    -0.267 OA
BRANCH   8  11
HETATM   11  C   UNL     1     -44.949  57.996 -58.139  1.00  0.00     0.159 C 
BRANCH  11  12
HETATM   12  C   UNL     1     -44.918  57.111 -59.409  1.00  0.00     0.169 C 
BRANCH  12  13
HETATM   13  O   UNL     1     -44.934  55.718 -59.097  1.00  0.00    -0.389 OA
HETATM   14  H   UNL     1     -44.852  55.637 -58.123  1.00  0.00     0.210 HD
ENDBRANCH  12  13
BRANCH  12  15
HETATM   15  C   UNL     1     -46.135  57.396 -60.272  1.00  0.00    -0.028 A 
HETATM   16  C   UNL     1     -46.877  56.341 -60.825  1.00  0.00     0.013 A 
HETATM   17  C   UNL     1     -47.976  56.604 -61.647  1.00  0.00     0.043 A 
HETATM   18  C   UNL     1     -48.333  57.920 -61.919  1.00  0.00     0.116 A 
HETATM   19  F   UNL     1     -49.386  58.169 -62.710  1.00  0.00    -0.206 F 
HETATM   20  C   UNL     1     -47.613  58.981 -61.384  1.00  0.00     0.043 A 
HETATM   21  C   UNL     1     -46.515  58.720 -60.564  1.00  0.00     0.013 A 
ENDBRANCH  12  15
ENDBRANCH  11  12
ENDBRANCH   8  11
ENDBRANCH   3   7
BRANCH   5  22
HETATM   22  N   UNL     1     -41.748  53.330 -53.435  1.00  0.00    -0.317 N 
HETATM   23  C   UNL     1     -40.749  53.287 -52.482  1.00  0.00     0.258 C 
HETATM   24  O   UNL     1     -40.227  54.255 -51.936  1.00  0.00    -0.267 OA
HETATM   25  H   UNL     1     -42.018  52.457 -53.873  1.00  0.00     0.169 HD
BRANCH  23  26
HETATM   26  C   UNL     1     -40.299  51.922 -52.049  1.00  0.00     0.054 A 
HETATM   27  C   UNL     1     -39.891  50.878 -52.893  1.00  0.00     0.049 A 
HETATM   28 CL   UNL     1     -39.759  51.019 -54.613  1.00  0.00    -0.083 Cl
HETATM   29  C   UNL     1     -39.534  49.633 -52.354  1.00  0.00     0.025 A 
HETATM   30  C   UNL     1     -39.566  49.419 -50.976  1.00  0.00     0.002 A 
HETATM   31  C   UNL     1     -39.949  50.450 -50.127  1.00  0.00     0.001 A 
HETATM   32  C   UNL     1     -40.310  51.689 -50.659  1.00  0.00     0.019 A 
ENDBRANCH  23  26
ENDBRANCH   5  22
TORSDOF 7
ENDMDL
MODEL 9
REMARK VINA RESULT:      -7.7      6.696      9.222
REMARK  7 active torsions:
REMARK  status: ('A' for Active; 'I' for Inactive)
REMARK    1  A    between atoms: C_3  and  C_4 
REMARK       I    between atoms: C_4  and  N_5 
REMARK    2  A    between atoms: N_5  and  C_6 
REMARK    3  A    between atoms: C_6  and  C_7 
REMARK    4  A    between atoms: C_7  and  O_8 
REMARK    5  A    between atoms: C_7  and  C_9 
REMARK    6  A    between atoms: C_18  and  N_19 
REMARK       I    between atoms: N_19  and  C_20 
REMARK    7  A    between atoms: C_20  and  C_21 
ROOT
HETATM    1  C   UNL     1     -44.870  59.121 -53.532  1.00  0.00     0.050 C 
HETATM    2  C   UNL     1     -43.638  58.510 -52.947  1.00  0.00    -0.037 A 
HETATM    3  C   UNL     1     -42.844  59.087 -51.959  1.00  0.00     0.080 A 
HETATM    4  S   UNL     1     -41.513  58.079 -51.567  1.00  0.00    -0.066 SA
HETATM    5  C   UNL     1     -42.000  56.864 -52.635  1.00  0.00     0.078 A 
HETATM    6  C   UNL     1     -43.138  57.218 -53.323  1.00  0.00     0.045 A 
ENDROOT
BRANCH   3   7
HETATM    7  C   UNL     1     -43.057  60.358 -51.273  1.00  0.00     0.259 C 
HETATM    8  N   UNL     1     -43.618  60.293 -50.014  1.00  0.00    -0.354 N 
HETATM    9  H   UNL     1     -43.895  59.373 -49.692  1.00  0.00     0.162 HD
HETATM   10  O   UNL     1     -42.783  61.450 -51.770  1.00  0.00    -0.267 OA
BRANCH   8  11
HETATM   11  C   UNL     1     -44.188  61.457 -49.343  1.00  0.00     0.159 C 
BRANCH  11  12
HETATM   12  C   UNL     1     -45.614  61.251 -48.778  1.00  0.00     0.169 C 
BRANCH  12  13
HETATM   13  O   UNL     1     -45.810  59.929 -48.275  1.00  0.00    -0.389 OA
HETATM   14  H   UNL     1     -45.830  59.991 -47.296  1.00  0.00     0.210 HD
ENDBRANCH  12  13
BRANCH  12  15
HETATM   15  C   UNL     1     -45.865  62.215 -47.632  1.00  0.00    -0.028 A 
HETATM   16  C   UNL     1     -44.943  63.233 -47.345  1.00  0.00     0.013 A 
HETATM   17  C   UNL     1     -45.158  64.098 -46.269  1.00  0.00     0.043 A 
HETATM   18  C   UNL     1     -46.291  63.946 -45.478  1.00  0.00     0.116 A 
HETATM   19  F   UNL     1     -46.493  64.776 -44.445  1.00  0.00    -0.206 F 
HETATM   20  C   UNL     1     -47.217  62.945 -45.742  1.00  0.00     0.043 A 
HETATM   21  C   UNL     1     -47.004  62.080 -46.815  1.00  0.00     0.013 A 
ENDBRANCH  12  15
ENDBRANCH  11  12
ENDBRANCH   8  11
ENDBRANCH   3   7
BRANCH   5  22
HETATM   22  N   UNL     1     -41.340  55.655 -52.750  1.00  0.00    -0.317 N 
HETATM   23  C   UNL     1     -41.526  54.526 -51.976  1.00  0.00     0.258 C 
HETATM   24  O   UNL     1     -42.252  54.435 -50.990  1.00  0.00    -0.267 OA
HETATM   25  H   UNL     1     -40.636  55.617 -53.477  1.00  0.00     0.169 HD
BRANCH  23  26
HETATM   26  C   UNL     1     -40.802  53.288 -52.420  1.00  0.00     0.054 A 
HETATM   27  C   UNL     1     -40.683  52.827 -53.740  1.00  0.00     0.049 A 
HETATM   28 CL   UNL     1     -41.299  53.672 -55.120  1.00  0.00    -0.083 Cl
HETATM   29  C   UNL     1     -40.011  51.625 -54.010  1.00  0.00     0.025 A 
HETATM   30  C   UNL     1     -39.441  50.881 -52.978  1.00  0.00     0.002 A 
HETATM   31  C   UNL     1     -39.534  51.336 -51.668  1.00  0.00     0.001 A 
HETATM   32  C   UNL     1     -40.206  52.528 -51.393  1.00  0.00     0.019 A 
ENDBRANCH  23  26
ENDBRANCH   5  22
TORSDOF 7
ENDMDL
MODEL 10
REMARK VINA RESULT:      -7.7      4.447     10.073
REMARK  7 active torsions:
REMARK  status: ('A' for Active; 'I' for Inactive)
REMARK    1  A    between atoms: C_3  and  C_4 
REMARK       I    between atoms: C_4  and  N_5 
REMARK    2  A    between atoms: N_5  and  C_6 
REMARK    3  A    between atoms: C_6  and  C_7 
REMARK    4  A    between atoms: C_7  and  O_8 
REMARK    5  A    between atoms: C_7  and  C_9 
REMARK    6  A    between atoms: C_18  and  N_19 
REMARK       I    between atoms: N_19  and  C_20 
REMARK    7  A    between atoms: C_20  and  C_21 
ROOT
HETATM    1  C   UNL     1     -44.186  54.422 -59.226  1.00  0.00     0.050 C 
HETATM    2  C   UNL     1     -43.533  55.729 -58.908  1.00  0.00    -0.037 A 
HETATM    3  C   UNL     1     -43.103  56.128 -57.646  1.00  0.00     0.080 A 
HETATM    4  S   UNL     1     -42.419  57.700 -57.693  1.00  0.00    -0.066 SA
HETATM    5  C   UNL     1     -42.624  57.839 -59.364  1.00  0.00     0.078 A 
HETATM    6  C   UNL     1     -43.241  56.730 -59.895  1.00  0.00     0.045 A 
ENDROOT
BRANCH   3   7
HETATM    7  C   UNL     1     -43.161  55.366 -56.401  1.00  0.00     0.259 C 
HETATM    8  N   UNL     1     -43.064  56.090 -55.230  1.00  0.00    -0.354 N 
HETATM    9  H   UNL     1     -42.898  57.086 -55.329  1.00  0.00     0.162 HD
HETATM   10  O   UNL     1     -43.267  54.142 -56.362  1.00  0.00    -0.267 OA
BRANCH   8  11
HETATM   11  C   UNL     1     -42.778  55.470 -53.941  1.00  0.00     0.159 C 
BRANCH  11  12
HETATM   12  C   UNL     1     -41.294  55.529 -53.503  1.00  0.00     0.169 C 
BRANCH  12  13
HETATM   13  O   UNL     1     -41.124  56.209 -52.260  1.00  0.00    -0.389 OA
HETATM   14  H   UNL     1     -41.385  55.586 -51.549  1.00  0.00     0.210 HD
ENDBRANCH  12  13
BRANCH  12  15
HETATM   15  C   UNL     1     -40.746  54.123 -53.329  1.00  0.00    -0.028 A 
HETATM   16  C   UNL     1     -40.580  53.282 -54.441  1.00  0.00     0.013 A 
HETATM   17  C   UNL     1     -40.107  51.978 -54.276  1.00  0.00     0.043 A 
HETATM   18  C   UNL     1     -39.802  51.512 -53.002  1.00  0.00     0.116 A 
HETATM   19  F   UNL     1     -39.351  50.259 -52.848  1.00  0.00    -0.206 F 
HETATM   20  C   UNL     1     -39.959  52.324 -51.887  1.00  0.00     0.043 A 
HETATM   21  C   UNL     1     -40.432  53.627 -52.050  1.00  0.00     0.013 A 
ENDBRANCH  12  15
ENDBRANCH  11  12
ENDBRANCH   8  11
ENDBRANCH   3   7
BRANCH   5  22
HETATM   22  N   UNL     1     -42.175  58.928 -60.088  1.00  0.00    -0.317 N 
HETATM   23  C   UNL     1     -42.522  60.252 -59.906  1.00  0.00     0.258 C 
HETATM   24  O   UNL     1     -43.364  60.679 -59.122  1.00  0.00    -0.267 OA
HETATM   25  H   UNL     1     -41.532  58.708 -60.840  1.00  0.00     0.169 HD
BRANCH  23  26
HETATM   26  C   UNL     1     -41.757  61.259 -60.717  1.00  0.00     0.054 A 
HETATM   27  C   UNL     1     -40.792  62.154 -60.229  1.00  0.00     0.049 A 
HETATM   28 CL   UNL     1     -40.252  62.194 -58.585  1.00  0.00    -0.083 Cl
HETATM   29  C   UNL     1     -40.182  63.074 -61.095  1.00  0.00     0.025 A 
HETATM   30  C   UNL     1     -40.513  63.104 -62.450  1.00  0.00     0.002 A 
HETATM   31  C   UNL     1     -41.452  62.210 -62.949  1.00  0.00     0.001 A 
HETATM   32  C   UNL     1     -42.066  61.296 -62.092  1.00  0.00     0.019 A 
ENDBRANCH  23  26
ENDBRANCH   5  22
TORSDOF 7
ENDMDL
