MODEL 1
REMARK VINA RESULT:      -8.0      0.000      0.000
REMARK  7 active torsions:
REMARK  status: ('A' for Active; 'I' for Inactive)
REMARK    1  A    between atoms: C_3  and  N_4 
REMARK       I    between atoms: N_4  and  C_5 
REMARK    2  A    between atoms: C_5  and  C_6 
REMARK    3  A    between atoms: C_7  and  C_8 
REMARK    4  A    between atoms: C_20  and  C_21 
REMARK    5  A    between atoms: C_21  and  C_22 
REMARK    6  A    between atoms: C_22  and  C_23 
REMARK    7  A    between atoms: C_23  and  O_24 
ROOT
HETATM    1  C   UNL     1     -42.898  57.167 -54.905  1.00  0.00     0.062 C 
HETATM    2  C   UNL     1     -42.333  57.631 -56.253  1.00  0.00     0.202 C 
HETATM    3  N   UNL     1     -42.307  59.096 -56.335  1.00  0.00    -0.083 N 
HETATM    4  C   UNL     1     -42.965  59.919 -55.465  1.00  0.00     0.726 A 
HETATM    5  N   UNL     1     -43.586  59.387 -54.398  1.00  0.00    -0.192 N 
HETATM    6  N   UNL     1     -41.734  59.797 -57.337  1.00  0.00    -0.140 NA
HETATM    7  C   UNL     1     -42.152  61.037 -57.044  1.00  0.00     0.166 A 
HETATM    8  N   UNL     1     -42.885  61.154 -55.885  1.00  0.00    -0.046 NA
HETATM    9  C   UNL     1     -43.544  58.034 -54.081  1.00  0.00     0.037 C 
HETATM   10  C   UNL     1     -44.291  57.646 -52.829  1.00  0.00     0.070 C 
HETATM   11  H   UNL     1     -44.084  60.010 -53.767  1.00  0.00     0.184 HD
ENDROOT
BRANCH   1  12
HETATM   12  C   UNL     1     -42.698  55.714 -54.616  1.00  0.00     0.256 C 
HETATM   13  N   UNL     1     -41.405  55.383 -54.282  1.00  0.00    -0.323 N 
HETATM   14  H   UNL     1     -40.696  56.055 -54.549  1.00  0.00     0.169 HD
HETATM   15  O   UNL     1     -43.610  54.924 -54.822  1.00  0.00    -0.267 OA
BRANCH  13  16
HETATM   16  C   UNL     1     -40.913  54.170 -53.746  1.00  0.00     0.041 A 
HETATM   17  C   UNL     1     -40.737  53.868 -52.382  1.00  0.00    -0.035 A 
HETATM   18  C   UNL     1     -41.002  54.813 -51.243  1.00  0.00     0.050 C 
HETATM   19  C   UNL     1     -40.235  52.596 -52.030  1.00  0.00     0.009 A 
HETATM   20  C   UNL     1     -39.860  51.665 -52.994  1.00  0.00     0.001 A 
HETATM   21  C   UNL     1     -39.979  51.986 -54.337  1.00  0.00     0.002 A 
HETATM   22  C   UNL     1     -40.499  53.228 -54.707  1.00  0.00     0.030 A 
ENDBRANCH  13  16
ENDBRANCH   1  12
BRANCH   2  23
HETATM   23  C   UNL     1     -43.107  57.089 -57.459  1.00  0.00    -0.026 A 
HETATM   24  C   UNL     1     -44.427  57.494 -57.730  1.00  0.00     0.035 A 
HETATM   25  C   UNL     1     -45.119  56.991 -58.837  1.00  0.00     0.056 A 
HETATM   26 CL   UNL     1     -46.741  57.536 -59.084  1.00  0.00    -0.083 Cl
HETATM   27  C   UNL     1     -44.497  56.078 -59.694  1.00  0.00     0.055 A 
HETATM   28 CL   UNL     1     -45.289  55.413 -61.077  1.00  0.00    -0.083 Cl
HETATM   29  C   UNL     1     -43.184  55.675 -59.440  1.00  0.00     0.026 A 
HETATM   30  C   UNL     1     -42.493  56.177 -58.332  1.00  0.00     0.011 A 
ENDBRANCH   2  23
BRANCH   7  31
HETATM   31  C   UNL     1     -41.936  62.193 -57.951  1.00  0.00     0.085 C 
BRANCH  31  32
HETATM   32  C   UNL     1     -40.828  61.941 -58.974  1.00  0.00     0.034 C 
BRANCH  32  33
HETATM   33  C   UNL     1     -41.360  61.652 -60.374  1.00  0.00     0.164 C 
BRANCH  33  34
HETATM   34  O   UNL     1     -41.737  60.283 -60.469  1.00  0.00    -0.401 OA
HETATM   35  H   UNL     1     -41.492  59.968 -61.355  1.00  0.00     0.209 HD
ENDBRANCH  33  34
ENDBRANCH  32  33
ENDBRANCH  31  32
ENDBRANCH   7  31
TORSDOF 7
ENDMDL
MODEL 2
REMARK VINA RESULT:      -8.0      1.287      1.968
REMARK  7 active torsions:
REMARK  status: ('A' for Active; 'I' for Inactive)
REMARK    1  A    between atoms: C_3  and  N_4 
REMARK       I    between atoms: N_4  and  C_5 
REMARK    2  A    between atoms: C_5  and  C_6 
REMARK    3  A    between atoms: C_7  and  C_8 
REMARK    4  A    between atoms: C_20  and  C_21 
REMARK    5  A    between atoms: C_21  and  C_22 
REMARK    6  A    between atoms: C_22  and  C_23 
REMARK    7  A    between atoms: C_23  and  O_24 
ROOT
HETATM    1  C   UNL     1     -42.411  58.051 -55.820  1.00  0.00     0.062 C 
HETATM    2  C   UNL     1     -42.266  58.082 -57.346  1.00  0.00     0.202 C 
HETATM    3  N   UNL     1     -41.909  59.427 -57.813  1.00  0.00    -0.083 N 
HETATM    4  C   UNL     1     -41.989  60.548 -57.035  1.00  0.00     0.726 A 
HETATM    5  N   UNL     1     -42.300  60.426 -55.733  1.00  0.00    -0.192 N 
HETATM    6  N   UNL     1     -41.575  59.733 -59.084  1.00  0.00    -0.140 NA
HETATM    7  C   UNL     1     -41.540  61.072 -59.017  1.00  0.00     0.166 A 
HETATM    8  N   UNL     1     -41.760  61.606 -57.768  1.00  0.00    -0.046 NA
HETATM    9  C   UNL     1     -42.485  59.202 -55.101  1.00  0.00     0.037 C 
HETATM   10  C   UNL     1     -42.810  59.284 -53.629  1.00  0.00     0.070 C 
HETATM   11  H   UNL     1     -42.371  61.270 -55.171  1.00  0.00     0.184 HD
ENDROOT
BRANCH   1  12
HETATM   12  C   UNL     1     -42.488  56.678 -55.232  1.00  0.00     0.256 C 
HETATM   13  N   UNL     1     -41.261  56.106 -54.986  1.00  0.00    -0.323 N 
HETATM   14  H   UNL     1     -40.477  56.515 -55.479  1.00  0.00     0.169 HD
HETATM   15  O   UNL     1     -43.571  56.116 -55.144  1.00  0.00    -0.267 OA
BRANCH  13  16
HETATM   16  C   UNL     1     -40.963  54.937 -54.248  1.00  0.00     0.041 A 
HETATM   17  C   UNL     1     -41.043  54.785 -52.850  1.00  0.00    -0.035 A 
HETATM   18  C   UNL     1     -41.419  55.870 -51.880  1.00  0.00     0.050 C 
HETATM   19  C   UNL     1     -40.709  53.535 -52.285  1.00  0.00     0.009 A 
HETATM   20  C   UNL     1     -40.251  52.478 -53.066  1.00  0.00     0.001 A 
HETATM   21  C   UNL     1     -40.118  52.647 -54.436  1.00  0.00     0.002 A 
HETATM   22  C   UNL     1     -40.468  53.867 -55.018  1.00  0.00     0.030 A 
ENDBRANCH  13  16
ENDBRANCH   1  12
BRANCH   2  23
HETATM   23  C   UNL     1     -43.526  57.628 -58.089  1.00  0.00    -0.026 A 
HETATM   24  C   UNL     1     -43.521  56.495 -58.925  1.00  0.00     0.035 A 
HETATM   25  C   UNL     1     -44.682  56.092 -59.595  1.00  0.00     0.056 A 
HETATM   26 CL   UNL     1     -44.578  54.696 -60.609  1.00  0.00    -0.083 Cl
HETATM   27  C   UNL     1     -45.868  56.814 -59.433  1.00  0.00     0.055 A 
HETATM   28 CL   UNL     1     -47.337  56.379 -60.230  1.00  0.00    -0.083 Cl
HETATM   29  C   UNL     1     -45.887  57.935 -58.600  1.00  0.00     0.026 A 
HETATM   30  C   UNL     1     -44.726  58.339 -57.932  1.00  0.00     0.011 A 
ENDBRANCH   2  23
BRANCH   7  31
HETATM   31  C   UNL     1     -41.381  61.933 -60.217  1.00  0.00     0.085 C 
BRANCH  31  32
HETATM   32  C   UNL     1     -40.082  62.739 -60.196  1.00  0.00     0.034 C 
BRANCH  32  33
HETATM   33  C   UNL     1     -39.622  63.170 -61.586  1.00  0.00     0.164 C 
BRANCH  33  34
HETATM   34  O   UNL     1     -40.112  62.253 -62.557  1.00  0.00    -0.401 OA
HETATM   35  H   UNL     1     -40.443  62.768 -63.312  1.00  0.00     0.209 HD
ENDBRANCH  33  34
ENDBRANCH  32  33
ENDBRANCH  31  32
ENDBRANCH   7  31
TORSDOF 7
ENDMDL
MODEL 3
REMARK VINA RESULT:      -7.9      3.735      5.422
REMARK  7 active torsions:
REMARK  status: ('A' for Active; 'I' for Inactive)
REMARK    1  A    between atoms: C_3  and  N_4 
REMARK       I    between atoms: N_4  and  C_5 
REMARK    2  A    between atoms: C_5  and  C_6 
REMARK    3  A    between atoms: C_7  and  C_8 
REMARK    4  A    between atoms: C_20  and  C_21 
REMARK    5  A    between atoms: C_21  and  C_22 
REMARK    6  A    between atoms: C_22  and  C_23 
REMARK    7  A    between atoms: C_23  and  O_24 
ROOT
HETATM    1  C   UNL     1     -42.569  55.462 -54.292  1.00  0.00     0.062 C 
HETATM    2  C   UNL     1     -43.694  56.503 -54.303  1.00  0.00     0.202 C 
HETATM    3  N   UNL     1     -43.925  57.014 -55.659  1.00  0.00    -0.083 N 
HETATM    4  C   UNL     1     -43.067  56.815 -56.703  1.00  0.00     0.726 A 
HETATM    5  N   UNL     1     -42.000  56.014 -56.535  1.00  0.00    -0.192 N 
HETATM    6  N   UNL     1     -44.942  57.831 -56.006  1.00  0.00    -0.140 NA
HETATM    7  C   UNL     1     -44.589  58.147 -57.261  1.00  0.00     0.166 A 
HETATM    8  N   UNL     1     -43.460  57.518 -57.733  1.00  0.00    -0.046 NA
HETATM    9  C   UNL     1     -41.746  55.310 -55.364  1.00  0.00     0.037 C 
HETATM   10  C   UNL     1     -40.505  54.452 -55.389  1.00  0.00     0.070 C 
HETATM   11  H   UNL     1     -41.362  55.888 -57.317  1.00  0.00     0.184 HD
ENDROOT
BRANCH   1  12
HETATM   12  C   UNL     1     -42.457  54.680 -53.022  1.00  0.00     0.256 C 
HETATM   13  N   UNL     1     -41.300  54.921 -52.318  1.00  0.00    -0.323 N 
HETATM   14  H   UNL     1     -40.543  55.342 -52.843  1.00  0.00     0.169 HD
HETATM   15  O   UNL     1     -43.283  53.814 -52.769  1.00  0.00    -0.267 OA
BRANCH  13  16
HETATM   16  C   UNL     1     -40.972  54.534 -50.998  1.00  0.00     0.041 A 
HETATM   17  C   UNL     1     -40.362  53.326 -50.606  1.00  0.00    -0.035 A 
HETATM   18  C   UNL     1     -39.989  52.202 -51.533  1.00  0.00     0.050 C 
HETATM   19  C   UNL     1     -40.105  53.111 -49.235  1.00  0.00     0.009 A 
HETATM   20  C   UNL     1     -40.491  54.032 -48.265  1.00  0.00     0.001 A 
HETATM   21  C   UNL     1     -41.143  55.194 -48.647  1.00  0.00     0.002 A 
HETATM   22  C   UNL     1     -41.383  55.438 -50.000  1.00  0.00     0.030 A 
ENDBRANCH  13  16
ENDBRANCH   1  12
BRANCH   2  23
HETATM   23  C   UNL     1     -43.435  57.691 -53.371  1.00  0.00    -0.026 A 
HETATM   24  C   UNL     1     -44.365  58.073 -52.387  1.00  0.00     0.035 A 
HETATM   25  C   UNL     1     -44.112  59.160 -51.543  1.00  0.00     0.056 A 
HETATM   26 CL   UNL     1     -45.317  59.563 -50.371  1.00  0.00    -0.083 Cl
HETATM   27  C   UNL     1     -42.919  59.878 -51.668  1.00  0.00     0.055 A 
HETATM   28 CL   UNL     1     -42.540  61.232 -50.665  1.00  0.00    -0.083 Cl
HETATM   29  C   UNL     1     -41.985  59.504 -52.637  1.00  0.00     0.026 A 
HETATM   30  C   UNL     1     -42.239  58.419 -53.481  1.00  0.00     0.011 A 
ENDBRANCH   2  23
BRANCH   7  31
HETATM   31  C   UNL     1     -45.299  59.179 -58.059  1.00  0.00     0.085 C 
BRANCH  31  32
HETATM   32  C   UNL     1     -46.656  58.697 -58.574  1.00  0.00     0.034 C 
BRANCH  32  33
HETATM   33  C   UNL     1     -46.541  57.671 -59.697  1.00  0.00     0.164 C 
BRANCH  33  34
HETATM   34  O   UNL     1     -47.022  56.411 -59.245  1.00  0.00    -0.401 OA
HETATM   35  H   UNL     1     -46.258  55.888 -58.951  1.00  0.00     0.209 HD
ENDBRANCH  33  34
ENDBRANCH  32  33
ENDBRANCH  31  32
ENDBRANCH   7  31
TORSDOF 7
ENDMDL
MODEL 4
REMARK VINA RESULT:      -7.7      2.764      3.912
REMARK  7 active torsions:
REMARK  status: ('A' for Active; 'I' for Inactive)
REMARK    1  A    between atoms: C_3  and  N_4 
REMARK       I    between atoms: N_4  and  C_5 
REMARK    2  A    between atoms: C_5  and  C_6 
REMARK    3  A    between atoms: C_7  and  C_8 
REMARK    4  A    between atoms: C_20  and  C_21 
REMARK    5  A    between atoms: C_21  and  C_22 
REMARK    6  A    between atoms: C_22  and  C_23 
REMARK    7  A    between atoms: C_23  and  O_24 
ROOT
HETATM    1  C   UNL     1     -43.118  56.548 -52.324  1.00  0.00     0.062 C 
HETATM    2  C   UNL     1     -42.727  57.768 -53.166  1.00  0.00     0.202 C 
HETATM    3  N   UNL     1     -42.965  59.014 -52.427  1.00  0.00    -0.083 N 
HETATM    4  C   UNL     1     -43.702  59.089 -51.280  1.00  0.00     0.726 A 
HETATM    5  N   UNL     1     -44.152  57.957 -50.711  1.00  0.00    -0.192 N 
HETATM    6  N   UNL     1     -42.586  60.239 -52.850  1.00  0.00    -0.140 NA
HETATM    7  C   UNL     1     -43.197  61.014 -51.943  1.00  0.00     0.166 A 
HETATM    8  N   UNL     1     -43.867  60.343 -50.947  1.00  0.00    -0.046 NA
HETATM    9  C   UNL     1     -43.853  56.687 -51.190  1.00  0.00     0.037 C 
HETATM   10  C   UNL     1     -44.442  55.548 -50.393  1.00  0.00     0.070 C 
HETATM   11  H   UNL     1     -44.713  58.030 -49.866  1.00  0.00     0.184 HD
ENDROOT
BRANCH   1  12
HETATM   12  C   UNL     1     -42.647  55.238 -52.873  1.00  0.00     0.256 C 
HETATM   13  N   UNL     1     -41.354  54.921 -52.529  1.00  0.00    -0.323 N 
HETATM   14  H   UNL     1     -40.778  55.693 -52.217  1.00  0.00     0.169 HD
HETATM   15  O   UNL     1     -43.347  54.629 -53.670  1.00  0.00    -0.267 OA
BRANCH  13  16
HETATM   16  C   UNL     1     -40.675  53.690 -52.685  1.00  0.00     0.041 A 
HETATM   17  C   UNL     1     -40.217  53.132 -53.894  1.00  0.00    -0.035 A 
HETATM   18  C   UNL     1     -40.414  53.737 -55.257  1.00  0.00     0.050 C 
HETATM   19  C   UNL     1     -39.552  51.887 -53.857  1.00  0.00     0.009 A 
HETATM   20  C   UNL     1     -39.392  51.178 -52.670  1.00  0.00     0.001 A 
HETATM   21  C   UNL     1     -39.894  51.701 -51.489  1.00  0.00     0.002 A 
HETATM   22  C   UNL     1     -40.532  52.943 -51.499  1.00  0.00     0.030 A 
ENDBRANCH  13  16
ENDBRANCH   1  12
BRANCH   2  23
HETATM   23  C   UNL     1     -43.466  57.847 -54.506  1.00  0.00    -0.026 A 
HETATM   24  C   UNL     1     -42.781  57.760 -55.732  1.00  0.00     0.035 A 
HETATM   25  C   UNL     1     -43.472  57.832 -56.947  1.00  0.00     0.056 A 
HETATM   26 CL   UNL     1     -42.545  57.727 -58.403  1.00  0.00    -0.083 Cl
HETATM   27  C   UNL     1     -44.861  57.987 -56.952  1.00  0.00     0.055 A 
HETATM   28 CL   UNL     1     -45.779  58.087 -58.411  1.00  0.00    -0.083 Cl
HETATM   29  C   UNL     1     -45.553  58.067 -55.741  1.00  0.00     0.026 A 
HETATM   30  C   UNL     1     -44.862  57.997 -54.527  1.00  0.00     0.011 A 
ENDBRANCH   2  23
BRANCH   7  31
HETATM   31  C   UNL     1     -43.244  62.495 -52.054  1.00  0.00     0.085 C 
BRANCH  31  32
HETATM   32  C   UNL     1     -44.118  62.972 -53.215  1.00  0.00     0.034 C 
BRANCH  32  33
HETATM   33  C   UNL     1     -43.308  63.494 -54.398  1.00  0.00     0.164 C 
BRANCH  33  34
HETATM   34  O   UNL     1     -42.794  62.398 -55.146  1.00  0.00    -0.401 OA
HETATM   35  H   UNL     1     -43.512  61.754 -55.262  1.00  0.00     0.209 HD
ENDBRANCH  33  34
ENDBRANCH  32  33
ENDBRANCH  31  32
ENDBRANCH   7  31
TORSDOF 7
ENDMDL
MODEL 5
REMARK VINA RESULT:      -7.4      4.091      5.459
REMARK  7 active torsions:
REMARK  status: ('A' for Active; 'I' for Inactive)
REMARK    1  A    between atoms: C_3  and  N_4 
REMARK       I    between atoms: N_4  and  C_5 
REMARK    2  A    between atoms: C_5  and  C_6 
REMARK    3  A    between atoms: C_7  and  C_8 
REMARK    4  A    between atoms: C_20  and  C_21 
REMARK    5  A    between atoms: C_21  and  C_22 
REMARK    6  A    between atoms: C_22  and  C_23 
REMARK    7  A    between atoms: C_23  and  O_24 
ROOT
HETATM    1  C   UNL     1     -43.240  56.415 -54.655  1.00  0.00     0.062 C 
HETATM    2  C   UNL     1     -43.522  57.578 -53.697  1.00  0.00     0.202 C 
HETATM    3  N   UNL     1     -44.117  58.715 -54.411  1.00  0.00    -0.083 N 
HETATM    4  C   UNL     1     -44.138  58.831 -55.772  1.00  0.00     0.726 A 
HETATM    5  N   UNL     1     -43.698  57.810 -56.527  1.00  0.00    -0.192 N 
HETATM    6  N   UNL     1     -44.604  59.823 -53.814  1.00  0.00    -0.140 NA
HETATM    7  C   UNL     1     -44.833  60.600 -54.883  1.00  0.00     0.166 A 
HETATM    8  N   UNL     1     -44.587  60.014 -56.103  1.00  0.00    -0.046 NA
HETATM    9  C   UNL     1     -43.277  56.594 -56.002  1.00  0.00     0.037 C 
HETATM   10  C   UNL     1     -42.840  55.572 -57.024  1.00  0.00     0.070 C 
HETATM   11  H   UNL     1     -43.706  57.917 -57.538  1.00  0.00     0.184 HD
ENDROOT
BRANCH   1  12
HETATM   12  C   UNL     1     -42.907  55.122 -53.981  1.00  0.00     0.256 C 
HETATM   13  N   UNL     1     -41.575  54.784 -54.048  1.00  0.00    -0.323 N 
HETATM   14  H   UNL     1     -41.036  55.254 -54.765  1.00  0.00     0.169 HD
HETATM   15  O   UNL     1     -43.807  54.409 -53.560  1.00  0.00    -0.267 OA
BRANCH  13  16
HETATM   16  C   UNL     1     -40.885  53.768 -53.348  1.00  0.00     0.041 A 
HETATM   17  C   UNL     1     -40.561  53.765 -51.977  1.00  0.00    -0.035 A 
HETATM   18  C   UNL     1     -40.856  54.882 -51.015  1.00  0.00     0.050 C 
HETATM   19  C   UNL     1     -39.868  52.655 -51.447  1.00  0.00     0.009 A 
HETATM   20  C   UNL     1     -39.451  51.600 -52.253  1.00  0.00     0.001 A 
HETATM   21  C   UNL     1     -39.720  51.631 -53.613  1.00  0.00     0.002 A 
HETATM   22  C   UNL     1     -40.427  52.706 -54.153  1.00  0.00     0.030 A 
ENDBRANCH  13  16
ENDBRANCH   1  12
BRANCH   2  23
HETATM   23  C   UNL     1     -42.278  58.069 -52.950  1.00  0.00    -0.026 A 
HETATM   24  C   UNL     1     -42.320  58.390 -51.580  1.00  0.00     0.035 A 
HETATM   25  C   UNL     1     -41.174  58.836 -50.912  1.00  0.00     0.056 A 
HETATM   26 CL   UNL     1     -41.322  59.218 -49.233  1.00  0.00    -0.083 Cl
HETATM   27  C   UNL     1     -39.966  58.960 -51.605  1.00  0.00     0.055 A 
HETATM   28 CL   UNL     1     -38.513  59.507 -50.848  1.00  0.00    -0.083 Cl
HETATM   29  C   UNL     1     -39.911  58.638 -52.963  1.00  0.00     0.026 A 
HETATM   30  C   UNL     1     -41.056  58.194 -53.630  1.00  0.00     0.011 A 
ENDBRANCH   2  23
BRANCH   7  31
HETATM   31  C   UNL     1     -45.225  62.028 -54.769  1.00  0.00     0.085 C 
BRANCH  31  32
HETATM   32  C   UNL     1     -45.833  62.366 -53.407  1.00  0.00     0.034 C 
BRANCH  32  33
HETATM   33  C   UNL     1     -44.914  63.215 -52.534  1.00  0.00     0.164 C 
BRANCH  33  34
HETATM   34  O   UNL     1     -43.656  62.565 -52.389  1.00  0.00    -0.401 OA
HETATM   35  H   UNL     1     -42.961  63.215 -52.585  1.00  0.00     0.209 HD
ENDBRANCH  33  34
ENDBRANCH  32  33
ENDBRANCH  31  32
ENDBRANCH   7  31
TORSDOF 7
ENDMDL
MODEL 6
REMARK VINA RESULT:      -7.3      4.564      7.812
REMARK  7 active torsions:
REMARK  status: ('A' for Active; 'I' for Inactive)
REMARK    1  A    between atoms: C_3  and  N_4 
REMARK       I    between atoms: N_4  and  C_5 
REMARK    2  A    between atoms: C_5  and  C_6 
REMARK    3  A    between atoms: C_7  and  C_8 
REMARK    4  A    between atoms: C_20  and  C_21 
REMARK    5  A    between atoms: C_21  and  C_22 
REMARK    6  A    between atoms: C_22  and  C_23 
REMARK    7  A    between atoms: C_23  and  O_24 
ROOT
HETATM    1  C   UNL     1     -44.220  59.990 -53.171  1.00  0.00     0.062 C 
HETATM    2  C   UNL     1     -44.640  59.362 -51.836  1.00  0.00     0.202 C 
HETATM    3  N   UNL     1     -44.643  60.363 -50.763  1.00  0.00    -0.083 N 
HETATM    4  C   UNL     1     -44.071  61.599 -50.873  1.00  0.00     0.726 A 
HETATM    5  N   UNL     1     -43.568  61.988 -52.057  1.00  0.00    -0.192 N 
HETATM    6  N   UNL     1     -45.104  60.143 -49.513  1.00  0.00    -0.140 NA
HETATM    7  C   UNL     1     -44.707  61.268 -48.901  1.00  0.00     0.166 A 
HETATM    8  N   UNL     1     -44.096  62.197 -49.711  1.00  0.00    -0.046 NA
HETATM    9  C   UNL     1     -43.655  61.225 -53.216  1.00  0.00     0.037 C 
HETATM   10  C   UNL     1     -43.044  61.854 -54.444  1.00  0.00     0.070 C 
HETATM   11  H   UNL     1     -43.132  62.904 -52.120  1.00  0.00     0.184 HD
ENDROOT
BRANCH   1  12
HETATM   12  C   UNL     1     -44.462  59.125 -54.367  1.00  0.00     0.256 C 
HETATM   13  N   UNL     1     -43.321  58.564 -54.891  1.00  0.00    -0.323 N 
HETATM   14  H   UNL     1     -42.450  59.007 -54.626  1.00  0.00     0.169 HD
HETATM   15  O   UNL     1     -45.577  59.086 -54.870  1.00  0.00    -0.267 OA
BRANCH  13  16
HETATM   16  C   UNL     1     -43.205  57.543 -55.863  1.00  0.00     0.041 A 
HETATM   17  C   UNL     1     -43.033  56.167 -55.616  1.00  0.00    -0.035 A 
HETATM   18  C   UNL     1     -42.895  55.540 -54.256  1.00  0.00     0.050 C 
HETATM   19  C   UNL     1     -42.940  55.288 -56.717  1.00  0.00     0.009 A 
HETATM   20  C   UNL     1     -42.955  55.754 -58.029  1.00  0.00     0.001 A 
HETATM   21  C   UNL     1     -43.066  57.115 -58.269  1.00  0.00     0.002 A 
HETATM   22  C   UNL     1     -43.186  57.999 -57.195  1.00  0.00     0.030 A 
ENDBRANCH  13  16
ENDBRANCH   1  12
BRANCH   2  23
HETATM   23  C   UNL     1     -43.751  58.190 -51.407  1.00  0.00    -0.026 A 
HETATM   24  C   UNL     1     -44.292  56.928 -51.102  1.00  0.00     0.035 A 
HETATM   25  C   UNL     1     -43.466  55.867 -50.713  1.00  0.00     0.056 A 
HETATM   26 CL   UNL     1     -44.221  54.356 -50.346  1.00  0.00    -0.083 Cl
HETATM   27  C   UNL     1     -42.083  56.053 -50.630  1.00  0.00     0.055 A 
HETATM   28 CL   UNL     1     -41.003  54.793 -50.153  1.00  0.00    -0.083 Cl
HETATM   29  C   UNL     1     -41.534  57.300 -50.937  1.00  0.00     0.026 A 
HETATM   30  C   UNL     1     -42.359  58.360 -51.324  1.00  0.00     0.011 A 
ENDBRANCH   2  23
BRANCH   7  31
HETATM   31  C   UNL     1     -44.818  61.466 -47.433  1.00  0.00     0.085 C 
BRANCH  31  32
HETATM   32  C   UNL     1     -46.249  61.292 -46.921  1.00  0.00     0.034 C 
BRANCH  32  33
HETATM   33  C   UNL     1     -46.446  60.010 -46.118  1.00  0.00     0.164 C 
BRANCH  33  34
HETATM   34  O   UNL     1     -46.659  58.917 -47.006  1.00  0.00    -0.401 OA
HETATM   35  H   UNL     1     -46.784  59.280 -47.898  1.00  0.00     0.209 HD
ENDBRANCH  33  34
ENDBRANCH  32  33
ENDBRANCH  31  32
ENDBRANCH   7  31
TORSDOF 7
ENDMDL
MODEL 7
REMARK VINA RESULT:      -7.3      3.625      7.534
REMARK  7 active torsions:
REMARK  status: ('A' for Active; 'I' for Inactive)
REMARK    1  A    between atoms: C_3  and  N_4 
REMARK       I    between atoms: N_4  and  C_5 
REMARK    2  A    between atoms: C_5  and  C_6 
REMARK    3  A    between atoms: C_7  and  C_8 
REMARK    4  A    between atoms: C_20  and  C_21 
REMARK    5  A    between atoms: C_21  and  C_22 
REMARK    6  A    between atoms: C_22  and  C_23 
REMARK    7  A    between atoms: C_23  and  O_24 
ROOT
HETATM    1  C   UNL     1     -43.087  57.057 -51.703  1.00  0.00     0.062 C 
HETATM    2  C   UNL     1     -43.436  56.116 -52.862  1.00  0.00     0.202 C 
HETATM    3  N   UNL     1     -42.472  55.014 -52.953  1.00  0.00    -0.083 N 
HETATM    4  C   UNL     1     -41.274  54.994 -52.295  1.00  0.00     0.726 A 
HETATM    5  N   UNL     1     -40.988  55.974 -51.420  1.00  0.00    -0.192 N 
HETATM    6  N   UNL     1     -42.597  53.953 -53.779  1.00  0.00    -0.140 NA
HETATM    7  C   UNL     1     -41.399  53.373 -53.621  1.00  0.00     0.166 A 
HETATM    8  N   UNL     1     -40.572  53.967 -52.696  1.00  0.00    -0.046 NA
HETATM    9  C   UNL     1     -41.877  56.989 -51.087  1.00  0.00     0.037 C 
HETATM   10  C   UNL     1     -41.366  57.978 -50.068  1.00  0.00     0.070 C 
HETATM   11  H   UNL     1     -40.087  55.954 -50.950  1.00  0.00     0.184 HD
ENDROOT
BRANCH   1  12
HETATM   12  C   UNL     1     -44.161  58.037 -51.353  1.00  0.00     0.256 C 
HETATM   13  N   UNL     1     -43.922  59.314 -51.806  1.00  0.00    -0.323 N 
HETATM   14  H   UNL     1     -42.962  59.524 -52.048  1.00  0.00     0.169 HD
HETATM   15  O   UNL     1     -45.067  57.700 -50.602  1.00  0.00    -0.267 OA
BRANCH  13  16
HETATM   16  C   UNL     1     -44.807  60.417 -51.846  1.00  0.00     0.041 A 
HETATM   17  C   UNL     1     -45.019  61.359 -50.821  1.00  0.00    -0.035 A 
HETATM   18  C   UNL     1     -44.367  61.328 -49.466  1.00  0.00     0.050 C 
HETATM   19  C   UNL     1     -45.944  62.403 -51.041  1.00  0.00     0.009 A 
HETATM   20  C   UNL     1     -46.686  62.487 -52.216  1.00  0.00     0.001 A 
HETATM   21  C   UNL     1     -46.518  61.526 -53.201  1.00  0.00     0.002 A 
HETATM   22  C   UNL     1     -45.589  60.500 -53.014  1.00  0.00     0.030 A 
ENDBRANCH  13  16
ENDBRANCH   1  12
BRANCH   2  23
HETATM   23  C   UNL     1     -43.502  56.820 -54.221  1.00  0.00    -0.026 A 
HETATM   24  C   UNL     1     -44.730  57.162 -54.816  1.00  0.00     0.035 A 
HETATM   25  C   UNL     1     -44.772  57.807 -56.058  1.00  0.00     0.056 A 
HETATM   26 CL   UNL     1     -46.327  58.177 -56.716  1.00  0.00    -0.083 Cl
HETATM   27  C   UNL     1     -43.583  58.125 -56.720  1.00  0.00     0.055 A 
HETATM   28 CL   UNL     1     -43.557  58.915 -58.255  1.00  0.00    -0.083 Cl
HETATM   29  C   UNL     1     -42.357  57.797 -56.136  1.00  0.00     0.026 A 
HETATM   30  C   UNL     1     -42.315  57.151 -54.896  1.00  0.00     0.011 A 
ENDBRANCH   2  23
BRANCH   7  31
HETATM   31  C   UNL     1     -40.943  52.231 -54.454  1.00  0.00     0.085 C 
BRANCH  31  32
HETATM   32  C   UNL     1     -39.824  51.427 -53.792  1.00  0.00     0.034 C 
BRANCH  32  33
HETATM   33  C   UNL     1     -39.690  50.013 -54.349  1.00  0.00     0.164 C 
BRANCH  33  34
HETATM   34  O   UNL     1     -39.456  49.099 -53.284  1.00  0.00    -0.401 OA
HETATM   35  H   UNL     1     -39.257  48.232 -53.675  1.00  0.00     0.209 HD
ENDBRANCH  33  34
ENDBRANCH  32  33
ENDBRANCH  31  32
ENDBRANCH   7  31
TORSDOF 7
ENDMDL
MODEL 8
REMARK VINA RESULT:      -7.2      3.458      5.562
REMARK  7 active torsions:
REMARK  status: ('A' for Active; 'I' for Inactive)
REMARK    1  A    between atoms: C_3  and  N_4 
REMARK       I    between atoms: N_4  and  C_5 
REMARK    2  A    between atoms: C_5  and  C_6 
REMARK    3  A    between atoms: C_7  and  C_8 
REMARK    4  A    between atoms: C_20  and  C_21 
REMARK    5  A    between atoms: C_21  and  C_22 
REMARK    6  A    between atoms: C_22  and  C_23 
REMARK    7  A    between atoms: C_23  and  O_24 
ROOT
HETATM    1  C   UNL     1     -43.137  56.833 -51.824  1.00  0.00     0.062 C 
HETATM    2  C   UNL     1     -43.254  58.248 -52.403  1.00  0.00     0.202 C 
HETATM    3  N   UNL     1     -44.271  59.027 -51.685  1.00  0.00    -0.083 N 
HETATM    4  C   UNL     1     -45.184  58.480 -50.829  1.00  0.00     0.726 A 
HETATM    5  N   UNL     1     -45.098  57.174 -50.521  1.00  0.00    -0.192 N 
HETATM    6  N   UNL     1     -44.499  60.344 -51.871  1.00  0.00    -0.140 NA
HETATM    7  C   UNL     1     -45.616  60.508 -51.149  1.00  0.00     0.166 A 
HETATM    8  N   UNL     1     -46.049  59.392 -50.471  1.00  0.00    -0.046 NA
HETATM    9  C   UNL     1     -44.079  56.344 -50.975  1.00  0.00     0.037 C 
HETATM   10  C   UNL     1     -44.156  54.915 -50.497  1.00  0.00     0.070 C 
HETATM   11  H   UNL     1     -45.793  56.777 -49.894  1.00  0.00     0.184 HD
ENDROOT
BRANCH   1  12
HETATM   12  C   UNL     1     -41.941  56.068 -52.293  1.00  0.00     0.256 C 
HETATM   13  N   UNL     1     -42.053  54.705 -52.139  1.00  0.00    -0.323 N 
HETATM   14  H   UNL     1     -42.758  54.393 -51.482  1.00  0.00     0.169 HD
HETATM   15  O   UNL     1     -40.931  56.670 -52.633  1.00  0.00    -0.267 OA
BRANCH  13  16
HETATM   16  C   UNL     1     -41.226  53.685 -52.664  1.00  0.00     0.041 A 
HETATM   17  C   UNL     1     -41.108  53.316 -54.017  1.00  0.00    -0.035 A 
HETATM   18  C   UNL     1     -41.887  53.920 -55.153  1.00  0.00     0.050 C 
HETATM   19  C   UNL     1     -40.223  52.270 -54.359  1.00  0.00     0.009 A 
HETATM   20  C   UNL     1     -39.516  51.564 -53.389  1.00  0.00     0.001 A 
HETATM   21  C   UNL     1     -39.677  51.891 -52.052  1.00  0.00     0.002 A 
HETATM   22  C   UNL     1     -40.527  52.939 -51.695  1.00  0.00     0.030 A 
ENDBRANCH  13  16
ENDBRANCH   1  12
BRANCH   2  23
HETATM   23  C   UNL     1     -43.589  58.271 -53.898  1.00  0.00    -0.026 A 
HETATM   24  C   UNL     1     -42.699  58.810 -54.844  1.00  0.00     0.035 A 
HETATM   25  C   UNL     1     -43.019  58.821 -56.207  1.00  0.00     0.056 A 
HETATM   26 CL   UNL     1     -41.869  59.514 -57.295  1.00  0.00    -0.083 Cl
HETATM   27  C   UNL     1     -44.235  58.286 -56.642  1.00  0.00     0.055 A 
HETATM   28 CL   UNL     1     -44.700  58.268 -58.306  1.00  0.00    -0.083 Cl
HETATM   29  C   UNL     1     -45.124  57.741 -55.712  1.00  0.00     0.026 A 
HETATM   30  C   UNL     1     -44.804  57.732 -54.351  1.00  0.00     0.011 A 
ENDBRANCH   2  23
BRANCH   7  31
HETATM   31  C   UNL     1     -46.399  61.770 -51.155  1.00  0.00     0.085 C 
BRANCH  31  32
HETATM   32  C   UNL     1     -45.981  62.728 -50.038  1.00  0.00     0.034 C 
BRANCH  32  33
HETATM   33  C   UNL     1     -46.907  62.676 -48.826  1.00  0.00     0.164 C 
BRANCH  33  34
HETATM   34  O   UNL     1     -46.638  61.501 -48.069  1.00  0.00    -0.401 OA
HETATM   35  H   UNL     1     -46.063  60.929 -48.603  1.00  0.00     0.209 HD
ENDBRANCH  33  34
ENDBRANCH  32  33
ENDBRANCH  31  32
ENDBRANCH   7  31
TORSDOF 7
ENDMDL
MODEL 9
REMARK VINA RESULT:      -7.1     17.093     20.235
REMARK  7 active torsions:
REMARK  status: ('A' for Active; 'I' for Inactive)
REMARK    1  A    between atoms: C_3  and  N_4 
REMARK       I    between atoms: N_4  and  C_5 
REMARK    2  A    between atoms: C_5  and  C_6 
REMARK    3  A    between atoms: C_7  and  C_8 
REMARK    4  A    between atoms: C_20  and  C_21 
REMARK    5  A    between atoms: C_21  and  C_22 
REMARK    6  A    between atoms: C_22  and  C_23 
REMARK    7  A    between atoms: C_23  and  O_24 
ROOT
HETATM    1  C   UNL     1     -36.325  40.268 -56.027  1.00  0.00     0.062 C 
HETATM    2  C   UNL     1     -35.402  39.651 -54.969  1.00  0.00     0.202 C 
HETATM    3  N   UNL     1     -35.370  40.474 -53.755  1.00  0.00    -0.083 N 
HETATM    4  C   UNL     1     -35.854  41.751 -53.688  1.00  0.00     0.726 A 
HETATM    5  N   UNL     1     -36.503  42.265 -54.747  1.00  0.00    -0.192 N 
HETATM    6  N   UNL     1     -34.762  40.118 -52.604  1.00  0.00    -0.140 NA
HETATM    7  C   UNL     1     -34.854  41.261 -51.909  1.00  0.00     0.166 A 
HETATM    8  N   UNL     1     -35.544  42.276 -52.531  1.00  0.00    -0.046 NA
HETATM    9  C   UNL     1     -36.775  41.545 -55.904  1.00  0.00     0.037 C 
HETATM   10  C   UNL     1     -37.531  42.303 -56.967  1.00  0.00     0.070 C 
HETATM   11  H   UNL     1     -36.844  43.221 -54.688  1.00  0.00     0.184 HD
ENDROOT
BRANCH   1  12
HETATM   12  C   UNL     1     -36.645  39.364 -57.175  1.00  0.00     0.256 C 
HETATM   13  N   UNL     1     -36.287  39.872 -58.402  1.00  0.00    -0.323 N 
HETATM   14  H   UNL     1     -36.134  40.872 -58.438  1.00  0.00     0.169 HD
HETATM   15  O   UNL     1     -37.300  38.349 -56.983  1.00  0.00    -0.267 OA
BRANCH  13  16
HETATM   16  C   UNL     1     -36.240  39.212 -59.652  1.00  0.00     0.041 A 
HETATM   17  C   UNL     1     -35.329  38.209 -60.036  1.00  0.00    -0.035 A 
HETATM   18  C   UNL     1     -34.200  37.691 -59.188  1.00  0.00     0.050 C 
HETATM   19  C   UNL     1     -35.436  37.657 -61.332  1.00  0.00     0.009 A 
HETATM   20  C   UNL     1     -36.377  38.119 -62.248  1.00  0.00     0.001 A 
HETATM   21  C   UNL     1     -37.235  39.146 -61.888  1.00  0.00     0.002 A 
HETATM   22  C   UNL     1     -37.163  39.687 -60.603  1.00  0.00     0.030 A 
ENDBRANCH  13  16
ENDBRANCH   1  12
BRANCH   2  23
HETATM   23  C   UNL     1     -33.964  39.449 -55.458  1.00  0.00    -0.026 A 
HETATM   24  C   UNL     1     -33.237  38.285 -55.148  1.00  0.00     0.035 A 
HETATM   25  C   UNL     1     -31.924  38.116 -55.603  1.00  0.00     0.056 A 
HETATM   26 CL   UNL     1     -31.105  36.659 -55.162  1.00  0.00    -0.083 Cl
HETATM   27  C   UNL     1     -31.322  39.107 -56.383  1.00  0.00     0.055 A 
HETATM   28 CL   UNL     1     -29.707  38.969 -56.977  1.00  0.00    -0.083 Cl
HETATM   29  C   UNL     1     -32.037  40.264 -56.704  1.00  0.00     0.026 A 
HETATM   30  C   UNL     1     -33.347  40.434 -56.247  1.00  0.00     0.011 A 
ENDBRANCH   2  23
BRANCH   7  31
HETATM   31  C   UNL     1     -34.174  41.466 -50.605  1.00  0.00     0.085 C 
BRANCH  31  32
HETATM   32  C   UNL     1     -33.459  40.208 -50.109  1.00  0.00     0.034 C 
BRANCH  32  33
HETATM   33  C   UNL     1     -31.989  40.157 -50.510  1.00  0.00     0.164 C 
BRANCH  33  34
HETATM   34  O   UNL     1     -31.214  39.656 -49.427  1.00  0.00    -0.401 OA
HETATM   35  H   UNL     1     -30.986  38.732 -49.626  1.00  0.00     0.209 HD
ENDBRANCH  33  34
ENDBRANCH  32  33
ENDBRANCH  31  32
ENDBRANCH   7  31
TORSDOF 7
ENDMDL
MODEL 10
REMARK VINA RESULT:      -7.0      4.408      6.662
REMARK  7 active torsions:
REMARK  status: ('A' for Active; 'I' for Inactive)
REMARK    1  A    between atoms: C_3  and  N_4 
REMARK       I    between atoms: N_4  and  C_5 
REMARK    2  A    between atoms: C_5  and  C_6 
REMARK    3  A    between atoms: C_7  and  C_8 
REMARK    4  A    between atoms: C_20  and  C_21 
REMARK    5  A    between atoms: C_21  and  C_22 
REMARK    6  A    between atoms: C_22  and  C_23 
REMARK    7  A    between atoms: C_23  and  O_24 
ROOT
HETATM    1  C   UNL     1     -44.659  57.797 -53.944  1.00  0.00     0.062 C 
HETATM    2  C   UNL     1     -44.629  58.205 -52.466  1.00  0.00     0.202 C 
HETATM    3  N   UNL     1     -45.400  59.434 -52.245  1.00  0.00    -0.083 N 
HETATM    4  C   UNL     1     -45.829  60.255 -53.249  1.00  0.00     0.726 A 
HETATM    5  N   UNL     1     -45.646  59.881 -54.528  1.00  0.00    -0.192 N 
HETATM    6  N   UNL     1     -45.674  59.957 -51.031  1.00  0.00    -0.140 NA
HETATM    7  C   UNL     1     -46.207  61.136 -51.383  1.00  0.00     0.166 A 
HETATM    8  N   UNL     1     -46.345  61.341 -52.736  1.00  0.00    -0.046 NA
HETATM    9  C   UNL     1     -45.098  58.659 -54.899  1.00  0.00     0.037 C 
HETATM   10  C   UNL     1     -44.998  58.428 -56.387  1.00  0.00     0.070 C 
HETATM   11  H   UNL     1     -45.957  60.509 -55.264  1.00  0.00     0.184 HD
ENDROOT
BRANCH   1  12
HETATM   12  C   UNL     1     -44.150  56.418 -54.218  1.00  0.00     0.256 C 
HETATM   13  N   UNL     1     -42.779  56.311 -54.187  1.00  0.00    -0.323 N 
HETATM   14  H   UNL     1     -42.267  57.180 -54.283  1.00  0.00     0.169 HD
HETATM   15  O   UNL     1     -44.929  55.545 -54.577  1.00  0.00    -0.267 OA
BRANCH  13  16
HETATM   16  C   UNL     1     -41.984  55.142 -54.183  1.00  0.00     0.041 A 
HETATM   17  C   UNL     1     -42.051  54.086 -53.253  1.00  0.00    -0.035 A 
HETATM   18  C   UNL     1     -42.962  54.039 -52.058  1.00  0.00     0.050 C 
HETATM   19  C   UNL     1     -41.175  52.989 -53.410  1.00  0.00     0.009 A 
HETATM   20  C   UNL     1     -40.216  52.957 -54.419  1.00  0.00     0.001 A 
HETATM   21  C   UNL     1     -40.113  54.023 -55.298  1.00  0.00     0.002 A 
HETATM   22  C   UNL     1     -40.987  55.105 -55.177  1.00  0.00     0.030 A 
ENDBRANCH  13  16
ENDBRANCH   1  12
BRANCH   2  23
HETATM   23  C   UNL     1     -43.213  58.413 -51.919  1.00  0.00    -0.026 A 
HETATM   24  C   UNL     1     -42.550  57.409 -51.190  1.00  0.00     0.035 A 
HETATM   25  C   UNL     1     -41.255  57.614 -50.699  1.00  0.00     0.056 A 
HETATM   26 CL   UNL     1     -40.524  56.328 -49.804  1.00  0.00    -0.083 Cl
HETATM   27  C   UNL     1     -40.602  58.827 -50.937  1.00  0.00     0.055 A 
HETATM   28 CL   UNL     1     -39.008  59.153 -50.359  1.00  0.00    -0.083 Cl
HETATM   29  C   UNL     1     -41.248  59.828 -51.666  1.00  0.00     0.026 A 
HETATM   30  C   UNL     1     -42.542  59.624 -52.155  1.00  0.00     0.011 A 
ENDBRANCH   2  23
BRANCH   7  31
HETATM   31  C   UNL     1     -46.532  62.197 -50.396  1.00  0.00     0.085 C 
BRANCH  31  32
HETATM   32  C   UNL     1     -46.030  61.869 -48.990  1.00  0.00     0.034 C 
BRANCH  32  33
HETATM   33  C   UNL     1     -44.534  62.114 -48.816  1.00  0.00     0.164 C 
BRANCH  33  34
HETATM   34  O   UNL     1     -43.843  60.869 -48.809  1.00  0.00    -0.401 OA
HETATM   35  H   UNL     1     -44.281  60.283 -49.449  1.00  0.00     0.209 HD
ENDBRANCH  33  34
ENDBRANCH  32  33
ENDBRANCH  31  32
ENDBRANCH   7  31
TORSDOF 7
ENDMDL
