MODEL 1
REMARK VINA RESULT:      -7.7      0.000      0.000
REMARK  8 active torsions:
REMARK  status: ('A' for Active; 'I' for Inactive)
REMARK    1  A    between atoms: C_6  and  O_7 
REMARK    2  A    between atoms: O_7  and  C_8 
REMARK    3  A    between atoms: C_8  and  C_9 
REMARK    4  A    between atoms: C_9  and  C_10 
REMARK    5  A    between atoms: C_10  and  C_11 
REMARK    6  A    between atoms: C_11  and  N_12 
REMARK       I    between atoms: N_12  and  C_13 
REMARK    7  A    between atoms: C_13  and  C_14 
REMARK    8  A    between atoms: C_18  and  C_19 
ROOT
HETATM    1  N   UNL     1     -42.394  58.559 -54.750  1.00  0.00    -0.345 N 
HETATM    2  C   UNL     1     -41.321  58.361 -53.918  1.00  0.00     0.270 C 
HETATM    3  O   UNL     1     -40.554  59.262 -53.592  1.00  0.00    -0.266 OA
HETATM    4  H   UNL     1     -42.973  57.781 -55.025  1.00  0.00     0.163 HD
ENDROOT
BRANCH   2   5
HETATM    5  C   UNL     1     -41.158  57.019 -53.429  1.00  0.00     0.120 A 
HETATM    6  N   UNL     1     -41.647  56.644 -52.209  1.00  0.00    -0.272 N 
HETATM    7  H   UNL     1     -42.136  57.235 -51.543  1.00  0.00     0.189 HD
HETATM    8  N   UNL     1     -41.447  55.353 -51.908  1.00  0.00    -0.174 NA
HETATM    9  C   UNL     1     -40.823  54.847 -52.983  1.00  0.00     0.089 A 
HETATM   10  C   UNL     1     -40.599  55.869 -53.949  1.00  0.00     0.071 A 
BRANCH   9  11
HETATM   11  C   UNL     1     -40.476  53.424 -53.066  1.00  0.00    -0.005 A 
HETATM   12  C   UNL     1     -39.967  52.735 -51.952  1.00  0.00     0.017 A 
HETATM   13  C   UNL     1     -39.623  51.383 -52.048  1.00  0.00     0.043 A 
HETATM   14  C   UNL     1     -39.787  50.716 -53.255  1.00  0.00     0.116 A 
HETATM   15  F   UNL     1     -39.454  49.423 -53.344  1.00  0.00    -0.206 F 
HETATM   16  C   UNL     1     -40.286  51.374 -54.371  1.00  0.00     0.043 A 
HETATM   17  C   UNL     1     -40.628  52.725 -54.276  1.00  0.00     0.017 A 
ENDBRANCH   9  11
ENDBRANCH   2   5
BRANCH   1  18
HETATM   18  C   UNL     1     -42.768  59.871 -55.203  1.00  0.00     0.217 C 
BRANCH  18  19
HETATM   19  C   UNL     1     -42.425  60.040 -56.674  1.00  0.00    -0.085 C 
BRANCH  19  20
HETATM   20  C   UNL     1     -42.130  60.186 -57.935  1.00  0.00    -0.078 C 
BRANCH  20  21
HETATM   21  C   UNL     1     -41.798  60.336 -59.359  1.00  0.00     0.269 C 
BRANCH  21  22
HETATM   22  O   UNL     1     -42.870  59.817 -60.143  1.00  0.00    -0.340 OA
BRANCH  22  23
HETATM   23  C   UNL     1     -43.091  58.469 -60.084  1.00  0.00     0.071 A 
HETATM   24  C   UNL     1     -44.434  58.096 -60.185  1.00  0.00     0.055 A 
HETATM   25  C   UNL     1     -44.794  56.749 -60.139  1.00  0.00     0.013 A 
HETATM   26  C   UNL     1     -43.821  55.763 -59.995  1.00  0.00     0.019 A 
HETATM   27 BR   UNL     1     -46.614  56.257 -60.273  1.00  0.00    -0.051 Br
HETATM   28  C   UNL     1     -42.479  56.131 -59.896  1.00  0.00     0.004 A 
HETATM   29  C   UNL     1     -42.114  57.481 -59.941  1.00  0.00     0.037 A 
ENDBRANCH  22  23
ENDBRANCH  21  22
ENDBRANCH  20  21
ENDBRANCH  19  20
ENDBRANCH  18  19
ENDBRANCH   1  18
TORSDOF 8
ENDMDL
MODEL 2
REMARK VINA RESULT:      -7.6      3.348      7.585
REMARK  8 active torsions:
REMARK  status: ('A' for Active; 'I' for Inactive)
REMARK    1  A    between atoms: C_6  and  O_7 
REMARK    2  A    between atoms: O_7  and  C_8 
REMARK    3  A    between atoms: C_8  and  C_9 
REMARK    4  A    between atoms: C_9  and  C_10 
REMARK    5  A    between atoms: C_10  and  C_11 
REMARK    6  A    between atoms: C_11  and  N_12 
REMARK       I    between atoms: N_12  and  C_13 
REMARK    7  A    between atoms: C_13  and  C_14 
REMARK    8  A    between atoms: C_18  and  C_19 
ROOT
HETATM    1  N   UNL     1     -42.489  58.828 -52.699  1.00  0.00    -0.345 N 
HETATM    2  C   UNL     1     -41.628  59.049 -53.744  1.00  0.00     0.270 C 
HETATM    3  O   UNL     1     -40.473  59.431 -53.587  1.00  0.00    -0.266 OA
HETATM    4  H   UNL     1     -43.444  58.556 -52.876  1.00  0.00     0.163 HD
ENDROOT
BRANCH   2   5
HETATM    5  C   UNL     1     -42.164  58.782 -55.052  1.00  0.00     0.120 A 
HETATM    6  N   UNL     1     -41.972  59.652 -56.088  1.00  0.00    -0.272 N 
HETATM    7  H   UNL     1     -41.476  60.538 -56.053  1.00  0.00     0.189 HD
HETATM    8  N   UNL     1     -42.502  59.249 -57.251  1.00  0.00    -0.174 NA
HETATM    9  C   UNL     1     -43.044  58.051 -56.981  1.00  0.00     0.089 A 
HETATM   10  C   UNL     1     -42.876  57.735 -55.602  1.00  0.00     0.071 A 
BRANCH   9  11
HETATM   11  C   UNL     1     -43.684  57.247 -58.027  1.00  0.00    -0.005 A 
HETATM   12  C   UNL     1     -44.953  57.585 -58.528  1.00  0.00     0.017 A 
HETATM   13  C   UNL     1     -45.560  56.800 -59.513  1.00  0.00     0.043 A 
HETATM   14  C   UNL     1     -44.902  55.679 -60.002  1.00  0.00     0.116 A 
HETATM   15  F   UNL     1     -45.488  54.929 -60.943  1.00  0.00    -0.206 F 
HETATM   16  C   UNL     1     -43.648  55.323 -59.523  1.00  0.00     0.043 A 
HETATM   17  C   UNL     1     -43.042  56.105 -58.537  1.00  0.00     0.017 A 
ENDBRANCH   9  11
ENDBRANCH   2   5
BRANCH   1  18
HETATM   18  C   UNL     1     -42.056  58.914 -51.330  1.00  0.00     0.217 C 
BRANCH  18  19
HETATM   19  C   UNL     1     -41.536  57.567 -50.855  1.00  0.00    -0.085 C 
BRANCH  19  20
HETATM   20  C   UNL     1     -41.092  56.412 -50.447  1.00  0.00    -0.078 C 
BRANCH  20  21
HETATM   21  C   UNL     1     -40.596  55.112 -49.973  1.00  0.00     0.269 C 
BRANCH  21  22
HETATM   22  O   UNL     1     -41.466  54.084 -50.445  1.00  0.00    -0.340 OA
BRANCH  22  23
HETATM   23  C   UNL     1     -41.187  53.545 -51.670  1.00  0.00     0.071 A 
HETATM   24  C   UNL     1     -42.048  53.953 -52.693  1.00  0.00     0.055 A 
HETATM   25  C   UNL     1     -41.871  53.476 -53.991  1.00  0.00     0.013 A 
HETATM   26  C   UNL     1     -40.836  52.592 -54.284  1.00  0.00     0.019 A 
HETATM   27 BR   UNL     1     -43.044  54.034 -55.366  1.00  0.00    -0.051 Br
HETATM   28  C   UNL     1     -39.974  52.183 -53.267  1.00  0.00     0.004 A 
HETATM   29  C   UNL     1     -40.148  52.658 -51.962  1.00  0.00     0.037 A 
ENDBRANCH  22  23
ENDBRANCH  21  22
ENDBRANCH  20  21
ENDBRANCH  19  20
ENDBRANCH  18  19
ENDBRANCH   1  18
TORSDOF 8
ENDMDL
MODEL 3
REMARK VINA RESULT:      -7.6      2.441      3.006
REMARK  8 active torsions:
REMARK  status: ('A' for Active; 'I' for Inactive)
REMARK    1  A    between atoms: C_6  and  O_7 
REMARK    2  A    between atoms: O_7  and  C_8 
REMARK    3  A    between atoms: C_8  and  C_9 
REMARK    4  A    between atoms: C_9  and  C_10 
REMARK    5  A    between atoms: C_10  and  C_11 
REMARK    6  A    between atoms: C_11  and  N_12 
REMARK       I    between atoms: N_12  and  C_13 
REMARK    7  A    between atoms: C_13  and  C_14 
REMARK    8  A    between atoms: C_18  and  C_19 
ROOT
HETATM    1  N   UNL     1     -43.982  56.850 -54.581  1.00  0.00    -0.345 N 
HETATM    2  C   UNL     1     -42.788  56.741 -55.248  1.00  0.00     0.270 C 
HETATM    3  O   UNL     1     -42.389  57.584 -56.044  1.00  0.00    -0.266 OA
HETATM    4  H   UNL     1     -44.290  56.112 -53.967  1.00  0.00     0.163 HD
ENDROOT
BRANCH   2   5
HETATM    5  C   UNL     1     -42.013  55.569 -54.938  1.00  0.00     0.120 A 
HETATM    6  N   UNL     1     -41.039  55.119 -55.784  1.00  0.00    -0.272 N 
HETATM    7  H   UNL     1     -40.778  55.522 -56.679  1.00  0.00     0.189 HD
HETATM    8  N   UNL     1     -40.382  54.037 -55.342  1.00  0.00    -0.174 NA
HETATM    9  C   UNL     1     -40.925  53.777 -54.142  1.00  0.00     0.089 A 
HETATM   10  C   UNL     1     -41.973  54.702 -53.865  1.00  0.00     0.071 A 
BRANCH   9  11
HETATM   11  C   UNL     1     -40.431  52.683 -53.300  1.00  0.00    -0.005 A 
HETATM   12  C   UNL     1     -40.049  51.452 -53.859  1.00  0.00     0.017 A 
HETATM   13  C   UNL     1     -39.596  50.410 -53.044  1.00  0.00     0.043 A 
HETATM   14  C   UNL     1     -39.522  50.595 -51.670  1.00  0.00     0.116 A 
HETATM   15  F   UNL     1     -39.091  49.594 -50.892  1.00  0.00    -0.206 F 
HETATM   16  C   UNL     1     -39.894  51.801 -51.091  1.00  0.00     0.043 A 
HETATM   17  C   UNL     1     -40.349  52.842 -51.905  1.00  0.00     0.017 A 
ENDBRANCH   9  11
ENDBRANCH   2   5
BRANCH   1  18
HETATM   18  C   UNL     1     -44.798  58.030 -54.678  1.00  0.00     0.217 C 
BRANCH  18  19
HETATM   19  C   UNL     1     -45.464  58.101 -56.042  1.00  0.00    -0.085 C 
BRANCH  19  20
HETATM   20  C   UNL     1     -46.035  58.163 -57.212  1.00  0.00    -0.078 C 
BRANCH  20  21
HETATM   21  C   UNL     1     -46.689  58.222 -58.528  1.00  0.00     0.269 C 
BRANCH  21  22
HETATM   22  O   UNL     1     -46.228  57.132 -59.324  1.00  0.00    -0.340 OA
BRANCH  22  23
HETATM   23  C   UNL     1     -44.880  57.042 -59.537  1.00  0.00     0.071 A 
HETATM   24  C   UNL     1     -44.296  58.199 -60.061  1.00  0.00     0.055 A 
HETATM   25  C   UNL     1     -42.927  58.237 -60.323  1.00  0.00     0.013 A 
HETATM   26  C   UNL     1     -42.127  57.127 -60.064  1.00  0.00     0.019 A 
HETATM   27 BR   UNL     1     -42.150  59.806 -61.036  1.00  0.00    -0.051 Br
HETATM   28  C   UNL     1     -42.705  55.972 -59.539  1.00  0.00     0.004 A 
HETATM   29  C   UNL     1     -44.078  55.928 -59.275  1.00  0.00     0.037 A 
ENDBRANCH  22  23
ENDBRANCH  21  22
ENDBRANCH  20  21
ENDBRANCH  19  20
ENDBRANCH  18  19
ENDBRANCH   1  18
TORSDOF 8
ENDMDL
MODEL 4
REMARK VINA RESULT:      -7.5      3.862      5.359
REMARK  8 active torsions:
REMARK  status: ('A' for Active; 'I' for Inactive)
REMARK    1  A    between atoms: C_6  and  O_7 
REMARK    2  A    between atoms: O_7  and  C_8 
REMARK    3  A    between atoms: C_8  and  C_9 
REMARK    4  A    between atoms: C_9  and  C_10 
REMARK    5  A    between atoms: C_10  and  C_11 
REMARK    6  A    between atoms: C_11  and  N_12 
REMARK       I    between atoms: N_12  and  C_13 
REMARK    7  A    between atoms: C_13  and  C_14 
REMARK    8  A    between atoms: C_18  and  C_19 
ROOT
HETATM    1  N   UNL     1     -44.351  56.367 -54.920  1.00  0.00    -0.345 N 
HETATM    2  C   UNL     1     -43.255  56.198 -55.729  1.00  0.00     0.270 C 
HETATM    3  O   UNL     1     -43.076  56.848 -56.753  1.00  0.00    -0.266 OA
HETATM    4  H   UNL     1     -44.479  55.780 -54.110  1.00  0.00     0.163 HD
ENDROOT
BRANCH   2   5
HETATM    5  C   UNL     1     -42.307  55.212 -55.285  1.00  0.00     0.120 A 
HETATM    6  N   UNL     1     -41.054  55.139 -55.826  1.00  0.00    -0.272 N 
HETATM    7  H   UNL     1     -40.678  55.722 -56.567  1.00  0.00     0.189 HD
HETATM    8  N   UNL     1     -40.275  54.191 -55.285  1.00  0.00    -0.174 NA
HETATM    9  C   UNL     1     -41.034  53.632 -54.329  1.00  0.00     0.089 A 
HETATM   10  C   UNL     1     -42.327  54.229 -54.316  1.00  0.00     0.071 A 
BRANCH   9  11
HETATM   11  C   UNL     1     -40.510  52.573 -53.459  1.00  0.00    -0.005 A 
HETATM   12  C   UNL     1     -40.330  52.788 -52.083  1.00  0.00     0.017 A 
HETATM   13  C   UNL     1     -39.814  51.776 -51.267  1.00  0.00     0.043 A 
HETATM   14  C   UNL     1     -39.477  50.548 -51.824  1.00  0.00     0.116 A 
HETATM   15  F   UNL     1     -38.981  49.583 -51.040  1.00  0.00    -0.206 F 
HETATM   16  C   UNL     1     -39.644  50.311 -53.181  1.00  0.00     0.043 A 
HETATM   17  C   UNL     1     -40.158  51.323 -53.997  1.00  0.00     0.017 A 
ENDBRANCH   9  11
ENDBRANCH   2   5
BRANCH   1  18
HETATM   18  C   UNL     1     -45.312  57.410 -55.156  1.00  0.00     0.217 C 
BRANCH  18  19
HETATM   19  C   UNL     1     -44.949  58.653 -54.359  1.00  0.00    -0.085 C 
BRANCH  19  20
HETATM   20  C   UNL     1     -44.639  59.719 -53.677  1.00  0.00    -0.078 C 
BRANCH  20  21
HETATM   21  C   UNL     1     -44.292  60.930 -52.919  1.00  0.00     0.269 C 
BRANCH  21  22
HETATM   22  O   UNL     1     -43.312  60.598 -51.937  1.00  0.00    -0.340 OA
BRANCH  22  23
HETATM   23  C   UNL     1     -42.487  59.543 -52.212  1.00  0.00     0.071 A 
HETATM   24  C   UNL     1     -42.725  58.404 -51.437  1.00  0.00     0.055 A 
HETATM   25  C   UNL     1     -41.951  57.257 -51.620  1.00  0.00     0.013 A 
HETATM   26  C   UNL     1     -40.938  57.234 -52.575  1.00  0.00     0.019 A 
HETATM   27 BR   UNL     1     -42.280  55.724 -50.564  1.00  0.00    -0.051 Br
HETATM   28  C   UNL     1     -40.700  58.367 -53.351  1.00  0.00     0.004 A 
HETATM   29  C   UNL     1     -41.472  59.520 -53.171  1.00  0.00     0.037 A 
ENDBRANCH  22  23
ENDBRANCH  21  22
ENDBRANCH  20  21
ENDBRANCH  19  20
ENDBRANCH  18  19
ENDBRANCH   1  18
TORSDOF 8
ENDMDL
MODEL 5
REMARK VINA RESULT:      -7.5     16.510     20.277
REMARK  8 active torsions:
REMARK  status: ('A' for Active; 'I' for Inactive)
REMARK    1  A    between atoms: C_6  and  O_7 
REMARK    2  A    between atoms: O_7  and  C_8 
REMARK    3  A    between atoms: C_8  and  C_9 
REMARK    4  A    between atoms: C_9  and  C_10 
REMARK    5  A    between atoms: C_10  and  C_11 
REMARK    6  A    between atoms: C_11  and  N_12 
REMARK       I    between atoms: N_12  and  C_13 
REMARK    7  A    between atoms: C_13  and  C_14 
REMARK    8  A    between atoms: C_18  and  C_19 
ROOT
HETATM    1  N   UNL     1     -34.582  41.721 -52.561  1.00  0.00    -0.345 N 
HETATM    2  C   UNL     1     -35.727  42.019 -53.256  1.00  0.00     0.270 C 
HETATM    3  O   UNL     1     -36.740  42.454 -52.719  1.00  0.00    -0.266 OA
HETATM    4  H   UNL     1     -33.787  41.325 -53.037  1.00  0.00     0.163 HD
ENDROOT
BRANCH   2   5
HETATM    5  C   UNL     1     -35.658  41.807 -54.677  1.00  0.00     0.120 A 
HETATM    6  N   UNL     1     -34.494  41.995 -55.367  1.00  0.00    -0.272 N 
HETATM    7  H   UNL     1     -33.604  42.304 -54.986  1.00  0.00     0.189 HD
HETATM    8  N   UNL     1     -34.580  41.725 -56.678  1.00  0.00    -0.174 NA
HETATM    9  C   UNL     1     -35.846  41.315 -56.857  1.00  0.00     0.089 A 
HETATM   10  C   UNL     1     -36.562  41.378 -55.628  1.00  0.00     0.071 A 
BRANCH   9  11
HETATM   11  C   UNL     1     -36.326  40.868 -58.169  1.00  0.00    -0.005 A 
HETATM   12  C   UNL     1     -36.080  39.562 -58.626  1.00  0.00     0.017 A 
HETATM   13  C   UNL     1     -36.528  39.154 -59.887  1.00  0.00     0.043 A 
HETATM   14  C   UNL     1     -37.222  40.047 -60.693  1.00  0.00     0.116 A 
HETATM   15  F   UNL     1     -37.646  39.654 -61.900  1.00  0.00    -0.206 F 
HETATM   16  C   UNL     1     -37.477  41.344 -60.266  1.00  0.00     0.043 A 
HETATM   17  C   UNL     1     -37.027  41.753 -59.007  1.00  0.00     0.017 A 
ENDBRANCH   9  11
ENDBRANCH   2   5
BRANCH   1  18
HETATM   18  C   UNL     1     -34.451  42.014 -51.159  1.00  0.00     0.217 C 
BRANCH  18  19
HETATM   19  C   UNL     1     -33.589  40.964 -50.477  1.00  0.00    -0.085 C 
BRANCH  19  20
HETATM   20  C   UNL     1     -32.849  40.065 -49.891  1.00  0.00    -0.078 C 
BRANCH  20  21
HETATM   21  C   UNL     1     -32.008  39.049 -49.243  1.00  0.00     0.269 C 
BRANCH  21  22
HETATM   22  O   UNL     1     -30.889  39.693 -48.636  1.00  0.00    -0.340 OA
BRANCH  22  23
HETATM   23  C   UNL     1     -30.816  39.660 -47.271  1.00  0.00     0.071 A 
HETATM   24  C   UNL     1     -31.640  38.705 -46.668  1.00  0.00     0.055 A 
HETATM   25  C   UNL     1     -31.658  38.569 -45.281  1.00  0.00     0.013 A 
HETATM   26  C   UNL     1     -30.854  39.378 -44.481  1.00  0.00     0.019 A 
HETATM   27 BR   UNL     1     -32.780  37.276 -44.477  1.00  0.00    -0.051 Br
HETATM   28  C   UNL     1     -30.029  40.330 -45.078  1.00  0.00     0.004 A 
HETATM   29  C   UNL     1     -30.008  40.471 -46.470  1.00  0.00     0.037 A 
ENDBRANCH  22  23
ENDBRANCH  21  22
ENDBRANCH  20  21
ENDBRANCH  19  20
ENDBRANCH  18  19
ENDBRANCH   1  18
TORSDOF 8
ENDMDL
MODEL 6
REMARK VINA RESULT:      -7.3      1.942      2.282
REMARK  8 active torsions:
REMARK  status: ('A' for Active; 'I' for Inactive)
REMARK    1  A    between atoms: C_6  and  O_7 
REMARK    2  A    between atoms: O_7  and  C_8 
REMARK    3  A    between atoms: C_8  and  C_9 
REMARK    4  A    between atoms: C_9  and  C_10 
REMARK    5  A    between atoms: C_10  and  C_11 
REMARK    6  A    between atoms: C_11  and  N_12 
REMARK       I    between atoms: N_12  and  C_13 
REMARK    7  A    between atoms: C_13  and  C_14 
REMARK    8  A    between atoms: C_18  and  C_19 
ROOT
HETATM    1  N   UNL     1     -44.276  57.035 -55.174  1.00  0.00    -0.345 N 
HETATM    2  C   UNL     1     -43.719  56.772 -53.948  1.00  0.00     0.270 C 
HETATM    3  O   UNL     1     -44.082  57.328 -52.917  1.00  0.00    -0.266 OA
HETATM    4  H   UNL     1     -43.917  56.585 -56.002  1.00  0.00     0.163 HD
ENDROOT
BRANCH   2   5
HETATM    5  C   UNL     1     -42.682  55.775 -53.942  1.00  0.00     0.120 A 
HETATM    6  N   UNL     1     -41.388  56.097 -54.242  1.00  0.00    -0.272 N 
HETATM    7  H   UNL     1     -41.034  57.012 -54.502  1.00  0.00     0.189 HD
HETATM    8  N   UNL     1     -40.532  55.068 -54.162  1.00  0.00    -0.174 NA
HETATM    9  C   UNL     1     -41.285  54.029 -53.767  1.00  0.00     0.089 A 
HETATM   10  C   UNL     1     -42.647  54.428 -53.645  1.00  0.00     0.071 A 
BRANCH   9  11
HETATM   11  C   UNL     1     -40.695  52.711 -53.508  1.00  0.00    -0.005 A 
HETATM   12  C   UNL     1     -40.742  51.692 -54.474  1.00  0.00     0.017 A 
HETATM   13  C   UNL     1     -40.191  50.434 -54.208  1.00  0.00     0.043 A 
HETATM   14  C   UNL     1     -39.592  50.192 -52.979  1.00  0.00     0.116 A 
HETATM   15  F   UNL     1     -39.069  48.986 -52.727  1.00  0.00    -0.206 F 
HETATM   16  C   UNL     1     -39.534  51.181 -52.006  1.00  0.00     0.043 A 
HETATM   17  C   UNL     1     -40.086  52.438 -52.271  1.00  0.00     0.017 A 
ENDBRANCH   9  11
ENDBRANCH   2   5
BRANCH   1  18
HETATM   18  C   UNL     1     -45.416  57.899 -55.317  1.00  0.00     0.217 C 
BRANCH  18  19
HETATM   19  C   UNL     1     -45.245  58.805 -56.525  1.00  0.00    -0.085 C 
BRANCH  19  20
HETATM   20  C   UNL     1     -45.099  59.581 -57.563  1.00  0.00    -0.078 C 
BRANCH  20  21
HETATM   21  C   UNL     1     -44.921  60.457 -58.729  1.00  0.00     0.269 C 
BRANCH  21  22
HETATM   22  O   UNL     1     -44.905  59.659 -59.911  1.00  0.00    -0.340 OA
BRANCH  22  23
HETATM   23  C   UNL     1     -44.017  58.619 -59.950  1.00  0.00     0.071 A 
HETATM   24  C   UNL     1     -44.608  57.352 -59.938  1.00  0.00     0.055 A 
HETATM   25  C   UNL     1     -43.812  56.208 -59.976  1.00  0.00     0.013 A 
HETATM   26  C   UNL     1     -42.424  56.314 -60.028  1.00  0.00     0.019 A 
HETATM   27 BR   UNL     1     -44.621  54.499 -59.956  1.00  0.00    -0.051 Br
HETATM   28  C   UNL     1     -41.832  57.576 -60.041  1.00  0.00     0.004 A 
HETATM   29  C   UNL     1     -42.625  58.727 -60.003  1.00  0.00     0.037 A 
ENDBRANCH  22  23
ENDBRANCH  21  22
ENDBRANCH  20  21
ENDBRANCH  19  20
ENDBRANCH  18  19
ENDBRANCH   1  18
TORSDOF 8
ENDMDL
MODEL 7
REMARK VINA RESULT:      -7.2      2.403      2.712
REMARK  8 active torsions:
REMARK  status: ('A' for Active; 'I' for Inactive)
REMARK    1  A    between atoms: C_6  and  O_7 
REMARK    2  A    between atoms: O_7  and  C_8 
REMARK    3  A    between atoms: C_8  and  C_9 
REMARK    4  A    between atoms: C_9  and  C_10 
REMARK    5  A    between atoms: C_10  and  C_11 
REMARK    6  A    between atoms: C_11  and  N_12 
REMARK       I    between atoms: N_12  and  C_13 
REMARK    7  A    between atoms: C_13  and  C_14 
REMARK    8  A    between atoms: C_18  and  C_19 
ROOT
HETATM    1  N   UNL     1     -43.936  58.371 -52.318  1.00  0.00    -0.345 N 
HETATM    2  C   UNL     1     -44.173  57.321 -51.467  1.00  0.00     0.270 C 
HETATM    3  O   UNL     1     -45.170  57.251 -50.755  1.00  0.00    -0.266 OA
HETATM    4  H   UNL     1     -43.083  58.408 -52.853  1.00  0.00     0.163 HD
ENDROOT
BRANCH   2   5
HETATM    5  C   UNL     1     -43.178  56.282 -51.476  1.00  0.00     0.120 A 
HETATM    6  N   UNL     1     -42.449  55.990 -50.359  1.00  0.00    -0.272 N 
HETATM    7  H   UNL     1     -42.508  56.451 -49.456  1.00  0.00     0.189 HD
HETATM    8  N   UNL     1     -41.585  54.976 -50.515  1.00  0.00    -0.174 NA
HETATM    9  C   UNL     1     -41.770  54.564 -51.779  1.00  0.00     0.089 A 
HETATM   10  C   UNL     1     -42.744  55.378 -52.424  1.00  0.00     0.071 A 
BRANCH   9  11
HETATM   11  C   UNL     1     -41.036  53.416 -52.324  1.00  0.00    -0.005 A 
HETATM   12  C   UNL     1     -40.165  52.663 -51.519  1.00  0.00     0.017 A 
HETATM   13  C   UNL     1     -39.458  51.582 -52.055  1.00  0.00     0.043 A 
HETATM   14  C   UNL     1     -39.620  51.250 -53.394  1.00  0.00     0.116 A 
HETATM   15  F   UNL     1     -38.939  50.217 -53.904  1.00  0.00    -0.206 F 
HETATM   16  C   UNL     1     -40.474  51.979 -54.211  1.00  0.00     0.043 A 
HETATM   17  C   UNL     1     -41.179  53.061 -53.677  1.00  0.00     0.017 A 
ENDBRANCH   9  11
ENDBRANCH   2   5
BRANCH   1  18
HETATM   18  C   UNL     1     -44.907  59.412 -52.523  1.00  0.00     0.217 C 
BRANCH  18  19
HETATM   19  C   UNL     1     -45.157  59.616 -54.009  1.00  0.00    -0.085 C 
BRANCH  19  20
HETATM   20  C   UNL     1     -45.370  59.791 -55.282  1.00  0.00    -0.078 C 
BRANCH  20  21
HETATM   21  C   UNL     1     -45.622  59.980 -56.718  1.00  0.00     0.269 C 
BRANCH  21  22
HETATM   22  O   UNL     1     -44.405  59.777 -57.433  1.00  0.00    -0.340 OA
BRANCH  22  23
HETATM   23  C   UNL     1     -43.988  58.485 -57.600  1.00  0.00     0.071 A 
HETATM   24  C   UNL     1     -44.515  57.846 -58.727  1.00  0.00     0.055 A 
HETATM   25  C   UNL     1     -44.167  56.526 -59.011  1.00  0.00     0.013 A 
HETATM   26  C   UNL     1     -43.292  55.831 -58.180  1.00  0.00     0.019 A 
HETATM   27 BR   UNL     1     -44.888  55.672 -60.536  1.00  0.00    -0.051 Br
HETATM   28  C   UNL     1     -42.764  56.465 -57.056  1.00  0.00     0.004 A 
HETATM   29  C   UNL     1     -43.110  57.789 -56.766  1.00  0.00     0.037 A 
ENDBRANCH  22  23
ENDBRANCH  21  22
ENDBRANCH  20  21
ENDBRANCH  19  20
ENDBRANCH  18  19
ENDBRANCH   1  18
TORSDOF 8
ENDMDL
MODEL 8
REMARK VINA RESULT:      -7.1      2.555      2.984
REMARK  8 active torsions:
REMARK  status: ('A' for Active; 'I' for Inactive)
REMARK    1  A    between atoms: C_6  and  O_7 
REMARK    2  A    between atoms: O_7  and  C_8 
REMARK    3  A    between atoms: C_8  and  C_9 
REMARK    4  A    between atoms: C_9  and  C_10 
REMARK    5  A    between atoms: C_10  and  C_11 
REMARK    6  A    between atoms: C_11  and  N_12 
REMARK       I    between atoms: N_12  and  C_13 
REMARK    7  A    between atoms: C_13  and  C_14 
REMARK    8  A    between atoms: C_18  and  C_19 
ROOT
HETATM    1  N   UNL     1     -43.836  57.903 -52.515  1.00  0.00    -0.345 N 
HETATM    2  C   UNL     1     -43.914  56.923 -51.557  1.00  0.00     0.270 C 
HETATM    3  O   UNL     1     -44.796  56.890 -50.706  1.00  0.00    -0.266 OA
HETATM    4  H   UNL     1     -43.068  57.914 -53.168  1.00  0.00     0.163 HD
ENDROOT
BRANCH   2   5
HETATM    5  C   UNL     1     -42.894  55.910 -51.626  1.00  0.00     0.120 A 
HETATM    6  N   UNL     1     -41.935  55.803 -50.658  1.00  0.00    -0.272 N 
HETATM    7  H   UNL     1     -41.827  56.396 -49.841  1.00  0.00     0.189 HD
HETATM    8  N   UNL     1     -41.076  54.791 -50.844  1.00  0.00    -0.174 NA
HETATM    9  C   UNL     1     -41.500  54.187 -51.966  1.00  0.00     0.089 A 
HETATM   10  C   UNL     1     -42.624  54.879 -52.502  1.00  0.00     0.071 A 
BRANCH   9  11
HETATM   11  C   UNL     1     -40.842  52.981 -52.481  1.00  0.00    -0.005 A 
HETATM   12  C   UNL     1     -40.080  52.154 -51.639  1.00  0.00     0.017 A 
HETATM   13  C   UNL     1     -39.443  51.017 -52.145  1.00  0.00     0.043 A 
HETATM   14  C   UNL     1     -39.567  50.702 -53.492  1.00  0.00     0.116 A 
HETATM   15  F   UNL     1     -38.953  49.614 -53.974  1.00  0.00    -0.206 F 
HETATM   16  C   UNL     1     -40.313  51.503 -54.346  1.00  0.00     0.043 A 
HETATM   17  C   UNL     1     -40.948  52.641 -53.841  1.00  0.00     0.017 A 
ENDBRANCH   9  11
ENDBRANCH   2   5
BRANCH   1  18
HETATM   18  C   UNL     1     -44.862  58.899 -52.662  1.00  0.00     0.217 C 
BRANCH  18  19
HETATM   19  C   UNL     1     -45.108  59.191 -54.133  1.00  0.00    -0.085 C 
BRANCH  19  20
HETATM   20  C   UNL     1     -45.321  59.441 -55.394  1.00  0.00    -0.078 C 
BRANCH  20  21
HETATM   21  C   UNL     1     -45.576  59.726 -56.814  1.00  0.00     0.269 C 
BRANCH  21  22
HETATM   22  O   UNL     1     -46.505  58.769 -57.319  1.00  0.00    -0.340 OA
BRANCH  22  23
HETATM   23  C   UNL     1     -46.086  57.979 -58.354  1.00  0.00     0.071 A 
HETATM   24  C   UNL     1     -44.718  58.060 -58.629  1.00  0.00     0.055 A 
HETATM   25  C   UNL     1     -44.163  57.303 -59.661  1.00  0.00     0.013 A 
HETATM   26  C   UNL     1     -44.964  56.458 -60.425  1.00  0.00     0.019 A 
HETATM   27 BR   UNL     1     -42.312  57.424 -60.025  1.00  0.00    -0.051 Br
HETATM   28  C   UNL     1     -46.328  56.373 -60.153  1.00  0.00     0.004 A 
HETATM   29  C   UNL     1     -46.890  57.131 -59.120  1.00  0.00     0.037 A 
ENDBRANCH  22  23
ENDBRANCH  21  22
ENDBRANCH  20  21
ENDBRANCH  19  20
ENDBRANCH  18  19
ENDBRANCH   1  18
TORSDOF 8
ENDMDL
MODEL 9
REMARK VINA RESULT:      -7.1      2.665      3.797
REMARK  8 active torsions:
REMARK  status: ('A' for Active; 'I' for Inactive)
REMARK    1  A    between atoms: C_6  and  O_7 
REMARK    2  A    between atoms: O_7  and  C_8 
REMARK    3  A    between atoms: C_8  and  C_9 
REMARK    4  A    between atoms: C_9  and  C_10 
REMARK    5  A    between atoms: C_10  and  C_11 
REMARK    6  A    between atoms: C_11  and  N_12 
REMARK       I    between atoms: N_12  and  C_13 
REMARK    7  A    between atoms: C_13  and  C_14 
REMARK    8  A    between atoms: C_18  and  C_19 
ROOT
HETATM    1  N   UNL     1     -41.923  57.021 -57.602  1.00  0.00    -0.345 N 
HETATM    2  C   UNL     1     -42.683  57.026 -56.460  1.00  0.00     0.270 C 
HETATM    3  O   UNL     1     -43.725  57.665 -56.355  1.00  0.00    -0.266 OA
HETATM    4  H   UNL     1     -41.051  56.515 -57.629  1.00  0.00     0.163 HD
ENDROOT
BRANCH   2   5
HETATM    5  C   UNL     1     -42.186  56.210 -55.384  1.00  0.00     0.120 A 
HETATM    6  N   UNL     1     -42.431  56.531 -54.079  1.00  0.00    -0.272 N 
HETATM    7  H   UNL     1     -42.944  57.339 -53.738  1.00  0.00     0.189 HD
HETATM    8  N   UNL     1     -41.932  55.657 -53.193  1.00  0.00    -0.174 NA
HETATM    9  C   UNL     1     -41.356  54.705 -53.944  1.00  0.00     0.089 A 
HETATM   10  C   UNL     1     -41.471  55.031 -55.326  1.00  0.00     0.071 A 
BRANCH   9  11
HETATM   11  C   UNL     1     -40.735  53.523 -53.336  1.00  0.00    -0.005 A 
HETATM   12  C   UNL     1     -40.324  52.434 -54.122  1.00  0.00     0.017 A 
HETATM   13  C   UNL     1     -39.749  51.305 -53.528  1.00  0.00     0.043 A 
HETATM   14  C   UNL     1     -39.583  51.263 -52.150  1.00  0.00     0.116 A 
HETATM   15  F   UNL     1     -39.036  50.179 -51.585  1.00  0.00    -0.206 F 
HETATM   16  C   UNL     1     -39.983  52.325 -51.350  1.00  0.00     0.043 A 
HETATM   17  C   UNL     1     -40.559  53.452 -51.943  1.00  0.00     0.017 A 
ENDBRANCH   9  11
ENDBRANCH   2   5
BRANCH   1  18
HETATM   18  C   UNL     1     -42.362  57.672 -58.806  1.00  0.00     0.217 C 
BRANCH  18  19
HETATM   19  C   UNL     1     -43.384  56.811 -59.531  1.00  0.00    -0.085 C 
BRANCH  19  20
HETATM   20  C   UNL     1     -44.260  56.072 -60.151  1.00  0.00    -0.078 C 
BRANCH  20  21
HETATM   21  C   UNL     1     -45.249  55.249 -60.862  1.00  0.00     0.269 C 
BRANCH  21  22
HETATM   22  O   UNL     1     -46.544  55.516 -60.329  1.00  0.00    -0.340 OA
BRANCH  22  23
HETATM   23  C   UNL     1     -47.071  56.756 -60.564  1.00  0.00     0.071 A 
HETATM   24  C   UNL     1     -47.809  56.859 -61.747  1.00  0.00     0.055 A 
HETATM   25  C   UNL     1     -48.400  58.071 -62.101  1.00  0.00     0.013 A 
HETATM   26  C   UNL     1     -48.266  59.189 -61.282  1.00  0.00     0.019 A 
HETATM   27 BR   UNL     1     -49.392  58.199 -63.706  1.00  0.00    -0.051 Br
HETATM   28  C   UNL     1     -47.533  59.090 -60.100  1.00  0.00     0.004 A 
HETATM   29  C   UNL     1     -46.937  57.876 -59.740  1.00  0.00     0.037 A 
ENDBRANCH  22  23
ENDBRANCH  21  22
ENDBRANCH  20  21
ENDBRANCH  19  20
ENDBRANCH  18  19
ENDBRANCH   1  18
TORSDOF 8
ENDMDL
MODEL 10
REMARK VINA RESULT:      -7.1      1.559      2.053
REMARK  8 active torsions:
REMARK  status: ('A' for Active; 'I' for Inactive)
REMARK    1  A    between atoms: C_6  and  O_7 
REMARK    2  A    between atoms: O_7  and  C_8 
REMARK    3  A    between atoms: C_8  and  C_9 
REMARK    4  A    between atoms: C_9  and  C_10 
REMARK    5  A    between atoms: C_10  and  C_11 
REMARK    6  A    between atoms: C_11  and  N_12 
REMARK       I    between atoms: N_12  and  C_13 
REMARK    7  A    between atoms: C_13  and  C_14 
REMARK    8  A    between atoms: C_18  and  C_19 
ROOT
HETATM    1  N   UNL     1     -41.824  58.330 -54.527  1.00  0.00    -0.345 N 
HETATM    2  C   UNL     1     -41.459  57.583 -53.435  1.00  0.00     0.270 C 
HETATM    3  O   UNL     1     -41.435  58.036 -52.295  1.00  0.00    -0.266 OA
HETATM    4  H   UNL     1     -41.788  57.928 -55.451  1.00  0.00     0.163 HD
ENDROOT
BRANCH   2   5
HETATM    5  C   UNL     1     -41.122  56.212 -53.709  1.00  0.00     0.120 A 
HETATM    6  N   UNL     1     -40.780  55.804 -54.968  1.00  0.00    -0.272 N 
HETATM    7  H   UNL     1     -40.743  56.380 -55.804  1.00  0.00     0.189 HD
HETATM    8  N   UNL     1     -40.460  54.506 -55.058  1.00  0.00    -0.174 NA
HETATM    9  C   UNL     1     -40.568  54.041 -53.803  1.00  0.00     0.089 A 
HETATM   10  C   UNL     1     -41.009  55.078 -52.931  1.00  0.00     0.071 A 
BRANCH   9  11
HETATM   11  C   UNL     1     -40.241  52.650 -53.471  1.00  0.00    -0.005 A 
HETATM   12  C   UNL     1     -39.919  52.274 -52.157  1.00  0.00     0.017 A 
HETATM   13  C   UNL     1     -39.592  50.948 -51.856  1.00  0.00     0.043 A 
HETATM   14  C   UNL     1     -39.587  49.995 -52.867  1.00  0.00     0.116 A 
HETATM   15  F   UNL     1     -39.270  48.727 -52.577  1.00  0.00    -0.206 F 
HETATM   16  C   UNL     1     -39.900  50.341 -54.175  1.00  0.00     0.043 A 
HETATM   17  C   UNL     1     -40.225  51.667 -54.476  1.00  0.00     0.017 A 
ENDBRANCH   9  11
ENDBRANCH   2   5
BRANCH   1  18
HETATM   18  C   UNL     1     -42.323  59.672 -54.394  1.00  0.00     0.217 C 
BRANCH  18  19
HETATM   19  C   UNL     1     -42.909  60.152 -55.711  1.00  0.00    -0.085 C 
BRANCH  19  20
HETATM   20  C   UNL     1     -43.412  60.562 -56.841  1.00  0.00    -0.078 C 
BRANCH  20  21
HETATM   21  C   UNL     1     -43.968  61.018 -58.123  1.00  0.00     0.269 C 
BRANCH  21  22
HETATM   22  O   UNL     1     -43.764  60.003 -59.104  1.00  0.00    -0.340 OA
BRANCH  22  23
HETATM   23  C   UNL     1     -44.718  59.028 -59.201  1.00  0.00     0.071 A 
HETATM   24  C   UNL     1     -44.213  57.741 -59.406  1.00  0.00     0.055 A 
HETATM   25  C   UNL     1     -45.082  56.656 -59.521  1.00  0.00     0.013 A 
HETATM   26  C   UNL     1     -46.459  56.842 -59.430  1.00  0.00     0.019 A 
HETATM   27 BR   UNL     1     -44.387  54.921 -59.801  1.00  0.00    -0.051 Br
HETATM   28  C   UNL     1     -46.967  58.124 -59.224  1.00  0.00     0.004 A 
HETATM   29  C   UNL     1     -46.099  59.216 -59.109  1.00  0.00     0.037 A 
ENDBRANCH  22  23
ENDBRANCH  21  22
ENDBRANCH  20  21
ENDBRANCH  19  20
ENDBRANCH  18  19
ENDBRANCH   1  18
TORSDOF 8
ENDMDL
