MODEL 1
REMARK VINA RESULT:      -8.3      0.000      0.000
REMARK  11 active torsions:
REMARK  status: ('A' for Active; 'I' for Inactive)
REMARK    1  A    between atoms: C_8  and  C_9 
REMARK    2  A    between atoms: C_9  and  C_10 
REMARK    3  A    between atoms: N_14  and  C_15 
REMARK    4  A    between atoms: C_15  and  C_16 
REMARK    5  A    between atoms: C_16  and  C_17 
REMARK    6  A    between atoms: C_20  and  O_21 
REMARK    7  A    between atoms: C_27  and  N_28 
REMARK    8  A    between atoms: N_28  and  C_29 
REMARK    9  A    between atoms: C_29  and  C_30 
REMARK   10  A    between atoms: C_30  and  O_31 
REMARK   11  A    between atoms: C_30  and  C_32 
ROOT
HETATM    1  C   UNL     1     -39.599  50.332 -54.441  1.00  0.00     0.052 C 
HETATM    2  C   UNL     1     -39.784  50.660 -52.993  1.00  0.00    -0.015 A 
HETATM    3  C   UNL     1     -40.199  52.065 -52.643  1.00  0.00     0.144 A 
HETATM    4  N   UNL     1     -40.338  52.937 -53.588  1.00  0.00    -0.217 NA
HETATM    5  N   UNL     1     -40.418  52.342 -51.305  1.00  0.00    -0.272 N 
HETATM    6  C   UNL     1     -40.874  53.595 -50.935  1.00  0.00     0.266 C 
HETATM    7  O   UNL     1     -41.240  53.885 -49.792  1.00  0.00    -0.267 OA
HETATM    8  C   UNL     1     -40.927  54.628 -52.016  1.00  0.00     0.074 C 
HETATM    9  C   UNL     1     -40.678  54.227 -53.282  1.00  0.00     0.121 C 
HETATM   10  C   UNL     1     -40.224  51.375 -50.326  1.00  0.00     0.102 A 
HETATM   11  C   UNL     1     -39.817  50.137 -50.630  1.00  0.00     0.018 A 
HETATM   12  C   UNL     1     -39.600  49.772 -52.003  1.00  0.00     0.012 A 
ENDROOT
BRANCH   8  13
HETATM   13  C   UNL     1     -41.201  56.008 -51.636  1.00  0.00     0.045 C 
BRANCH  13  14
HETATM   14  C   UNL     1     -41.694  56.961 -52.439  1.00  0.00     0.077 A 
HETATM   15  S   UNL     1     -40.825  58.177 -53.278  1.00  0.00    -0.055 SA
HETATM   16  C   UNL     1     -42.289  58.903 -53.920  1.00  0.00     0.148 A 
HETATM   17  S   UNL     1     -42.241  60.290 -54.852  1.00  0.00    -0.052 SA
HETATM   18  N   UNL     1     -43.402  58.163 -53.544  1.00  0.00    -0.298 N 
HETATM   19  C   UNL     1     -43.153  57.087 -52.707  1.00  0.00     0.266 A 
HETATM   20  O   UNL     1     -43.973  56.319 -52.225  1.00  0.00    -0.266 OA
BRANCH  18  21
HETATM   21  C   UNL     1     -44.750  58.530 -54.014  1.00  0.00     0.138 C 
BRANCH  21  22
HETATM   22  C   UNL     1     -45.395  57.706 -55.135  1.00  0.00     0.059 C 
BRANCH  22  23
HETATM   23  C   UNL     1     -45.682  58.438 -56.434  1.00  0.00    -0.057 A 
HETATM   24  C   UNL     1     -45.231  59.730 -56.723  1.00  0.00     0.010 A 
HETATM   25  C   UNL     1     -45.495  60.315 -57.966  1.00  0.00     0.037 A 
HETATM   26  C   UNL     1     -46.210  59.626 -58.945  1.00  0.00     0.068 A 
HETATM   27  C   UNL     1     -46.679  58.346 -58.664  1.00  0.00     0.037 A 
HETATM   28  C   UNL     1     -46.416  57.759 -57.421  1.00  0.00     0.010 A 
BRANCH  26  29
HETATM   29  O   UNL     1     -46.381  60.309 -60.118  1.00  0.00    -0.356 OA
HETATM   30  C   UNL     1     -45.281  60.318 -61.019  1.00  0.00     0.210 C 
ENDBRANCH  26  29
ENDBRANCH  22  23
ENDBRANCH  21  22
ENDBRANCH  18  21
ENDBRANCH  13  14
ENDBRANCH   8  13
BRANCH   9  31
HETATM   31  N   UNL     1     -40.683  55.095 -54.372  1.00  0.00    -0.274 NA
HETATM   32  H   UNL     1     -39.689  55.286 -54.552  1.00  0.00     0.129 HD
BRANCH  31  33
HETATM   33  C   UNL     1     -41.264  54.709 -55.671  1.00  0.00     0.130 C 
BRANCH  33  34
HETATM   34  C   UNL     1     -42.659  55.351 -55.878  1.00  0.00     0.164 C 
BRANCH  34  35
HETATM   35  O   UNL     1     -43.681  54.350 -55.747  1.00  0.00    -0.390 OA
HETATM   36  H   UNL     1     -44.040  54.194 -56.638  1.00  0.00     0.210 HD
ENDBRANCH  34  35
BRANCH  34  37
HETATM   37  C   UNL     1     -42.820  56.099 -57.187  1.00  0.00    -0.029 A 
HETATM   38  C   UNL     1     -42.331  57.407 -57.314  1.00  0.00     0.010 A 
HETATM   39  C   UNL     1     -42.484  58.111 -58.510  1.00  0.00     0.001 A 
HETATM   40  C   UNL     1     -43.130  57.518 -59.593  1.00  0.00     0.000 A 
HETATM   41  C   UNL     1     -43.621  56.220 -59.482  1.00  0.00     0.001 A 
HETATM   42  C   UNL     1     -43.467  55.514 -58.287  1.00  0.00     0.010 A 
ENDBRANCH  34  37
ENDBRANCH  33  34
ENDBRANCH  31  33
ENDBRANCH   9  31
TORSDOF 11
ENDMDL
MODEL 2
REMARK VINA RESULT:      -8.2      1.748      2.434
REMARK  11 active torsions:
REMARK  status: ('A' for Active; 'I' for Inactive)
REMARK    1  A    between atoms: C_8  and  C_9 
REMARK    2  A    between atoms: C_9  and  C_10 
REMARK    3  A    between atoms: N_14  and  C_15 
REMARK    4  A    between atoms: C_15  and  C_16 
REMARK    5  A    between atoms: C_16  and  C_17 
REMARK    6  A    between atoms: C_20  and  O_21 
REMARK    7  A    between atoms: C_27  and  N_28 
REMARK    8  A    between atoms: N_28  and  C_29 
REMARK    9  A    between atoms: C_29  and  C_30 
REMARK   10  A    between atoms: C_30  and  O_31 
REMARK   11  A    between atoms: C_30  and  C_32 
ROOT
HETATM    1  C   UNL     1     -40.157  51.668 -54.131  1.00  0.00     0.052 C 
HETATM    2  C   UNL     1     -40.223  52.433 -52.846  1.00  0.00    -0.015 A 
HETATM    3  C   UNL     1     -41.297  53.480 -52.711  1.00  0.00     0.144 A 
HETATM    4  N   UNL     1     -42.086  53.709 -53.711  1.00  0.00    -0.217 NA
HETATM    5  N   UNL     1     -41.381  54.143 -51.500  1.00  0.00    -0.272 N 
HETATM    6  C   UNL     1     -42.397  55.061 -51.295  1.00  0.00     0.266 C 
HETATM    7  O   UNL     1     -42.642  55.584 -50.204  1.00  0.00    -0.267 OA
HETATM    8  C   UNL     1     -43.235  55.400 -52.488  1.00  0.00     0.074 C 
HETATM    9  C   UNL     1     -43.042  54.684 -53.617  1.00  0.00     0.121 C 
HETATM   10  C   UNL     1     -40.488  53.879 -50.469  1.00  0.00     0.102 A 
HETATM   11  C   UNL     1     -39.509  52.977 -50.599  1.00  0.00     0.018 A 
HETATM   12  C   UNL     1     -39.382  52.230 -51.821  1.00  0.00     0.012 A 
ENDROOT
BRANCH   8  13
HETATM   13  C   UNL     1     -44.176  56.507 -52.374  1.00  0.00     0.045 C 
BRANCH  13  14
HETATM   14  C   UNL     1     -44.036  57.718 -52.931  1.00  0.00     0.077 A 
HETATM   15  S   UNL     1     -43.093  59.030 -52.361  1.00  0.00    -0.055 SA
HETATM   16  C   UNL     1     -43.622  60.088 -53.658  1.00  0.00     0.148 A 
HETATM   17  S   UNL     1     -43.136  61.685 -53.736  1.00  0.00    -0.052 SA
HETATM   18  N   UNL     1     -44.446  59.400 -54.538  1.00  0.00    -0.298 N 
HETATM   19  C   UNL     1     -44.738  58.091 -54.190  1.00  0.00     0.266 A 
HETATM   20  O   UNL     1     -45.461  57.309 -54.790  1.00  0.00    -0.266 OA
BRANCH  18  21
HETATM   21  C   UNL     1     -44.971  60.053 -55.751  1.00  0.00     0.138 C 
BRANCH  21  22
HETATM   22  C   UNL     1     -44.296  59.766 -57.099  1.00  0.00     0.059 C 
BRANCH  22  23
HETATM   23  C   UNL     1     -45.190  59.236 -58.205  1.00  0.00    -0.057 A 
HETATM   24  C   UNL     1     -46.054  58.146 -58.060  1.00  0.00     0.010 A 
HETATM   25  C   UNL     1     -46.885  57.751 -59.115  1.00  0.00     0.037 A 
HETATM   26  C   UNL     1     -46.873  58.433 -60.331  1.00  0.00     0.068 A 
HETATM   27  C   UNL     1     -46.005  59.509 -60.493  1.00  0.00     0.037 A 
HETATM   28  C   UNL     1     -45.174  59.907 -59.440  1.00  0.00     0.010 A 
BRANCH  26  29
HETATM   29  O   UNL     1     -47.746  57.952 -61.267  1.00  0.00    -0.356 OA
HETATM   30  C   UNL     1     -47.783  56.542 -61.443  1.00  0.00     0.210 C 
ENDBRANCH  26  29
ENDBRANCH  22  23
ENDBRANCH  21  22
ENDBRANCH  18  21
ENDBRANCH  13  14
ENDBRANCH   8  13
BRANCH   9  31
HETATM   31  N   UNL     1     -43.748  54.913 -54.796  1.00  0.00    -0.274 NA
HETATM   32  H   UNL     1     -43.735  55.934 -54.909  1.00  0.00     0.129 HD
BRANCH  31  33
HETATM   33  C   UNL     1     -43.307  54.355 -56.087  1.00  0.00     0.130 C 
BRANCH  33  34
HETATM   34  C   UNL     1     -42.659  55.442 -56.980  1.00  0.00     0.164 C 
BRANCH  34  35
HETATM   35  O   UNL     1     -42.710  56.714 -56.314  1.00  0.00    -0.390 OA
HETATM   36  H   UNL     1     -43.649  56.932 -56.190  1.00  0.00     0.210 HD
ENDBRANCH  34  35
BRANCH  34  37
HETATM   37  C   UNL     1     -43.254  55.554 -58.370  1.00  0.00    -0.029 A 
HETATM   38  C   UNL     1     -42.903  56.628 -59.201  1.00  0.00     0.010 A 
HETATM   39  C   UNL     1     -43.453  56.749 -60.479  1.00  0.00     0.001 A 
HETATM   40  C   UNL     1     -44.361  55.799 -60.942  1.00  0.00     0.000 A 
HETATM   41  C   UNL     1     -44.719  54.727 -60.129  1.00  0.00     0.001 A 
HETATM   42  C   UNL     1     -44.169  54.604 -58.851  1.00  0.00     0.010 A 
ENDBRANCH  34  37
ENDBRANCH  33  34
ENDBRANCH  31  33
ENDBRANCH   9  31
TORSDOF 11
ENDMDL
MODEL 3
REMARK VINA RESULT:      -8.1      1.544      2.012
REMARK  11 active torsions:
REMARK  status: ('A' for Active; 'I' for Inactive)
REMARK    1  A    between atoms: C_8  and  C_9 
REMARK    2  A    between atoms: C_9  and  C_10 
REMARK    3  A    between atoms: N_14  and  C_15 
REMARK    4  A    between atoms: C_15  and  C_16 
REMARK    5  A    between atoms: C_16  and  C_17 
REMARK    6  A    between atoms: C_20  and  O_21 
REMARK    7  A    between atoms: C_27  and  N_28 
REMARK    8  A    between atoms: N_28  and  C_29 
REMARK    9  A    between atoms: C_29  and  C_30 
REMARK   10  A    between atoms: C_30  and  O_31 
REMARK   11  A    between atoms: C_30  and  C_32 
ROOT
HETATM    1  C   UNL     1     -39.973  50.147 -54.747  1.00  0.00     0.052 C 
HETATM    2  C   UNL     1     -39.911  50.381 -53.270  1.00  0.00    -0.015 A 
HETATM    3  C   UNL     1     -40.155  51.783 -52.775  1.00  0.00     0.144 A 
HETATM    4  N   UNL     1     -40.363  52.729 -53.632  1.00  0.00    -0.217 NA
HETATM    5  N   UNL     1     -40.148  51.976 -51.405  1.00  0.00    -0.272 N 
HETATM    6  C   UNL     1     -40.440  53.228 -50.893  1.00  0.00     0.266 C 
HETATM    7  O   UNL     1     -40.607  53.459 -49.691  1.00  0.00    -0.267 OA
HETATM    8  C   UNL     1     -40.571  54.339 -51.888  1.00  0.00     0.074 C 
HETATM    9  C   UNL     1     -40.548  54.014 -53.199  1.00  0.00     0.121 C 
HETATM   10  C   UNL     1     -39.888  50.930 -50.530  1.00  0.00     0.102 A 
HETATM   11  C   UNL     1     -39.633  49.691 -50.967  1.00  0.00     0.018 A 
HETATM   12  C   UNL     1     -39.654  49.413 -52.377  1.00  0.00     0.012 A 
ENDROOT
BRANCH   8  13
HETATM   13  C   UNL     1     -40.672  55.703 -51.387  1.00  0.00     0.045 C 
BRANCH  13  14
HETATM   14  C   UNL     1     -41.743  56.502 -51.493  1.00  0.00     0.077 A 
HETATM   15  S   UNL     1     -43.325  56.217 -50.899  1.00  0.00    -0.055 SA
HETATM   16  C   UNL     1     -43.945  57.710 -51.584  1.00  0.00     0.148 A 
HETATM   17  S   UNL     1     -45.561  58.121 -51.466  1.00  0.00    -0.052 SA
HETATM   18  N   UNL     1     -42.921  58.429 -52.186  1.00  0.00    -0.298 N 
HETATM   19  C   UNL     1     -41.680  57.814 -52.194  1.00  0.00     0.266 A 
HETATM   20  O   UNL     1     -40.647  58.239 -52.691  1.00  0.00    -0.266 OA
BRANCH  18  21
HETATM   21  C   UNL     1     -43.174  59.754 -52.779  1.00  0.00     0.138 C 
BRANCH  21  22
HETATM   22  C   UNL     1     -42.813  59.990 -54.252  1.00  0.00     0.059 C 
BRANCH  22  23
HETATM   23  C   UNL     1     -43.871  59.622 -55.275  1.00  0.00    -0.057 A 
HETATM   24  C   UNL     1     -44.742  58.534 -55.148  1.00  0.00     0.010 A 
HETATM   25  C   UNL     1     -45.725  58.293 -56.114  1.00  0.00     0.037 A 
HETATM   26  C   UNL     1     -45.863  59.128 -57.222  1.00  0.00     0.068 A 
HETATM   27  C   UNL     1     -44.991  60.204 -57.369  1.00  0.00     0.037 A 
HETATM   28  C   UNL     1     -44.007  60.448 -56.404  1.00  0.00     0.010 A 
BRANCH  26  29
HETATM   29  O   UNL     1     -46.875  58.787 -58.076  1.00  0.00    -0.356 OA
HETATM   30  C   UNL     1     -46.739  57.552 -58.767  1.00  0.00     0.210 C 
ENDBRANCH  26  29
ENDBRANCH  22  23
ENDBRANCH  21  22
ENDBRANCH  18  21
ENDBRANCH  13  14
ENDBRANCH   8  13
BRANCH   9  31
HETATM   31  N   UNL     1     -40.646  54.957 -54.220  1.00  0.00    -0.274 NA
HETATM   32  H   UNL     1     -39.673  55.142 -54.493  1.00  0.00     0.129 HD
BRANCH  31  33
HETATM   33  C   UNL     1     -41.372  54.675 -55.472  1.00  0.00     0.130 C 
BRANCH  33  34
HETATM   34  C   UNL     1     -42.538  55.672 -55.685  1.00  0.00     0.164 C 
BRANCH  34  35
HETATM   35  O   UNL     1     -43.763  55.102 -55.199  1.00  0.00    -0.390 OA
HETATM   36  H   UNL     1     -44.438  55.800 -55.243  1.00  0.00     0.210 HD
ENDBRANCH  34  35
BRANCH  34  37
HETATM   37  C   UNL     1     -42.710  56.144 -57.116  1.00  0.00    -0.029 A 
HETATM   38  C   UNL     1     -42.243  57.410 -57.500  1.00  0.00     0.010 A 
HETATM   39  C   UNL     1     -42.406  57.862 -58.811  1.00  0.00     0.001 A 
HETATM   40  C   UNL     1     -43.040  57.056 -59.754  1.00  0.00     0.000 A 
HETATM   41  C   UNL     1     -43.509  55.797 -59.389  1.00  0.00     0.001 A 
HETATM   42  C   UNL     1     -43.345  55.344 -58.078  1.00  0.00     0.010 A 
ENDBRANCH  34  37
ENDBRANCH  33  34
ENDBRANCH  31  33
ENDBRANCH   9  31
TORSDOF 11
ENDMDL
MODEL 4
REMARK VINA RESULT:      -8.0      3.727      7.969
REMARK  11 active torsions:
REMARK  status: ('A' for Active; 'I' for Inactive)
REMARK    1  A    between atoms: C_8  and  C_9 
REMARK    2  A    between atoms: C_9  and  C_10 
REMARK    3  A    between atoms: N_14  and  C_15 
REMARK    4  A    between atoms: C_15  and  C_16 
REMARK    5  A    between atoms: C_16  and  C_17 
REMARK    6  A    between atoms: C_20  and  O_21 
REMARK    7  A    between atoms: C_27  and  N_28 
REMARK    8  A    between atoms: N_28  and  C_29 
REMARK    9  A    between atoms: C_29  and  C_30 
REMARK   10  A    between atoms: C_30  and  O_31 
REMARK   11  A    between atoms: C_30  and  C_32 
ROOT
HETATM    1  C   UNL     1     -44.730  54.193 -60.140  1.00  0.00     0.052 C 
HETATM    2  C   UNL     1     -45.177  55.596 -59.869  1.00  0.00    -0.015 A 
HETATM    3  C   UNL     1     -44.434  56.373 -58.815  1.00  0.00     0.144 A 
HETATM    4  N   UNL     1     -43.478  55.797 -58.160  1.00  0.00    -0.217 NA
HETATM    5  N   UNL     1     -44.822  57.686 -58.611  1.00  0.00    -0.272 N 
HETATM    6  C   UNL     1     -44.124  58.469 -57.708  1.00  0.00     0.266 C 
HETATM    7  O   UNL     1     -44.297  59.684 -57.572  1.00  0.00    -0.267 OA
HETATM    8  C   UNL     1     -43.095  57.768 -56.877  1.00  0.00     0.074 C 
HETATM    9  C   UNL     1     -42.819  56.479 -57.173  1.00  0.00     0.121 C 
HETATM   10  C   UNL     1     -45.875  58.246 -59.321  1.00  0.00     0.102 A 
HETATM   11  C   UNL     1     -46.563  57.546 -60.231  1.00  0.00     0.018 A 
HETATM   12  C   UNL     1     -46.194  56.186 -60.515  1.00  0.00     0.012 A 
ENDROOT
BRANCH   8  13
HETATM   13  C   UNL     1     -42.484  58.501 -55.776  1.00  0.00     0.045 C 
BRANCH  13  14
HETATM   14  C   UNL     1     -42.908  58.506 -54.505  1.00  0.00     0.077 A 
HETATM   15  S   UNL     1     -44.347  57.820 -53.878  1.00  0.00    -0.055 SA
HETATM   16  C   UNL     1     -44.024  58.406 -52.255  1.00  0.00     0.148 A 
HETATM   17  S   UNL     1     -45.109  58.165 -51.006  1.00  0.00    -0.052 SA
HETATM   18  N   UNL     1     -42.793  59.046 -52.208  1.00  0.00    -0.298 N 
HETATM   19  C   UNL     1     -42.128  59.159 -53.418  1.00  0.00     0.266 A 
HETATM   20  O   UNL     1     -41.054  59.707 -53.624  1.00  0.00    -0.266 OA
BRANCH  18  21
HETATM   21  C   UNL     1     -42.260  59.571 -50.937  1.00  0.00     0.138 C 
BRANCH  21  22
HETATM   22  C   UNL     1     -42.493  61.047 -50.588  1.00  0.00     0.059 C 
BRANCH  22  23
HETATM   23  C   UNL     1     -43.830  61.391 -49.958  1.00  0.00    -0.057 A 
HETATM   24  C   UNL     1     -44.157  61.134 -48.622  1.00  0.00     0.010 A 
HETATM   25  C   UNL     1     -45.396  61.530 -48.104  1.00  0.00     0.037 A 
HETATM   26  C   UNL     1     -46.330  62.189 -48.902  1.00  0.00     0.068 A 
HETATM   27  C   UNL     1     -46.023  62.434 -50.238  1.00  0.00     0.037 A 
HETATM   28  C   UNL     1     -44.785  62.041 -50.758  1.00  0.00     0.010 A 
BRANCH  26  29
HETATM   29  O   UNL     1     -47.489  62.533 -48.264  1.00  0.00    -0.356 OA
HETATM   30  C   UNL     1     -47.359  63.271 -47.056  1.00  0.00     0.210 C 
ENDBRANCH  26  29
ENDBRANCH  22  23
ENDBRANCH  21  22
ENDBRANCH  18  21
ENDBRANCH  13  14
ENDBRANCH   8  13
BRANCH   9  31
HETATM   31  N   UNL     1     -41.894  55.715 -56.466  1.00  0.00    -0.274 NA
HETATM   32  H   UNL     1     -41.313  56.405 -55.974  1.00  0.00     0.129 HD
BRANCH  31  33
HETATM   33  C   UNL     1     -42.312  54.735 -55.447  1.00  0.00     0.130 C 
BRANCH  33  34
HETATM   34  C   UNL     1     -41.554  54.949 -54.113  1.00  0.00     0.164 C 
BRANCH  34  35
HETATM   35  O   UNL     1     -40.609  56.021 -54.256  1.00  0.00    -0.390 OA
HETATM   36  H   UNL     1     -41.076  56.843 -54.024  1.00  0.00     0.210 HD
ENDBRANCH  34  35
BRANCH  34  37
HETATM   37  C   UNL     1     -40.865  53.711 -53.573  1.00  0.00    -0.029 A 
HETATM   38  C   UNL     1     -40.484  52.681 -54.446  1.00  0.00     0.010 A 
HETATM   39  C   UNL     1     -39.860  51.530 -53.960  1.00  0.00     0.001 A 
HETATM   40  C   UNL     1     -39.612  51.393 -52.597  1.00  0.00     0.000 A 
HETATM   41  C   UNL     1     -39.984  52.406 -51.717  1.00  0.00     0.001 A 
HETATM   42  C   UNL     1     -40.607  53.558 -52.202  1.00  0.00     0.010 A 
ENDBRANCH  34  37
ENDBRANCH  33  34
ENDBRANCH  31  33
ENDBRANCH   9  31
TORSDOF 11
ENDMDL
MODEL 5
REMARK VINA RESULT:      -8.0      4.709      8.540
REMARK  11 active torsions:
REMARK  status: ('A' for Active; 'I' for Inactive)
REMARK    1  A    between atoms: C_8  and  C_9 
REMARK    2  A    between atoms: C_9  and  C_10 
REMARK    3  A    between atoms: N_14  and  C_15 
REMARK    4  A    between atoms: C_15  and  C_16 
REMARK    5  A    between atoms: C_16  and  C_17 
REMARK    6  A    between atoms: C_20  and  O_21 
REMARK    7  A    between atoms: C_27  and  N_28 
REMARK    8  A    between atoms: N_28  and  C_29 
REMARK    9  A    between atoms: C_29  and  C_30 
REMARK   10  A    between atoms: C_30  and  O_31 
REMARK   11  A    between atoms: C_30  and  C_32 
ROOT
HETATM    1  C   UNL     1     -43.250  55.590 -59.858  1.00  0.00     0.052 C 
HETATM    2  C   UNL     1     -42.840  56.967 -59.440  1.00  0.00    -0.015 A 
HETATM    3  C   UNL     1     -42.777  57.260 -57.964  1.00  0.00     0.144 A 
HETATM    4  N   UNL     1     -43.117  56.338 -57.122  1.00  0.00    -0.217 NA
HETATM    5  N   UNL     1     -42.346  58.520 -57.590  1.00  0.00    -0.272 N 
HETATM    6  C   UNL     1     -42.197  58.817 -56.246  1.00  0.00     0.266 C 
HETATM    7  O   UNL     1     -41.677  59.854 -55.824  1.00  0.00    -0.267 OA
HETATM    8  C   UNL     1     -42.694  57.788 -55.280  1.00  0.00     0.074 C 
HETATM    9  C   UNL     1     -43.101  56.601 -55.779  1.00  0.00     0.121 C 
HETATM   10  C   UNL     1     -42.022  59.483 -58.537  1.00  0.00     0.102 A 
HETATM   11  C   UNL     1     -42.114  59.240 -59.849  1.00  0.00     0.018 A 
HETATM   12  C   UNL     1     -42.527  57.942 -60.309  1.00  0.00     0.012 A 
ENDROOT
BRANCH   8  13
HETATM   13  C   UNL     1     -42.750  58.141 -53.867  1.00  0.00     0.045 C 
BRANCH  13  14
HETATM   14  C   UNL     1     -43.719  58.849 -53.271  1.00  0.00     0.077 A 
HETATM   15  S   UNL     1     -45.092  59.567 -54.004  1.00  0.00    -0.055 SA
HETATM   16  C   UNL     1     -45.637  60.275 -52.492  1.00  0.00     0.148 A 
HETATM   17  S   UNL     1     -46.989  61.256 -52.423  1.00  0.00    -0.052 SA
HETATM   18  N   UNL     1     -44.805  59.890 -51.450  1.00  0.00    -0.298 N 
HETATM   19  C   UNL     1     -43.711  59.119 -51.807  1.00  0.00     0.266 A 
HETATM   20  O   UNL     1     -42.832  58.695 -51.071  1.00  0.00    -0.266 OA
BRANCH  18  21
HETATM   21  C   UNL     1     -45.089  60.301 -50.063  1.00  0.00     0.138 C 
BRANCH  21  22
HETATM   22  C   UNL     1     -44.120  61.260 -49.360  1.00  0.00     0.059 C 
BRANCH  22  23
HETATM   23  C   UNL     1     -44.607  61.887 -48.066  1.00  0.00    -0.057 A 
HETATM   24  C   UNL     1     -44.816  61.175 -46.879  1.00  0.00     0.010 A 
HETATM   25  C   UNL     1     -45.217  61.837 -45.714  1.00  0.00     0.037 A 
HETATM   26  C   UNL     1     -45.418  63.217 -45.705  1.00  0.00     0.068 A 
HETATM   27  C   UNL     1     -45.231  63.934 -46.884  1.00  0.00     0.037 A 
HETATM   28  C   UNL     1     -44.828  63.275 -48.051  1.00  0.00     0.010 A 
BRANCH  26  29
HETATM   29  O   UNL     1     -45.792  63.735 -44.496  1.00  0.00    -0.356 OA
HETATM   30  C   UNL     1     -44.767  64.331 -43.711  1.00  0.00     0.210 C 
ENDBRANCH  26  29
ENDBRANCH  22  23
ENDBRANCH  21  22
ENDBRANCH  18  21
ENDBRANCH  13  14
ENDBRANCH   8  13
BRANCH   9  31
HETATM   31  N   UNL     1     -43.598  55.569 -54.986  1.00  0.00    -0.274 NA
HETATM   32  H   UNL     1     -44.527  55.368 -55.377  1.00  0.00     0.129 HD
BRANCH  31  33
HETATM   33  C   UNL     1     -42.911  54.269 -54.880  1.00  0.00     0.130 C 
BRANCH  33  34
HETATM   34  C   UNL     1     -41.393  54.452 -54.629  1.00  0.00     0.164 C 
BRANCH  34  35
HETATM   35  O   UNL     1     -40.700  54.559 -55.882  1.00  0.00    -0.390 OA
HETATM   36  H   UNL     1     -41.285  54.182 -56.563  1.00  0.00     0.210 HD
ENDBRANCH  34  35
BRANCH  34  37
HETATM   37  C   UNL     1     -40.762  53.372 -53.771  1.00  0.00    -0.029 A 
HETATM   38  C   UNL     1     -40.562  53.592 -52.400  1.00  0.00     0.010 A 
HETATM   39  C   UNL     1     -39.971  52.611 -51.600  1.00  0.00     0.001 A 
HETATM   40  C   UNL     1     -39.570  51.401 -52.161  1.00  0.00     0.000 A 
HETATM   41  C   UNL     1     -39.761  51.168 -53.521  1.00  0.00     0.001 A 
HETATM   42  C   UNL     1     -40.354  52.147 -54.321  1.00  0.00     0.010 A 
ENDBRANCH  34  37
ENDBRANCH  33  34
ENDBRANCH  31  33
ENDBRANCH   9  31
TORSDOF 11
ENDMDL
MODEL 6
REMARK VINA RESULT:      -7.9      2.904      8.188
REMARK  11 active torsions:
REMARK  status: ('A' for Active; 'I' for Inactive)
REMARK    1  A    between atoms: C_8  and  C_9 
REMARK    2  A    between atoms: C_9  and  C_10 
REMARK    3  A    between atoms: N_14  and  C_15 
REMARK    4  A    between atoms: C_15  and  C_16 
REMARK    5  A    between atoms: C_16  and  C_17 
REMARK    6  A    between atoms: C_20  and  O_21 
REMARK    7  A    between atoms: C_27  and  N_28 
REMARK    8  A    between atoms: N_28  and  C_29 
REMARK    9  A    between atoms: C_29  and  C_30 
REMARK   10  A    between atoms: C_30  and  O_31 
REMARK   11  A    between atoms: C_30  and  C_32 
ROOT
HETATM    1  C   UNL     1     -45.115  54.430 -59.967  1.00  0.00     0.052 C 
HETATM    2  C   UNL     1     -45.671  55.806 -60.157  1.00  0.00    -0.015 A 
HETATM    3  C   UNL     1     -44.918  56.955 -59.539  1.00  0.00     0.144 A 
HETATM    4  N   UNL     1     -43.857  56.712 -58.839  1.00  0.00    -0.217 NA
HETATM    5  N   UNL     1     -45.413  58.227 -59.766  1.00  0.00    -0.272 N 
HETATM    6  C   UNL     1     -44.719  59.323 -59.284  1.00  0.00     0.266 C 
HETATM    7  O   UNL     1     -44.998  60.493 -59.566  1.00  0.00    -0.267 OA
HETATM    8  C   UNL     1     -43.558  59.032 -58.387  1.00  0.00     0.074 C 
HETATM    9  C   UNL     1     -43.185  57.742 -58.239  1.00  0.00     0.121 C 
HETATM   10  C   UNL     1     -46.575  58.429 -60.500  1.00  0.00     0.102 A 
HETATM   11  C   UNL     1     -47.268  57.408 -61.018  1.00  0.00     0.018 A 
HETATM   12  C   UNL     1     -46.794  56.062 -60.846  1.00  0.00     0.012 A 
ENDROOT
BRANCH   8  13
HETATM   13  C   UNL     1     -42.928  60.148 -57.694  1.00  0.00     0.045 C 
BRANCH  13  14
HETATM   14  C   UNL     1     -43.346  60.697 -56.545  1.00  0.00     0.077 A 
HETATM   15  S   UNL     1     -44.715  61.699 -56.301  1.00  0.00    -0.055 SA
HETATM   16  C   UNL     1     -44.350  61.932 -54.600  1.00  0.00     0.148 A 
HETATM   17  S   UNL     1     -45.281  62.931 -53.635  1.00  0.00    -0.052 SA
HETATM   18  N   UNL     1     -43.238  61.185 -54.236  1.00  0.00    -0.298 N 
HETATM   19  C   UNL     1     -42.617  60.494 -55.263  1.00  0.00     0.266 A 
HETATM   20  O   UNL     1     -41.612  59.801 -55.187  1.00  0.00    -0.266 OA
BRANCH  18  21
HETATM   21  C   UNL     1     -42.767  61.159 -52.839  1.00  0.00     0.138 C 
BRANCH  21  22
HETATM   22  C   UNL     1     -43.503  60.277 -51.824  1.00  0.00     0.059 C 
BRANCH  22  23
HETATM   23  C   UNL     1     -42.782  59.021 -51.369  1.00  0.00    -0.057 A 
HETATM   24  C   UNL     1     -43.341  57.740 -51.398  1.00  0.00     0.010 A 
HETATM   25  C   UNL     1     -42.590  56.626 -51.008  1.00  0.00     0.037 A 
HETATM   26  C   UNL     1     -41.269  56.764 -50.585  1.00  0.00     0.068 A 
HETATM   27  C   UNL     1     -40.705  58.036 -50.535  1.00  0.00     0.037 A 
HETATM   28  C   UNL     1     -41.454  59.152 -50.925  1.00  0.00     0.010 A 
BRANCH  26  29
HETATM   29  O   UNL     1     -40.648  55.592 -50.250  1.00  0.00    -0.356 OA
HETATM   30  C   UNL     1     -41.145  54.908 -49.107  1.00  0.00     0.210 C 
ENDBRANCH  26  29
ENDBRANCH  22  23
ENDBRANCH  21  22
ENDBRANCH  18  21
ENDBRANCH  13  14
ENDBRANCH   8  13
BRANCH   9  31
HETATM   31  N   UNL     1     -42.131  57.341 -57.421  1.00  0.00    -0.274 NA
HETATM   32  H   UNL     1     -41.637  58.213 -57.192  1.00  0.00     0.129 HD
BRANCH  31  33
HETATM   33  C   UNL     1     -42.361  56.655 -56.137  1.00  0.00     0.130 C 
BRANCH  33  34
HETATM   34  C   UNL     1     -42.295  55.116 -56.300  1.00  0.00     0.164 C 
BRANCH  34  35
HETATM   35  O   UNL     1     -43.599  54.602 -56.613  1.00  0.00    -0.390 OA
HETATM   36  H   UNL     1     -44.230  55.053 -56.026  1.00  0.00     0.210 HD
ENDBRANCH  34  35
BRANCH  34  37
HETATM   37  C   UNL     1     -41.714  54.380 -55.108  1.00  0.00    -0.029 A 
HETATM   38  C   UNL     1     -40.446  53.787 -55.197  1.00  0.00     0.010 A 
HETATM   39  C   UNL     1     -39.904  53.096 -54.112  1.00  0.00     0.001 A 
HETATM   40  C   UNL     1     -40.623  52.987 -52.924  1.00  0.00     0.000 A 
HETATM   41  C   UNL     1     -41.884  53.570 -52.819  1.00  0.00     0.001 A 
HETATM   42  C   UNL     1     -42.425  54.263 -53.904  1.00  0.00     0.010 A 
ENDBRANCH  34  37
ENDBRANCH  33  34
ENDBRANCH  31  33
ENDBRANCH   9  31
TORSDOF 11
ENDMDL
MODEL 7
REMARK VINA RESULT:      -7.7      3.194      8.176
REMARK  11 active torsions:
REMARK  status: ('A' for Active; 'I' for Inactive)
REMARK    1  A    between atoms: C_8  and  C_9 
REMARK    2  A    between atoms: C_9  and  C_10 
REMARK    3  A    between atoms: N_14  and  C_15 
REMARK    4  A    between atoms: C_15  and  C_16 
REMARK    5  A    between atoms: C_16  and  C_17 
REMARK    6  A    between atoms: C_20  and  O_21 
REMARK    7  A    between atoms: C_27  and  N_28 
REMARK    8  A    between atoms: N_28  and  C_29 
REMARK    9  A    between atoms: C_29  and  C_30 
REMARK   10  A    between atoms: C_30  and  O_31 
REMARK   11  A    between atoms: C_30  and  C_32 
ROOT
HETATM    1  C   UNL     1     -46.801  57.830 -60.815  1.00  0.00     0.052 C 
HETATM    2  C   UNL     1     -45.886  56.760 -60.307  1.00  0.00    -0.015 A 
HETATM    3  C   UNL     1     -44.912  57.133 -59.221  1.00  0.00     0.144 A 
HETATM    4  N   UNL     1     -44.870  58.356 -58.800  1.00  0.00    -0.217 NA
HETATM    5  N   UNL     1     -44.108  56.123 -58.723  1.00  0.00    -0.272 N 
HETATM    6  C   UNL     1     -43.248  56.393 -57.672  1.00  0.00     0.266 C 
HETATM    7  O   UNL     1     -42.609  55.528 -57.065  1.00  0.00    -0.267 OA
HETATM    8  C   UNL     1     -43.126  57.828 -57.266  1.00  0.00     0.074 C 
HETATM    9  C   UNL     1     -43.965  58.718 -57.841  1.00  0.00     0.121 C 
HETATM   10  C   UNL     1     -44.171  54.832 -59.232  1.00  0.00     0.102 A 
HETATM   11  C   UNL     1     -45.008  54.506 -60.224  1.00  0.00     0.018 A 
HETATM   12  C   UNL     1     -45.893  55.500 -60.768  1.00  0.00     0.012 A 
ENDROOT
BRANCH   8  13
HETATM   13  C   UNL     1     -42.087  58.186 -56.310  1.00  0.00     0.045 C 
BRANCH  13  14
HETATM   14  C   UNL     1     -42.224  58.227 -54.977  1.00  0.00     0.077 A 
HETATM   15  S   UNL     1     -43.110  59.365 -54.051  1.00  0.00    -0.055 SA
HETATM   16  C   UNL     1     -42.617  58.640 -52.529  1.00  0.00     0.148 A 
HETATM   17  S   UNL     1     -43.069  59.298 -51.061  1.00  0.00    -0.052 SA
HETATM   18  N   UNL     1     -41.851  57.506 -52.759  1.00  0.00    -0.298 N 
HETATM   19  C   UNL     1     -41.574  57.227 -54.087  1.00  0.00     0.266 A 
HETATM   20  O   UNL     1     -40.898  56.307 -54.525  1.00  0.00    -0.266 OA
BRANCH  18  21
HETATM   21  C   UNL     1     -41.369  56.678 -51.638  1.00  0.00     0.138 C 
BRANCH  21  22
HETATM   22  C   UNL     1     -42.008  55.303 -51.403  1.00  0.00     0.059 C 
BRANCH  22  23
HETATM   23  C   UNL     1     -41.241  54.102 -51.926  1.00  0.00    -0.057 A 
HETATM   24  C   UNL     1     -40.226  53.450 -51.218  1.00  0.00     0.010 A 
HETATM   25  C   UNL     1     -39.603  52.316 -51.750  1.00  0.00     0.037 A 
HETATM   26  C   UNL     1     -39.978  51.808 -52.993  1.00  0.00     0.068 A 
HETATM   27  C   UNL     1     -40.975  52.458 -53.715  1.00  0.00     0.037 A 
HETATM   28  C   UNL     1     -41.601  53.592 -53.185  1.00  0.00     0.010 A 
BRANCH  26  29
HETATM   29  O   UNL     1     -39.299  50.687 -53.384  1.00  0.00    -0.356 OA
HETATM   30  C   UNL     1     -39.842  49.959 -54.478  1.00  0.00     0.210 C 
ENDBRANCH  26  29
ENDBRANCH  22  23
ENDBRANCH  21  22
ENDBRANCH  18  21
ENDBRANCH  13  14
ENDBRANCH   8  13
BRANCH   9  31
HETATM   31  N   UNL     1     -43.940  60.082 -57.558  1.00  0.00    -0.274 NA
HETATM   32  H   UNL     1     -43.427  60.151 -56.670  1.00  0.00     0.129 HD
BRANCH  31  33
HETATM   33  C   UNL     1     -43.310  61.054 -58.469  1.00  0.00     0.130 C 
BRANCH  33  34
HETATM   34  C   UNL     1     -41.768  61.048 -58.323  1.00  0.00     0.164 C 
BRANCH  34  35
HETATM   35  O   UNL     1     -41.400  61.545 -57.027  1.00  0.00    -0.390 OA
HETATM   36  H   UNL     1     -41.715  60.897 -56.374  1.00  0.00     0.210 HD
ENDBRANCH  34  35
BRANCH  34  37
HETATM   37  C   UNL     1     -41.029  61.808 -59.407  1.00  0.00    -0.029 A 
HETATM   38  C   UNL     1     -39.949  62.639 -59.072  1.00  0.00     0.010 A 
HETATM   39  C   UNL     1     -39.268  63.354 -60.058  1.00  0.00     0.001 A 
HETATM   40  C   UNL     1     -39.657  63.249 -61.392  1.00  0.00     0.000 A 
HETATM   41  C   UNL     1     -40.727  62.429 -61.740  1.00  0.00     0.001 A 
HETATM   42  C   UNL     1     -41.408  61.713 -60.755  1.00  0.00     0.010 A 
ENDBRANCH  34  37
ENDBRANCH  33  34
ENDBRANCH  31  33
ENDBRANCH   9  31
TORSDOF 11
ENDMDL
MODEL 8
REMARK VINA RESULT:      -7.7      3.596      8.686
REMARK  11 active torsions:
REMARK  status: ('A' for Active; 'I' for Inactive)
REMARK    1  A    between atoms: C_8  and  C_9 
REMARK    2  A    between atoms: C_9  and  C_10 
REMARK    3  A    between atoms: N_14  and  C_15 
REMARK    4  A    between atoms: C_15  and  C_16 
REMARK    5  A    between atoms: C_16  and  C_17 
REMARK    6  A    between atoms: C_20  and  O_21 
REMARK    7  A    between atoms: C_27  and  N_28 
REMARK    8  A    between atoms: N_28  and  C_29 
REMARK    9  A    between atoms: C_29  and  C_30 
REMARK   10  A    between atoms: C_30  and  O_31 
REMARK   11  A    between atoms: C_30  and  C_32 
ROOT
HETATM    1  C   UNL     1     -44.853  61.028 -47.796  1.00  0.00     0.052 C 
HETATM    2  C   UNL     1     -45.512  61.804 -48.893  1.00  0.00    -0.015 A 
HETATM    3  C   UNL     1     -44.918  61.702 -50.273  1.00  0.00     0.144 A 
HETATM    4  N   UNL     1     -43.851  60.993 -50.452  1.00  0.00    -0.217 NA
HETATM    5  N   UNL     1     -45.566  62.382 -51.289  1.00  0.00    -0.272 N 
HETATM    6  C   UNL     1     -45.107  62.263 -52.589  1.00  0.00     0.266 C 
HETATM    7  O   UNL     1     -45.707  62.704 -53.575  1.00  0.00    -0.267 OA
HETATM    8  C   UNL     1     -43.814  61.533 -52.772  1.00  0.00     0.074 C 
HETATM    9  C   UNL     1     -43.278  60.922 -51.693  1.00  0.00     0.121 C 
HETATM   10  C   UNL     1     -46.692  63.155 -51.036  1.00  0.00     0.102 A 
HETATM   11  C   UNL     1     -47.200  63.279 -49.805  1.00  0.00     0.018 A 
HETATM   12  C   UNL     1     -46.594  62.576 -48.707  1.00  0.00     0.012 A 
ENDROOT
BRANCH   8  13
HETATM   13  C   UNL     1     -43.189  61.560 -54.088  1.00  0.00     0.045 C 
BRANCH  13  14
HETATM   14  C   UNL     1     -43.422  60.697 -55.087  1.00  0.00     0.077 A 
HETATM   15  S   UNL     1     -44.606  60.817 -56.320  1.00  0.00    -0.055 SA
HETATM   16  C   UNL     1     -44.171  59.263 -57.011  1.00  0.00     0.148 A 
HETATM   17  S   UNL     1     -45.005  58.619 -58.309  1.00  0.00    -0.052 SA
HETATM   18  N   UNL     1     -43.086  58.720 -56.336  1.00  0.00    -0.298 N 
HETATM   19  C   UNL     1     -42.631  59.446 -55.247  1.00  0.00     0.266 A 
HETATM   20  O   UNL     1     -41.718  59.150 -54.490  1.00  0.00    -0.266 OA
BRANCH  18  21
HETATM   21  C   UNL     1     -42.486  57.445 -56.769  1.00  0.00     0.138 C 
BRANCH  21  22
HETATM   22  C   UNL     1     -43.142  56.130 -56.331  1.00  0.00     0.059 C 
BRANCH  22  23
HETATM   23  C   UNL     1     -42.307  55.218 -55.450  1.00  0.00    -0.057 A 
HETATM   24  C   UNL     1     -42.659  53.903 -55.126  1.00  0.00     0.010 A 
HETATM   25  C   UNL     1     -41.807  53.109 -54.349  1.00  0.00     0.037 A 
HETATM   26  C   UNL     1     -40.592  53.607 -53.881  1.00  0.00     0.068 A 
HETATM   27  C   UNL     1     -40.239  54.919 -54.182  1.00  0.00     0.037 A 
HETATM   28  C   UNL     1     -41.088  55.715 -54.960  1.00  0.00     0.010 A 
BRANCH  26  29
HETATM   29  O   UNL     1     -39.852  52.719 -53.149  1.00  0.00    -0.356 OA
HETATM   30  C   UNL     1     -39.860  51.367 -53.586  1.00  0.00     0.210 C 
ENDBRANCH  26  29
ENDBRANCH  22  23
ENDBRANCH  21  22
ENDBRANCH  18  21
ENDBRANCH  13  14
ENDBRANCH   8  13
BRANCH   9  31
HETATM   31  N   UNL     1     -42.072  60.225 -51.731  1.00  0.00    -0.274 NA
HETATM   32  H   UNL     1     -41.360  60.951 -51.883  1.00  0.00     0.129 HD
BRANCH  31  33
HETATM   33  C   UNL     1     -41.599  59.427 -50.585  1.00  0.00     0.130 C 
BRANCH  33  34
HETATM   34  C   UNL     1     -40.760  58.212 -51.053  1.00  0.00     0.164 C 
BRANCH  34  35
HETATM   35  O   UNL     1     -40.164  58.492 -52.329  1.00  0.00    -0.390 OA
HETATM   36  H   UNL     1     -39.656  59.315 -52.230  1.00  0.00     0.210 HD
ENDBRANCH  34  35
BRANCH  34  37
HETATM   37  C   UNL     1     -41.522  56.901 -51.105  1.00  0.00    -0.029 A 
HETATM   38  C   UNL     1     -42.710  56.808 -51.845  1.00  0.00     0.010 A 
HETATM   39  C   UNL     1     -43.428  55.611 -51.892  1.00  0.00     0.001 A 
HETATM   40  C   UNL     1     -42.969  54.494 -51.197  1.00  0.00     0.000 A 
HETATM   41  C   UNL     1     -41.791  54.571 -50.458  1.00  0.00     0.001 A 
HETATM   42  C   UNL     1     -41.072  55.767 -50.412  1.00  0.00     0.010 A 
ENDBRANCH  34  37
ENDBRANCH  33  34
ENDBRANCH  31  33
ENDBRANCH   9  31
TORSDOF 11
ENDMDL
MODEL 9
REMARK VINA RESULT:      -7.6      2.708      8.564
REMARK  11 active torsions:
REMARK  status: ('A' for Active; 'I' for Inactive)
REMARK    1  A    between atoms: C_8  and  C_9 
REMARK    2  A    between atoms: C_9  and  C_10 
REMARK    3  A    between atoms: N_14  and  C_15 
REMARK    4  A    between atoms: C_15  and  C_16 
REMARK    5  A    between atoms: C_16  and  C_17 
REMARK    6  A    between atoms: C_20  and  O_21 
REMARK    7  A    between atoms: C_27  and  N_28 
REMARK    8  A    between atoms: N_28  and  C_29 
REMARK    9  A    between atoms: C_29  and  C_30 
REMARK   10  A    between atoms: C_30  and  O_31 
REMARK   11  A    between atoms: C_30  and  C_32 
ROOT
HETATM    1  C   UNL     1     -44.248  59.956 -61.352  1.00  0.00     0.052 C 
HETATM    2  C   UNL     1     -44.368  60.912 -60.206  1.00  0.00    -0.015 A 
HETATM    3  C   UNL     1     -43.679  60.548 -58.918  1.00  0.00     0.144 A 
HETATM    4  N   UNL     1     -43.052  59.419 -58.833  1.00  0.00    -0.217 NA
HETATM    5  N   UNL     1     -43.753  61.464 -57.884  1.00  0.00    -0.272 N 
HETATM    6  C   UNL     1     -43.074  61.214 -56.703  1.00  0.00     0.266 C 
HETATM    7  O   UNL     1     -42.957  62.036 -55.790  1.00  0.00    -0.267 OA
HETATM    8  C   UNL     1     -42.446  59.863 -56.572  1.00  0.00     0.074 C 
HETATM    9  C   UNL     1     -42.454  59.057 -57.657  1.00  0.00     0.121 C 
HETATM   10  C   UNL     1     -44.465  62.649 -58.018  1.00  0.00     0.102 A 
HETATM   11  C   UNL     1     -45.112  62.958 -59.148  1.00  0.00     0.018 A 
HETATM   12  C   UNL     1     -45.052  62.065 -60.274  1.00  0.00     0.012 A 
ENDROOT
BRANCH   8  13
HETATM   13  C   UNL     1     -41.902  59.480 -55.276  1.00  0.00     0.045 C 
BRANCH  13  14
HETATM   14  C   UNL     1     -42.561  58.826 -54.309  1.00  0.00     0.077 A 
HETATM   15  S   UNL     1     -43.843  59.413 -53.335  1.00  0.00    -0.055 SA
HETATM   16  C   UNL     1     -43.931  57.928 -52.403  1.00  0.00     0.148 A 
HETATM   17  S   UNL     1     -44.988  57.763 -51.119  1.00  0.00    -0.052 SA
HETATM   18  N   UNL     1     -43.035  56.992 -52.899  1.00  0.00    -0.298 N 
HETATM   19  C   UNL     1     -42.228  57.424 -53.939  1.00  0.00     0.266 A 
HETATM   20  O   UNL     1     -41.351  56.789 -54.508  1.00  0.00    -0.266 OA
BRANCH  18  21
HETATM   21  C   UNL     1     -42.963  55.635 -52.326  1.00  0.00     0.138 C 
BRANCH  21  22
HETATM   22  C   UNL     1     -41.689  55.209 -51.585  1.00  0.00     0.059 C 
BRANCH  22  23
HETATM   23  C   UNL     1     -40.977  53.978 -52.116  1.00  0.00    -0.057 A 
HETATM   24  C   UNL     1     -40.168  53.142 -51.339  1.00  0.00     0.010 A 
HETATM   25  C   UNL     1     -39.587  51.997 -51.894  1.00  0.00     0.037 A 
HETATM   26  C   UNL     1     -39.800  51.660 -53.230  1.00  0.00     0.068 A 
HETATM   27  C   UNL     1     -40.588  52.492 -54.019  1.00  0.00     0.037 A 
HETATM   28  C   UNL     1     -41.172  53.638 -53.466  1.00  0.00     0.010 A 
BRANCH  26  29
HETATM   29  O   UNL     1     -39.187  50.506 -53.635  1.00  0.00    -0.356 OA
HETATM   30  C   UNL     1     -39.855  49.744 -54.633  1.00  0.00     0.210 C 
ENDBRANCH  26  29
ENDBRANCH  22  23
ENDBRANCH  21  22
ENDBRANCH  18  21
ENDBRANCH  13  14
ENDBRANCH   8  13
BRANCH   9  31
HETATM   31  N   UNL     1     -41.914  57.773 -57.658  1.00  0.00    -0.274 NA
HETATM   32  H   UNL     1     -41.317  57.745 -56.822  1.00  0.00     0.129 HD
BRANCH  31  33
HETATM   33  C   UNL     1     -42.766  56.572 -57.589  1.00  0.00     0.130 C 
BRANCH  33  34
HETATM   34  C   UNL     1     -42.990  55.957 -58.993  1.00  0.00     0.164 C 
BRANCH  34  35
HETATM   35  O   UNL     1     -42.016  56.474 -59.913  1.00  0.00    -0.390 OA
HETATM   36  H   UNL     1     -41.494  57.139 -59.430  1.00  0.00     0.210 HD
ENDBRANCH  34  35
BRANCH  34  37
HETATM   37  C   UNL     1     -44.388  56.145 -59.548  1.00  0.00    -0.029 A 
HETATM   38  C   UNL     1     -45.306  56.967 -58.878  1.00  0.00     0.010 A 
HETATM   39  C   UNL     1     -46.601  57.139 -59.371  1.00  0.00     0.001 A 
HETATM   40  C   UNL     1     -46.995  56.491 -60.539  1.00  0.00     0.000 A 
HETATM   41  C   UNL     1     -46.095  55.672 -61.217  1.00  0.00     0.001 A 
HETATM   42  C   UNL     1     -44.800  55.500 -60.725  1.00  0.00     0.010 A 
ENDBRANCH  34  37
ENDBRANCH  33  34
ENDBRANCH  31  33
ENDBRANCH   9  31
TORSDOF 11
ENDMDL
MODEL 10
REMARK VINA RESULT:      -7.3      2.775      8.563
REMARK  11 active torsions:
REMARK  status: ('A' for Active; 'I' for Inactive)
REMARK    1  A    between atoms: C_8  and  C_9 
REMARK    2  A    between atoms: C_9  and  C_10 
REMARK    3  A    between atoms: N_14  and  C_15 
REMARK    4  A    between atoms: C_15  and  C_16 
REMARK    5  A    between atoms: C_16  and  C_17 
REMARK    6  A    between atoms: C_20  and  O_21 
REMARK    7  A    between atoms: C_27  and  N_28 
REMARK    8  A    between atoms: N_28  and  C_29 
REMARK    9  A    between atoms: C_29  and  C_30 
REMARK   10  A    between atoms: C_30  and  O_31 
REMARK   11  A    between atoms: C_30  and  C_32 
ROOT
HETATM    1  C   UNL     1     -46.616  56.966 -60.278  1.00  0.00     0.052 C 
HETATM    2  C   UNL     1     -46.602  58.442 -60.036  1.00  0.00    -0.015 A 
HETATM    3  C   UNL     1     -45.480  59.002 -59.201  1.00  0.00     0.144 A 
HETATM    4  N   UNL     1     -44.606  58.194 -58.693  1.00  0.00    -0.217 NA
HETATM    5  N   UNL     1     -45.448  60.374 -59.028  1.00  0.00    -0.272 N 
HETATM    6  C   UNL     1     -44.398  60.949 -58.333  1.00  0.00     0.266 C 
HETATM    7  O   UNL     1     -44.204  62.166 -58.260  1.00  0.00    -0.267 OA
HETATM    8  C   UNL     1     -43.454  60.005 -57.657  1.00  0.00     0.074 C 
HETATM    9  C   UNL     1     -43.604  58.684 -57.901  1.00  0.00     0.121 C 
HETATM   10  C   UNL     1     -46.430  61.193 -59.571  1.00  0.00     0.102 A 
HETATM   11  C   UNL     1     -47.449  60.696 -60.281  1.00  0.00     0.018 A 
HETATM   12  C   UNL     1     -47.528  59.282 -60.524  1.00  0.00     0.012 A 
ENDROOT
BRANCH   8  13
HETATM   13  C   UNL     1     -42.460  60.559 -56.748  1.00  0.00     0.045 C 
BRANCH  13  14
HETATM   14  C   UNL     1     -42.623  60.761 -55.433  1.00  0.00     0.077 A 
HETATM   15  S   UNL     1     -43.382  62.092 -54.665  1.00  0.00    -0.055 SA
HETATM   16  C   UNL     1     -43.020  61.483 -53.059  1.00  0.00     0.148 A 
HETATM   17  S   UNL     1     -43.422  62.347 -51.685  1.00  0.00    -0.052 SA
HETATM   18  N   UNL     1     -42.395  60.246 -53.139  1.00  0.00    -0.298 N 
HETATM   19  C   UNL     1     -42.124  59.792 -54.420  1.00  0.00     0.266 A 
HETATM   20  O   UNL     1     -41.556  58.755 -54.733  1.00  0.00    -0.266 OA
BRANCH  18  21
HETATM   21  C   UNL     1     -42.047  59.493 -51.921  1.00  0.00     0.138 C 
BRANCH  21  22
HETATM   22  C   UNL     1     -43.078  58.525 -51.326  1.00  0.00     0.059 C 
BRANCH  22  23
HETATM   23  C   UNL     1     -42.641  57.080 -51.174  1.00  0.00    -0.057 A 
HETATM   24  C   UNL     1     -43.386  55.984 -51.622  1.00  0.00     0.010 A 
HETATM   25  C   UNL     1     -42.887  54.683 -51.489  1.00  0.00     0.037 A 
HETATM   26  C   UNL     1     -41.641  54.447 -50.911  1.00  0.00     0.068 A 
HETATM   27  C   UNL     1     -40.898  55.528 -50.445  1.00  0.00     0.037 A 
HETATM   28  C   UNL     1     -41.393  56.831 -50.577  1.00  0.00     0.010 A 
BRANCH  26  29
HETATM   29  O   UNL     1     -41.271  53.132 -50.860  1.00  0.00    -0.356 OA
HETATM   30  C   UNL     1     -39.877  52.857 -50.911  1.00  0.00     0.210 C 
ENDBRANCH  26  29
ENDBRANCH  22  23
ENDBRANCH  21  22
ENDBRANCH  18  21
ENDBRANCH  13  14
ENDBRANCH   8  13
BRANCH   9  31
HETATM   31  N   UNL     1     -42.799  57.705 -57.321  1.00  0.00    -0.274 NA
HETATM   32  H   UNL     1     -42.737  57.976 -56.332  1.00  0.00     0.129 HD
BRANCH  31  33
HETATM   33  C   UNL     1     -43.178  56.281 -57.330  1.00  0.00     0.130 C 
BRANCH  33  34
HETATM   34  C   UNL     1     -43.417  55.751 -55.894  1.00  0.00     0.164 C 
BRANCH  34  35
HETATM   35  O   UNL     1     -43.661  56.850 -55.003  1.00  0.00    -0.390 OA
HETATM   36  H   UNL     1     -43.417  56.551 -54.110  1.00  0.00     0.210 HD
ENDBRANCH  34  35
BRANCH  34  37
HETATM   37  C   UNL     1     -42.305  54.873 -55.353  1.00  0.00    -0.029 A 
HETATM   38  C   UNL     1     -42.583  53.560 -54.943  1.00  0.00     0.010 A 
HETATM   39  C   UNL     1     -41.572  52.745 -54.432  1.00  0.00     0.001 A 
HETATM   40  C   UNL     1     -40.271  53.231 -54.321  1.00  0.00     0.000 A 
HETATM   41  C   UNL     1     -39.979  54.532 -54.724  1.00  0.00     0.001 A 
HETATM   42  C   UNL     1     -40.990  55.348 -55.237  1.00  0.00     0.010 A 
ENDBRANCH  34  37
ENDBRANCH  33  34
ENDBRANCH  31  33
ENDBRANCH   9  31
TORSDOF 11
ENDMDL
