MODEL 1
REMARK VINA RESULT:      -8.7      0.000      0.000
REMARK  4 active torsions:
REMARK  status: ('A' for Active; 'I' for Inactive)
REMARK       I    between atoms: N_6  and  C_7 
REMARK    1  A    between atoms: C_7  and  C_8 
REMARK    2  A    between atoms: C_9  and  N_10 
REMARK       I    between atoms: N_10  and  C_11 
REMARK    3  A    between atoms: C_11  and  C_12 
REMARK    4  A    between atoms: N_20  and  C_21 
ROOT
HETATM    1  C   UNL     1     -41.666  57.372 -52.040  1.00  0.00     0.097 A 
HETATM    2  C   UNL     1     -41.473  56.346 -52.955  1.00  0.00     0.149 A 
HETATM    3  N   UNL     1     -41.250  55.180 -52.216  1.00  0.00    -0.217 N 
HETATM    4  N   UNL     1     -41.448  55.402 -50.892  1.00  0.00    -0.177 NA
HETATM    5  C   UNL     1     -41.706  56.702 -50.799  1.00  0.00     0.160 A 
ENDROOT
BRANCH   2   6
HETATM    6  N   UNL     1     -41.570  56.427 -54.342  1.00  0.00    -0.306 N 
HETATM    7  C   UNL     1     -42.825  56.380 -55.031  1.00  0.00     0.258 C 
HETATM    8  O   UNL     1     -43.877  56.349 -54.411  1.00  0.00    -0.267 OA
HETATM    9  H   UNL     1     -40.723  56.652 -54.858  1.00  0.00     0.170 HD
BRANCH   7  10
HETATM   10  C   UNL     1     -42.735  56.647 -56.482  1.00  0.00     0.049 A 
HETATM   11  C   UNL     1     -42.557  57.932 -57.005  1.00  0.00     0.026 A 
HETATM   12 BR   UNL     1     -42.228  59.449 -55.916  1.00  0.00    -0.050 Br
HETATM   13  C   UNL     1     -42.607  58.128 -58.388  1.00  0.00     0.020 A 
HETATM   14  C   UNL     1     -42.838  57.047 -59.242  1.00  0.00     0.001 A 
HETATM   15  C   UNL     1     -43.003  55.764 -58.721  1.00  0.00     0.001 A 
HETATM   16  C   UNL     1     -42.945  55.559 -57.342  1.00  0.00     0.018 A 
ENDBRANCH   7  10
ENDBRANCH   2   6
BRANCH   1  17
HETATM   17  C   UNL     1     -41.972  58.765 -52.305  1.00  0.00     0.259 C 
HETATM   18  N   UNL     1     -43.314  59.132 -52.474  1.00  0.00    -0.345 N 
HETATM   19  C   UNL     1     -43.595  60.490 -52.960  1.00  0.00     0.154 C 
HETATM   20  C   UNL     1     -44.447  58.475 -51.804  1.00  0.00     0.154 C 
HETATM   21  C   UNL     1     -44.105  61.395 -51.827  1.00  0.00     0.254 C 
HETATM   22  N   UNL     1     -45.335  60.750 -51.185  1.00  0.00    -0.072 N 
HETATM   23  C   UNL     1     -45.933  61.620 -50.115  1.00  0.00     0.269 C 
HETATM   24  H   UNL     1     -46.051  60.658 -51.919  1.00  0.00     0.279 HD
HETATM   25  C   UNL     1     -45.018  59.352 -50.668  1.00  0.00     0.254 C 
HETATM   26  O   UNL     1     -41.075  59.599 -52.414  1.00  0.00    -0.267 OA
ENDBRANCH   1  17
BRANCH   3  27
HETATM   27  C   UNL     1     -40.799  53.901 -52.668  1.00  0.00     0.060 A 
HETATM   28  C   UNL     1     -41.027  53.447 -53.975  1.00  0.00     0.031 A 
HETATM   29  C   UNL     1     -40.557  52.193 -54.379  1.00  0.00     0.002 A 
HETATM   30  C   UNL     1     -39.842  51.393 -53.494  1.00  0.00     0.000 A 
HETATM   31  C   UNL     1     -39.588  51.845 -52.202  1.00  0.00     0.002 A 
HETATM   32  C   UNL     1     -40.061  53.092 -51.788  1.00  0.00     0.031 A 
ENDBRANCH   3  27
TORSDOF 4
ENDMDL
MODEL 2
REMARK VINA RESULT:      -8.5      1.981      5.112
REMARK  4 active torsions:
REMARK  status: ('A' for Active; 'I' for Inactive)
REMARK       I    between atoms: N_6  and  C_7 
REMARK    1  A    between atoms: C_7  and  C_8 
REMARK    2  A    between atoms: C_9  and  N_10 
REMARK       I    between atoms: N_10  and  C_11 
REMARK    3  A    between atoms: C_11  and  C_12 
REMARK    4  A    between atoms: N_20  and  C_21 
ROOT
HETATM    1  C   UNL     1     -42.263  59.812 -54.737  1.00  0.00     0.097 A 
HETATM    2  C   UNL     1     -42.094  58.575 -55.345  1.00  0.00     0.149 A 
HETATM    3  N   UNL     1     -42.366  58.750 -56.705  1.00  0.00    -0.217 N 
HETATM    4  N   UNL     1     -42.544  60.064 -56.996  1.00  0.00    -0.177 NA
HETATM    5  C   UNL     1     -42.469  60.686 -55.825  1.00  0.00     0.160 A 
ENDROOT
BRANCH   2   6
HETATM    6  N   UNL     1     -41.651  57.398 -54.746  1.00  0.00    -0.306 N 
HETATM    7  C   UNL     1     -42.524  56.532 -54.010  1.00  0.00     0.258 C 
HETATM    8  O   UNL     1     -43.724  56.759 -53.951  1.00  0.00    -0.267 OA
HETATM    9  H   UNL     1     -40.703  57.096 -54.952  1.00  0.00     0.170 HD
BRANCH   7  10
HETATM   10  C   UNL     1     -41.909  55.256 -53.593  1.00  0.00     0.049 A 
HETATM   11  C   UNL     1     -41.310  55.078 -52.340  1.00  0.00     0.026 A 
HETATM   12 BR   UNL     1     -41.382  56.388 -50.971  1.00  0.00    -0.050 Br
HETATM   13  C   UNL     1     -40.637  53.885 -52.060  1.00  0.00     0.020 A 
HETATM   14  C   UNL     1     -40.558  52.880 -53.026  1.00  0.00     0.001 A 
HETATM   15  C   UNL     1     -41.165  53.053 -54.270  1.00  0.00     0.001 A 
HETATM   16  C   UNL     1     -41.847  54.236 -54.553  1.00  0.00     0.018 A 
ENDBRANCH   7  10
ENDBRANCH   2   6
BRANCH   1  17
HETATM   17  C   UNL     1     -42.060  60.164 -53.344  1.00  0.00     0.259 C 
HETATM   18  N   UNL     1     -43.037  60.939 -52.704  1.00  0.00    -0.345 N 
HETATM   19  C   UNL     1     -42.720  61.474 -51.373  1.00  0.00     0.154 C 
HETATM   20  C   UNL     1     -44.474  60.893 -53.018  1.00  0.00     0.154 C 
HETATM   21  C   UNL     1     -43.454  60.698 -50.267  1.00  0.00     0.254 C 
HETATM   22  N   UNL     1     -44.957  60.723 -50.551  1.00  0.00    -0.072 N 
HETATM   23  C   UNL     1     -45.745  60.044 -49.466  1.00  0.00     0.269 C 
HETATM   24  H   UNL     1     -45.252  61.709 -50.553  1.00  0.00     0.279 HD
HETATM   25  C   UNL     1     -45.268  60.144 -51.926  1.00  0.00     0.254 C 
HETATM   26  O   UNL     1     -41.039  59.823 -52.749  1.00  0.00    -0.267 OA
ENDBRANCH   1  17
BRANCH   3  27
HETATM   27  C   UNL     1     -42.536  57.762 -57.723  1.00  0.00     0.060 A 
HETATM   28  C   UNL     1     -43.271  56.587 -57.508  1.00  0.00     0.031 A 
HETATM   29  C   UNL     1     -43.422  55.650 -58.537  1.00  0.00     0.002 A 
HETATM   30  C   UNL     1     -42.863  55.886 -59.788  1.00  0.00     0.000 A 
HETATM   31  C   UNL     1     -42.153  57.062 -60.019  1.00  0.00     0.002 A 
HETATM   32  C   UNL     1     -41.990  57.997 -58.995  1.00  0.00     0.031 A 
ENDBRANCH   3  27
TORSDOF 4
ENDMDL
MODEL 3
REMARK VINA RESULT:      -8.5      2.766      6.323
REMARK  4 active torsions:
REMARK  status: ('A' for Active; 'I' for Inactive)
REMARK       I    between atoms: N_6  and  C_7 
REMARK    1  A    between atoms: C_7  and  C_8 
REMARK    2  A    between atoms: C_9  and  N_10 
REMARK       I    between atoms: N_10  and  C_11 
REMARK    3  A    between atoms: C_11  and  C_12 
REMARK    4  A    between atoms: N_20  and  C_21 
ROOT
HETATM    1  C   UNL     1     -42.317  58.932 -55.919  1.00  0.00     0.097 A 
HETATM    2  C   UNL     1     -41.824  58.449 -54.714  1.00  0.00     0.149 A 
HETATM    3  N   UNL     1     -41.943  59.484 -53.782  1.00  0.00    -0.217 N 
HETATM    4  N   UNL     1     -42.627  60.531 -54.309  1.00  0.00    -0.177 NA
HETATM    5  C   UNL     1     -42.855  60.190 -55.572  1.00  0.00     0.160 A 
ENDROOT
BRANCH   2   6
HETATM    6  N   UNL     1     -41.377  57.157 -54.447  1.00  0.00    -0.306 N 
HETATM    7  C   UNL     1     -42.236  56.138 -53.918  1.00  0.00     0.258 C 
HETATM    8  O   UNL     1     -43.429  56.349 -53.759  1.00  0.00    -0.267 OA
HETATM    9  H   UNL     1     -40.442  56.911 -54.759  1.00  0.00     0.170 HD
BRANCH   7  10
HETATM   10  C   UNL     1     -41.624  54.795 -53.858  1.00  0.00     0.049 A 
HETATM   11  C   UNL     1     -41.566  54.042 -52.680  1.00  0.00     0.026 A 
HETATM   12 BR   UNL     1     -42.423  54.575 -51.075  1.00  0.00    -0.050 Br
HETATM   13  C   UNL     1     -40.862  52.834 -52.667  1.00  0.00     0.020 A 
HETATM   14  C   UNL     1     -40.216  52.385 -53.821  1.00  0.00     0.001 A 
HETATM   15  C   UNL     1     -40.285  53.130 -54.998  1.00  0.00     0.001 A 
HETATM   16  C   UNL     1     -40.994  54.331 -55.022  1.00  0.00     0.018 A 
ENDBRANCH   7  10
ENDBRANCH   2   6
BRANCH   1  17
HETATM   17  C   UNL     1     -42.449  58.230 -57.182  1.00  0.00     0.259 C 
HETATM   18  N   UNL     1     -43.545  57.373 -57.356  1.00  0.00    -0.345 N 
HETATM   19  C   UNL     1     -43.550  56.503 -58.540  1.00  0.00     0.154 C 
HETATM   20  C   UNL     1     -44.865  57.575 -56.740  1.00  0.00     0.154 C 
HETATM   21  C   UNL     1     -44.532  57.014 -59.607  1.00  0.00     0.254 C 
HETATM   22  N   UNL     1     -45.924  57.143 -58.985  1.00  0.00    -0.072 N 
HETATM   23  C   UNL     1     -46.953  57.569 -59.995  1.00  0.00     0.269 C 
HETATM   24  H   UNL     1     -46.203  56.207 -58.661  1.00  0.00     0.279 HD
HETATM   25  C   UNL     1     -45.903  58.067 -57.772  1.00  0.00     0.254 C 
HETATM   26  O   UNL     1     -41.602  58.354 -58.064  1.00  0.00    -0.267 OA
ENDBRANCH   1  17
BRANCH   3  27
HETATM   27  C   UNL     1     -41.398  59.575 -52.465  1.00  0.00     0.060 A 
HETATM   28  C   UNL     1     -42.148  60.043 -51.376  1.00  0.00     0.031 A 
HETATM   29  C   UNL     1     -41.579  60.104 -50.099  1.00  0.00     0.002 A 
HETATM   30  C   UNL     1     -40.270  59.682 -49.894  1.00  0.00     0.000 A 
HETATM   31  C   UNL     1     -39.524  59.192 -50.963  1.00  0.00     0.002 A 
HETATM   32  C   UNL     1     -40.082  59.136 -52.242  1.00  0.00     0.031 A 
ENDBRANCH   3  27
TORSDOF 4
ENDMDL
MODEL 4
REMARK VINA RESULT:      -8.1      1.359      2.009
REMARK  4 active torsions:
REMARK  status: ('A' for Active; 'I' for Inactive)
REMARK       I    between atoms: N_6  and  C_7 
REMARK    1  A    between atoms: C_7  and  C_8 
REMARK    2  A    between atoms: C_9  and  N_10 
REMARK       I    between atoms: N_10  and  C_11 
REMARK    3  A    between atoms: C_11  and  C_12 
REMARK    4  A    between atoms: N_20  and  C_21 
ROOT
HETATM    1  C   UNL     1     -41.812  58.123 -51.784  1.00  0.00     0.097 A 
HETATM    2  C   UNL     1     -41.571  57.325 -52.895  1.00  0.00     0.149 A 
HETATM    3  N   UNL     1     -41.444  56.012 -52.431  1.00  0.00    -0.217 N 
HETATM    4  N   UNL     1     -41.747  55.934 -51.111  1.00  0.00    -0.177 NA
HETATM    5  C   UNL     1     -41.976  57.189 -50.739  1.00  0.00     0.160 A 
ENDROOT
BRANCH   2   6
HETATM    6  N   UNL     1     -41.547  57.726 -54.228  1.00  0.00    -0.306 N 
HETATM    7  C   UNL     1     -42.735  57.831 -55.023  1.00  0.00     0.258 C 
HETATM    8  O   UNL     1     -43.836  57.650 -54.526  1.00  0.00    -0.267 OA
HETATM    9  H   UNL     1     -40.665  58.070 -54.597  1.00  0.00     0.170 HD
BRANCH   7  10
HETATM   10  C   UNL     1     -42.525  58.428 -56.358  1.00  0.00     0.049 A 
HETATM   11  C   UNL     1     -42.524  57.670 -57.534  1.00  0.00     0.026 A 
HETATM   12 BR   UNL     1     -42.970  55.828 -57.570  1.00  0.00    -0.050 Br
HETATM   13  C   UNL     1     -42.195  58.280 -58.748  1.00  0.00     0.020 A 
HETATM   14  C   UNL     1     -41.864  59.637 -58.785  1.00  0.00     0.001 A 
HETATM   15  C   UNL     1     -41.879  60.395 -57.615  1.00  0.00     0.001 A 
HETATM   16  C   UNL     1     -42.216  59.795 -56.401  1.00  0.00     0.018 A 
ENDBRANCH   7  10
ENDBRANCH   2   6
BRANCH   1  17
HETATM   17  C   UNL     1     -42.055  59.552 -51.741  1.00  0.00     0.259 C 
HETATM   18  N   UNL     1     -43.358  60.013 -51.978  1.00  0.00    -0.345 N 
HETATM   19  C   UNL     1     -43.549  61.459 -52.154  1.00  0.00     0.154 C 
HETATM   20  C   UNL     1     -44.580  59.273 -51.627  1.00  0.00     0.154 C 
HETATM   21  C   UNL     1     -44.184  62.095 -50.906  1.00  0.00     0.254 C 
HETATM   22  N   UNL     1     -45.498  61.378 -50.592  1.00  0.00    -0.072 N 
HETATM   23  C   UNL     1     -46.212  61.999 -49.424  1.00  0.00     0.269 C 
HETATM   24  H   UNL     1     -46.115  61.496 -51.408  1.00  0.00     0.279 HD
HETATM   25  C   UNL     1     -45.276  59.883 -50.392  1.00  0.00     0.254 C 
HETATM   26  O   UNL     1     -41.136  60.343 -51.538  1.00  0.00    -0.267 OA
ENDBRANCH   1  17
BRANCH   3  27
HETATM   27  C   UNL     1     -40.992  54.851 -53.131  1.00  0.00     0.060 A 
HETATM   28  C   UNL     1     -40.904  53.594 -52.515  1.00  0.00     0.031 A 
HETATM   29  C   UNL     1     -40.467  52.480 -53.241  1.00  0.00     0.002 A 
HETATM   30  C   UNL     1     -40.136  52.605 -54.586  1.00  0.00     0.000 A 
HETATM   31  C   UNL     1     -40.244  53.844 -55.214  1.00  0.00     0.002 A 
HETATM   32  C   UNL     1     -40.671  54.961 -54.494  1.00  0.00     0.031 A 
ENDBRANCH   3  27
TORSDOF 4
ENDMDL
MODEL 5
REMARK VINA RESULT:      -8.1      2.248      5.244
REMARK  4 active torsions:
REMARK  status: ('A' for Active; 'I' for Inactive)
REMARK       I    between atoms: N_6  and  C_7 
REMARK    1  A    between atoms: C_7  and  C_8 
REMARK    2  A    between atoms: C_9  and  N_10 
REMARK       I    between atoms: N_10  and  C_11 
REMARK    3  A    between atoms: C_11  and  C_12 
REMARK    4  A    between atoms: N_20  and  C_21 
ROOT
HETATM    1  C   UNL     1     -43.551  59.039 -54.292  1.00  0.00     0.097 A 
HETATM    2  C   UNL     1     -42.958  58.063 -55.082  1.00  0.00     0.149 A 
HETATM    3  N   UNL     1     -43.114  58.467 -56.412  1.00  0.00    -0.217 N 
HETATM    4  N   UNL     1     -43.636  59.718 -56.478  1.00  0.00    -0.177 NA
HETATM    5  C   UNL     1     -43.880  60.053 -55.217  1.00  0.00     0.160 A 
ENDROOT
BRANCH   2   6
HETATM    6  N   UNL     1     -42.260  56.940 -54.647  1.00  0.00    -0.306 N 
HETATM    7  C   UNL     1     -42.914  55.711 -54.305  1.00  0.00     0.258 C 
HETATM    8  O   UNL     1     -44.118  55.579 -54.465  1.00  0.00    -0.267 OA
HETATM    9  H   UNL     1     -41.246  56.970 -54.698  1.00  0.00     0.170 HD
BRANCH   7  10
HETATM   10  C   UNL     1     -41.995  54.588 -54.025  1.00  0.00     0.049 A 
HETATM   11  C   UNL     1     -41.893  53.990 -52.764  1.00  0.00     0.026 A 
HETATM   12 BR   UNL     1     -43.047  54.424 -51.324  1.00  0.00    -0.050 Br
HETATM   13  C   UNL     1     -40.915  53.017 -52.539  1.00  0.00     0.020 A 
HETATM   14  C   UNL     1     -40.041  52.649 -53.565  1.00  0.00     0.001 A 
HETATM   15  C   UNL     1     -40.151  53.237 -54.825  1.00  0.00     0.001 A 
HETATM   16  C   UNL     1     -41.131  54.201 -55.060  1.00  0.00     0.018 A 
ENDBRANCH   7  10
ENDBRANCH   2   6
BRANCH   1  17
HETATM   17  C   UNL     1     -43.620  59.104 -52.845  1.00  0.00     0.259 C 
HETATM   18  N   UNL     1     -42.983  60.170 -52.195  1.00  0.00    -0.345 N 
HETATM   19  C   UNL     1     -42.867  60.107 -50.731  1.00  0.00     0.154 C 
HETATM   20  C   UNL     1     -42.829  61.519 -52.762  1.00  0.00     0.154 C 
HETATM   21  C   UNL     1     -43.863  61.058 -50.049  1.00  0.00     0.254 C 
HETATM   22  N   UNL     1     -43.645  62.477 -50.580  1.00  0.00    -0.072 N 
HETATM   23  C   UNL     1     -44.538  63.476 -49.899  1.00  0.00     0.269 C 
HETATM   24  H   UNL     1     -42.678  62.745 -50.350  1.00  0.00     0.279 HD
HETATM   25  C   UNL     1     -43.791  62.526 -52.096  1.00  0.00     0.254 C 
HETATM   26  O   UNL     1     -44.191  58.226 -52.200  1.00  0.00    -0.267 OA
ENDBRANCH   1  17
BRANCH   3  27
HETATM   27  C   UNL     1     -42.869  57.729 -57.610  1.00  0.00     0.060 A 
HETATM   28  C   UNL     1     -43.451  56.475 -57.848  1.00  0.00     0.031 A 
HETATM   29  C   UNL     1     -43.194  55.791 -59.041  1.00  0.00     0.002 A 
HETATM   30  C   UNL     1     -42.375  56.358 -60.012  1.00  0.00     0.000 A 
HETATM   31  C   UNL     1     -41.813  57.614 -59.798  1.00  0.00     0.002 A 
HETATM   32  C   UNL     1     -42.058  58.298 -58.605  1.00  0.00     0.031 A 
ENDBRANCH   3  27
TORSDOF 4
ENDMDL
MODEL 6
REMARK VINA RESULT:      -8.0      1.665      1.995
REMARK  4 active torsions:
REMARK  status: ('A' for Active; 'I' for Inactive)
REMARK       I    between atoms: N_6  and  C_7 
REMARK    1  A    between atoms: C_7  and  C_8 
REMARK    2  A    between atoms: C_9  and  N_10 
REMARK       I    between atoms: N_10  and  C_11 
REMARK    3  A    between atoms: C_11  and  C_12 
REMARK    4  A    between atoms: N_20  and  C_21 
ROOT
HETATM    1  C   UNL     1     -41.777  58.534 -53.614  1.00  0.00     0.097 A 
HETATM    2  C   UNL     1     -41.705  57.326 -54.293  1.00  0.00     0.149 A 
HETATM    3  N   UNL     1     -41.337  56.355 -53.357  1.00  0.00    -0.217 N 
HETATM    4  N   UNL     1     -41.330  56.872 -52.102  1.00  0.00    -0.177 NA
HETATM    5  C   UNL     1     -41.604  58.161 -52.264  1.00  0.00     0.160 A 
ENDROOT
BRANCH   2   6
HETATM    6  N   UNL     1     -42.021  57.093 -55.629  1.00  0.00    -0.306 N 
HETATM    7  C   UNL     1     -43.366  56.886 -56.079  1.00  0.00     0.258 C 
HETATM    8  O   UNL     1     -44.305  56.990 -55.304  1.00  0.00    -0.267 OA
HETATM    9  H   UNL     1     -41.276  57.201 -56.312  1.00  0.00     0.170 HD
BRANCH   7  10
HETATM   10  C   UNL     1     -43.515  56.820 -57.547  1.00  0.00     0.049 A 
HETATM   11  C   UNL     1     -43.974  57.900 -58.310  1.00  0.00     0.026 A 
HETATM   12 BR   UNL     1     -44.280  59.621 -57.575  1.00  0.00    -0.050 Br
HETATM   13  C   UNL     1     -44.211  57.729 -59.677  1.00  0.00     0.020 A 
HETATM   14  C   UNL     1     -43.996  56.486 -60.276  1.00  0.00     0.001 A 
HETATM   15  C   UNL     1     -43.527  55.413 -59.518  1.00  0.00     0.001 A 
HETATM   16  C   UNL     1     -43.279  55.579 -58.156  1.00  0.00     0.018 A 
ENDBRANCH   7  10
ENDBRANCH   2   6
BRANCH   1  17
HETATM   17  C   UNL     1     -42.158  59.835 -54.132  1.00  0.00     0.259 C 
HETATM   18  N   UNL     1     -43.185  60.535 -53.484  1.00  0.00    -0.345 N 
HETATM   19  C   UNL     1     -43.712  61.738 -54.143  1.00  0.00     0.154 C 
HETATM   20  C   UNL     1     -43.467  60.454 -52.042  1.00  0.00     0.154 C 
HETATM   21  C   UNL     1     -43.208  63.018 -53.456  1.00  0.00     0.254 C 
HETATM   22  N   UNL     1     -43.577  62.970 -51.972  1.00  0.00    -0.072 N 
HETATM   23  C   UNL     1     -43.179  64.228 -51.252  1.00  0.00     0.269 C 
HETATM   24  H   UNL     1     -44.603  62.912 -51.913  1.00  0.00     0.279 HD
HETATM   25  C   UNL     1     -43.003  61.727 -51.302  1.00  0.00     0.254 C 
HETATM   26  O   UNL     1     -41.619  60.296 -55.136  1.00  0.00    -0.267 OA
ENDBRANCH   1  17
BRANCH   3  27
HETATM   27  C   UNL     1     -40.929  55.003 -53.576  1.00  0.00     0.060 A 
HETATM   28  C   UNL     1     -40.499  54.546 -54.830  1.00  0.00     0.031 A 
HETATM   29  C   UNL     1     -40.097  53.216 -54.998  1.00  0.00     0.002 A 
HETATM   30  C   UNL     1     -40.101  52.340 -53.918  1.00  0.00     0.000 A 
HETATM   31  C   UNL     1     -40.501  52.790 -52.662  1.00  0.00     0.002 A 
HETATM   32  C   UNL     1     -40.912  54.114 -52.489  1.00  0.00     0.031 A 
ENDBRANCH   3  27
TORSDOF 4
ENDMDL
MODEL 7
REMARK VINA RESULT:      -7.9      2.630      5.823
REMARK  4 active torsions:
REMARK  status: ('A' for Active; 'I' for Inactive)
REMARK       I    between atoms: N_6  and  C_7 
REMARK    1  A    between atoms: C_7  and  C_8 
REMARK    2  A    between atoms: C_9  and  N_10 
REMARK       I    between atoms: N_10  and  C_11 
REMARK    3  A    between atoms: C_11  and  C_12 
REMARK    4  A    between atoms: N_20  and  C_21 
ROOT
HETATM    1  C   UNL     1     -43.396  57.238 -56.600  1.00  0.00     0.097 A 
HETATM    2  C   UNL     1     -42.652  56.840 -55.497  1.00  0.00     0.149 A 
HETATM    3  N   UNL     1     -42.277  55.511 -55.718  1.00  0.00    -0.217 N 
HETATM    4  N   UNL     1     -42.619  55.115 -56.971  1.00  0.00    -0.177 NA
HETATM    5  C   UNL     1     -43.270  56.149 -57.490  1.00  0.00     0.160 A 
ENDROOT
BRANCH   2   6
HETATM    6  N   UNL     1     -42.269  57.626 -54.414  1.00  0.00    -0.306 N 
HETATM    7  C   UNL     1     -43.102  57.810 -53.262  1.00  0.00     0.258 C 
HETATM    8  O   UNL     1     -44.159  57.206 -53.153  1.00  0.00    -0.267 OA
HETATM    9  H   UNL     1     -41.314  57.973 -54.401  1.00  0.00     0.170 HD
BRANCH   7  10
HETATM   10  C   UNL     1     -42.456  58.540 -52.152  1.00  0.00     0.049 A 
HETATM   11  C   UNL     1     -42.842  59.829 -51.767  1.00  0.00     0.026 A 
HETATM   12 BR   UNL     1     -44.353  60.711 -52.500  1.00  0.00    -0.050 Br
HETATM   13  C   UNL     1     -42.106  60.509 -50.793  1.00  0.00     0.020 A 
HETATM   14  C   UNL     1     -40.988  59.907 -50.211  1.00  0.00     0.001 A 
HETATM   15  C   UNL     1     -40.610  58.618 -50.585  1.00  0.00     0.001 A 
HETATM   16  C   UNL     1     -41.346  57.929 -51.549  1.00  0.00     0.018 A 
ENDBRANCH   7  10
ENDBRANCH   2   6
BRANCH   1  17
HETATM   17  C   UNL     1     -43.977  58.539 -56.869  1.00  0.00     0.259 C 
HETATM   18  N   UNL     1     -43.128  59.576 -57.281  1.00  0.00    -0.345 N 
HETATM   19  C   UNL     1     -43.685  60.935 -57.333  1.00  0.00     0.154 C 
HETATM   20  C   UNL     1     -41.907  59.384 -58.078  1.00  0.00     0.154 C 
HETATM   21  C   UNL     1     -43.954  61.374 -58.782  1.00  0.00     0.254 C 
HETATM   22  N   UNL     1     -42.660  61.253 -59.590  1.00  0.00    -0.072 N 
HETATM   23  C   UNL     1     -42.832  61.739 -61.002  1.00  0.00     0.269 C 
HETATM   24  H   UNL     1     -41.965  61.873 -59.150  1.00  0.00     0.279 HD
HETATM   25  C   UNL     1     -42.110  59.833 -59.541  1.00  0.00     0.254 C 
HETATM   26  O   UNL     1     -45.180  58.740 -56.704  1.00  0.00    -0.267 OA
ENDBRANCH   1  17
BRANCH   3  27
HETATM   27  C   UNL     1     -41.687  54.580 -54.809  1.00  0.00     0.060 A 
HETATM   28  C   UNL     1     -42.264  54.278 -53.567  1.00  0.00     0.031 A 
HETATM   29  C   UNL     1     -41.658  53.351 -52.712  1.00  0.00     0.002 A 
HETATM   30  C   UNL     1     -40.488  52.704 -53.096  1.00  0.00     0.000 A 
HETATM   31  C   UNL     1     -39.920  52.977 -54.338  1.00  0.00     0.002 A 
HETATM   32  C   UNL     1     -40.514  53.908 -55.192  1.00  0.00     0.031 A 
ENDBRANCH   3  27
TORSDOF 4
ENDMDL
MODEL 8
REMARK VINA RESULT:      -7.9      2.747      6.122
REMARK  4 active torsions:
REMARK  status: ('A' for Active; 'I' for Inactive)
REMARK       I    between atoms: N_6  and  C_7 
REMARK    1  A    between atoms: C_7  and  C_8 
REMARK    2  A    between atoms: C_9  and  N_10 
REMARK       I    between atoms: N_10  and  C_11 
REMARK    3  A    between atoms: C_11  and  C_12 
REMARK    4  A    between atoms: N_20  and  C_21 
ROOT
HETATM    1  C   UNL     1     -43.080  56.729 -56.467  1.00  0.00     0.097 A 
HETATM    2  C   UNL     1     -42.684  56.692 -55.136  1.00  0.00     0.149 A 
HETATM    3  N   UNL     1     -42.418  55.354 -54.829  1.00  0.00    -0.217 N 
HETATM    4  N   UNL     1     -42.479  54.582 -55.943  1.00  0.00    -0.177 NA
HETATM    5  C   UNL     1     -42.860  55.407 -56.910  1.00  0.00     0.160 A 
ENDROOT
BRANCH   2   6
HETATM    6  N   UNL     1     -42.496  57.778 -54.285  1.00  0.00    -0.306 N 
HETATM    7  C   UNL     1     -43.494  58.206 -53.350  1.00  0.00     0.258 C 
HETATM    8  O   UNL     1     -44.528  57.571 -53.207  1.00  0.00    -0.267 OA
HETATM    9  H   UNL     1     -41.569  58.192 -54.252  1.00  0.00     0.170 HD
BRANCH   7  10
HETATM   10  C   UNL     1     -43.048  59.268 -52.424  1.00  0.00     0.049 A 
HETATM   11  C   UNL     1     -42.202  59.018 -51.337  1.00  0.00     0.026 A 
HETATM   12 BR   UNL     1     -41.388  57.332 -51.035  1.00  0.00    -0.050 Br
HETATM   13  C   UNL     1     -41.921  60.044 -50.430  1.00  0.00     0.020 A 
HETATM   14  C   UNL     1     -42.486  61.309 -50.605  1.00  0.00     0.001 A 
HETATM   15  C   UNL     1     -43.318  61.562 -51.696  1.00  0.00     0.001 A 
HETATM   16  C   UNL     1     -43.595  60.546 -52.611  1.00  0.00     0.018 A 
ENDBRANCH   7  10
ENDBRANCH   2   6
BRANCH   1  17
HETATM   17  C   UNL     1     -43.426  57.887 -57.269  1.00  0.00     0.259 C 
HETATM   18  N   UNL     1     -43.700  57.696 -58.630  1.00  0.00    -0.345 N 
HETATM   19  C   UNL     1     -43.828  58.891 -59.476  1.00  0.00     0.154 C 
HETATM   20  C   UNL     1     -44.306  56.480 -59.195  1.00  0.00     0.154 C 
HETATM   21  C   UNL     1     -45.298  59.175 -59.825  1.00  0.00     0.254 C 
HETATM   22  N   UNL     1     -45.904  57.936 -60.488  1.00  0.00    -0.072 N 
HETATM   23  C   UNL     1     -47.323  58.170 -60.925  1.00  0.00     0.269 C 
HETATM   24  H   UNL     1     -45.362  57.751 -61.344  1.00  0.00     0.279 HD
HETATM   25  C   UNL     1     -45.781  56.713 -59.588  1.00  0.00     0.254 C 
HETATM   26  O   UNL     1     -43.443  59.014 -56.777  1.00  0.00    -0.267 OA
ENDBRANCH   1  17
BRANCH   3  27
HETATM   27  C   UNL     1     -42.180  54.755 -53.554  1.00  0.00     0.060 A 
HETATM   28  C   UNL     1     -43.214  54.508 -52.639  1.00  0.00     0.031 A 
HETATM   29  C   UNL     1     -42.939  53.908 -51.406  1.00  0.00     0.002 A 
HETATM   30  C   UNL     1     -41.639  53.531 -51.083  1.00  0.00     0.000 A 
HETATM   31  C   UNL     1     -40.609  53.748 -51.994  1.00  0.00     0.002 A 
HETATM   32  C   UNL     1     -40.874  54.355 -53.223  1.00  0.00     0.031 A 
ENDBRANCH   3  27
TORSDOF 4
ENDMDL
MODEL 9
REMARK VINA RESULT:      -7.7      2.740      6.017
REMARK  4 active torsions:
REMARK  status: ('A' for Active; 'I' for Inactive)
REMARK       I    between atoms: N_6  and  C_7 
REMARK    1  A    between atoms: C_7  and  C_8 
REMARK    2  A    between atoms: C_9  and  N_10 
REMARK       I    between atoms: N_10  and  C_11 
REMARK    3  A    between atoms: C_11  and  C_12 
REMARK    4  A    between atoms: N_20  and  C_21 
ROOT
HETATM    1  C   UNL     1     -43.666  57.487 -56.339  1.00  0.00     0.097 A 
HETATM    2  C   UNL     1     -43.200  57.240 -55.054  1.00  0.00     0.149 A 
HETATM    3  N   UNL     1     -42.666  55.948 -55.057  1.00  0.00    -0.217 N 
HETATM    4  N   UNL     1     -42.636  55.442 -56.316  1.00  0.00    -0.177 NA
HETATM    5  C   UNL     1     -43.219  56.366 -57.070  1.00  0.00     0.160 A 
ENDROOT
BRANCH   2   6
HETATM    6  N   UNL     1     -43.181  58.129 -53.982  1.00  0.00    -0.306 N 
HETATM    7  C   UNL     1     -42.042  58.942 -53.676  1.00  0.00     0.258 C 
HETATM    8  O   UNL     1     -41.062  58.944 -54.406  1.00  0.00    -0.267 OA
HETATM    9  H   UNL     1     -44.055  58.284 -53.487  1.00  0.00     0.170 HD
BRANCH   7  10
HETATM   10  C   UNL     1     -42.271  59.937 -52.607  1.00  0.00     0.049 A 
HETATM   11  C   UNL     1     -41.959  59.691 -51.265  1.00  0.00     0.026 A 
HETATM   12 BR   UNL     1     -41.040  58.135 -50.692  1.00  0.00    -0.050 Br
HETATM   13  C   UNL     1     -42.318  60.627 -50.290  1.00  0.00     0.020 A 
HETATM   14  C   UNL     1     -42.989  61.797 -50.654  1.00  0.00     0.001 A 
HETATM   15  C   UNL     1     -43.289  62.047 -51.993  1.00  0.00     0.001 A 
HETATM   16  C   UNL     1     -42.925  61.123 -52.972  1.00  0.00     0.018 A 
ENDBRANCH   7  10
ENDBRANCH   2   6
BRANCH   1  17
HETATM   17  C   UNL     1     -44.270  58.700 -56.857  1.00  0.00     0.259 C 
HETATM   18  N   UNL     1     -43.431  59.772 -57.191  1.00  0.00    -0.345 N 
HETATM   19  C   UNL     1     -44.062  61.062 -57.500  1.00  0.00     0.154 C 
HETATM   20  C   UNL     1     -42.056  59.628 -57.694  1.00  0.00     0.154 C 
HETATM   21  C   UNL     1     -44.045  61.346 -59.011  1.00  0.00     0.254 C 
HETATM   22  N   UNL     1     -42.602  61.279 -59.517  1.00  0.00    -0.072 N 
HETATM   23  C   UNL     1     -42.502  61.621 -60.977  1.00  0.00     0.269 C 
HETATM   24  H   UNL     1     -42.066  61.997 -59.011  1.00  0.00     0.279 HD
HETATM   25  C   UNL     1     -41.972  59.926 -59.207  1.00  0.00     0.254 C 
HETATM   26  O   UNL     1     -45.491  58.799 -56.967  1.00  0.00    -0.267 OA
ENDBRANCH   1  17
BRANCH   3  27
HETATM   27  C   UNL     1     -42.250  55.144 -53.952  1.00  0.00     0.060 A 
HETATM   28  C   UNL     1     -40.917  54.743 -53.778  1.00  0.00     0.031 A 
HETATM   29  C   UNL     1     -40.551  53.966 -52.674  1.00  0.00     0.002 A 
HETATM   30  C   UNL     1     -41.502  53.600 -51.727  1.00  0.00     0.000 A 
HETATM   31  C   UNL     1     -42.823  54.015 -51.876  1.00  0.00     0.002 A 
HETATM   32  C   UNL     1     -43.198  54.783 -52.980  1.00  0.00     0.031 A 
ENDBRANCH   3  27
TORSDOF 4
ENDMDL
MODEL 10
REMARK VINA RESULT:      -7.7      2.303      6.068
REMARK  4 active torsions:
REMARK  status: ('A' for Active; 'I' for Inactive)
REMARK       I    between atoms: N_6  and  C_7 
REMARK    1  A    between atoms: C_7  and  C_8 
REMARK    2  A    between atoms: C_9  and  N_10 
REMARK       I    between atoms: N_10  and  C_11 
REMARK    3  A    between atoms: C_11  and  C_12 
REMARK    4  A    between atoms: N_20  and  C_21 
ROOT
HETATM    1  C   UNL     1     -43.111  55.807 -55.178  1.00  0.00     0.097 A 
HETATM    2  C   UNL     1     -42.472  56.078 -53.975  1.00  0.00     0.149 A 
HETATM    3  N   UNL     1     -41.798  54.911 -53.601  1.00  0.00    -0.217 N 
HETATM    4  N   UNL     1     -41.859  53.982 -54.588  1.00  0.00    -0.177 NA
HETATM    5  C   UNL     1     -42.629  54.527 -55.523  1.00  0.00     0.160 A 
ENDROOT
BRANCH   2   6
HETATM    6  N   UNL     1     -42.428  57.297 -53.303  1.00  0.00    -0.306 N 
HETATM    7  C   UNL     1     -43.466  57.724 -52.411  1.00  0.00     0.258 C 
HETATM    8  O   UNL     1     -44.400  56.984 -52.141  1.00  0.00    -0.267 OA
HETATM    9  H   UNL     1     -41.567  57.833 -53.362  1.00  0.00     0.170 HD
BRANCH   7  10
HETATM   10  C   UNL     1     -43.161  58.965 -51.670  1.00  0.00     0.049 A 
HETATM   11  C   UNL     1     -43.955  60.114 -51.760  1.00  0.00     0.026 A 
HETATM   12 BR   UNL     1     -45.605  60.154 -52.694  1.00  0.00    -0.050 Br
HETATM   13  C   UNL     1     -43.539  61.291 -51.131  1.00  0.00     0.020 A 
HETATM   14  C   UNL     1     -42.336  61.321 -50.421  1.00  0.00     0.001 A 
HETATM   15  C   UNL     1     -41.552  60.172 -50.321  1.00  0.00     0.001 A 
HETATM   16  C   UNL     1     -41.965  58.991 -50.937  1.00  0.00     0.018 A 
ENDBRANCH   7  10
ENDBRANCH   2   6
BRANCH   1  17
HETATM   17  C   UNL     1     -43.906  56.705 -55.994  1.00  0.00     0.259 C 
HETATM   18  N   UNL     1     -43.583  56.832 -57.352  1.00  0.00    -0.345 N 
HETATM   19  C   UNL     1     -44.243  57.901 -58.115  1.00  0.00     0.154 C 
HETATM   20  C   UNL     1     -43.014  55.754 -58.177  1.00  0.00     0.154 C 
HETATM   21  C   UNL     1     -45.338  57.338 -59.035  1.00  0.00     0.254 C 
HETATM   22  N   UNL     1     -44.727  56.275 -59.951  1.00  0.00    -0.072 N 
HETATM   23  C   UNL     1     -45.729  55.734 -60.931  1.00  0.00     0.269 C 
HETATM   24  H   UNL     1     -43.993  56.736 -60.507  1.00  0.00     0.279 HD
HETATM   25  C   UNL     1     -44.066  55.165 -59.142  1.00  0.00     0.254 C 
HETATM   26  O   UNL     1     -44.818  57.366 -55.501  1.00  0.00    -0.267 OA
ENDBRANCH   1  17
BRANCH   3  27
HETATM   27  C   UNL     1     -41.167  54.596 -52.359  1.00  0.00     0.060 A 
HETATM   28  C   UNL     1     -41.351  55.376 -51.208  1.00  0.00     0.031 A 
HETATM   29  C   UNL     1     -40.722  55.025 -50.008  1.00  0.00     0.002 A 
HETATM   30  C   UNL     1     -39.926  53.886 -49.940  1.00  0.00     0.000 A 
HETATM   31  C   UNL     1     -39.758  53.090 -51.071  1.00  0.00     0.002 A 
HETATM   32  C   UNL     1     -40.374  53.440 -52.274  1.00  0.00     0.031 A 
ENDBRANCH   3  27
TORSDOF 4
ENDMDL
