MODEL 1
REMARK VINA RESULT:      -7.1      0.000      0.000
REMARK  10 active torsions:
REMARK  status: ('A' for Active; 'I' for Inactive)
REMARK    1  A    between atoms: C_6  and  C_7 
REMARK    2  A    between atoms: C_7  and  C_8 
REMARK       I    between atoms: C_8  and  N_9 
REMARK    3  A    between atoms: N_9  and  C_10 
REMARK    4  A    between atoms: C_10  and  C_11 
REMARK    5  A    between atoms: C_11  and  N_12 
REMARK    6  A    between atoms: C_19  and  C_20 
REMARK    7  A    between atoms: C_29  and  C_30 
REMARK    8  A    between atoms: C_30  and  O_31 
REMARK    9  A    between atoms: O_31  and  C_32 
REMARK   10  A    between atoms: C_32  and  C_33 
ROOT
HETATM    1  C   UNL     1     -39.189  59.088 -52.421  1.00  0.00     0.071 C 
HETATM    2  C   UNL     1     -40.653  58.914 -52.738  1.00  0.00     0.048 C 
HETATM    3  N   UNL     1     -41.044  59.481 -53.945  1.00  0.00    -0.229 NA
HETATM    4  C   UNL     1     -42.145  59.052 -54.460  1.00  0.00     0.170 C 
HETATM    5  N   UNL     1     -43.031  57.983 -53.774  1.00  0.00    -0.319 N 
HETATM    6  C   UNL     1     -43.484  57.164 -54.661  1.00  0.00     0.011 C 
HETATM    7  C   UNL     1     -42.968  58.093 -52.302  1.00  0.00     0.166 C 
HETATM    8  S   UNL     1     -42.640  59.317 -56.092  1.00  0.00    -0.086 SA
HETATM    9  C   UNL     1     -43.507  57.708 -56.082  1.00  0.00     0.135 C 
HETATM   10  C   UNL     1     -41.519  58.238 -51.953  1.00  0.00     0.069 C 
ENDROOT
BRANCH   6  11
HETATM   11  C   UNL     1     -43.886  55.764 -54.292  1.00  0.00     0.156 C 
BRANCH  11  12
HETATM   12  C   UNL     1     -42.729  54.799 -54.487  1.00  0.00     0.223 C 
HETATM   13  N   UNL     1     -41.687  54.897 -53.583  1.00  0.00    -0.359 N 
HETATM   14  H   UNL     1     -41.918  55.215 -52.646  1.00  0.00     0.162 HD
HETATM   15  O   UNL     1     -42.674  54.096 -55.489  1.00  0.00    -0.273 OA
BRANCH  13  16
HETATM   16  C   UNL     1     -40.542  53.983 -53.704  1.00  0.00     0.150 C 
BRANCH  16  17
HETATM   17  C   UNL     1     -40.389  53.014 -52.512  1.00  0.00     0.254 C 
BRANCH  17  18
HETATM   18  N   UNL     1     -39.472  51.854 -52.832  1.00  0.00    -0.070 N 
HETATM   19  H   UNL     1     -38.494  52.172 -52.745  1.00  0.00     0.279 HD
HETATM   20  C   UNL     1     -39.630  51.274 -54.233  1.00  0.00     0.235 C 
HETATM   21  C   UNL     1     -40.212  49.893 -54.012  1.00  0.00     0.029 C 
HETATM   22  C   UNL     1     -39.549  49.447 -52.727  1.00  0.00     0.029 C 
HETATM   23  C   UNL     1     -39.625  50.685 -51.857  1.00  0.00     0.235 C 
ENDBRANCH  17  18
ENDBRANCH  16  17
ENDBRANCH  13  16
ENDBRANCH  11  12
ENDBRANCH   6  11
BRANCH   7  24
HETATM   24  C   UNL     1     -43.849  59.273 -51.843  1.00  0.00    -0.030 A 
HETATM   25  C   UNL     1     -43.345  60.241 -50.951  1.00  0.00     0.011 A 
HETATM   26  C   UNL     1     -44.166  61.259 -50.447  1.00  0.00     0.024 A 
HETATM   27  C   UNL     1     -45.496  61.347 -50.846  1.00  0.00     0.034 A 
HETATM   28 CL   UNL     1     -46.509  62.574 -50.200  1.00  0.00    -0.084 Cl
HETATM   29  C   UNL     1     -46.007  60.438 -51.761  1.00  0.00     0.024 A 
HETATM   30  C   UNL     1     -45.191  59.416 -52.260  1.00  0.00     0.011 A 
ENDBRANCH   7  24
BRANCH  10  31
HETATM   31  C   UNL     1     -41.109  57.541 -50.727  1.00  0.00     0.294 C 
HETATM   32  O   UNL     1     -40.872  58.096 -49.674  1.00  0.00    -0.259 OA
BRANCH  31  33
HETATM   33  O   UNL     1     -41.142  56.215 -50.990  1.00  0.00    -0.314 OA
BRANCH  33  34
HETATM   34  C   UNL     1     -41.317  55.412 -49.813  1.00  0.00     0.206 C 
BRANCH  34  35
HETATM   35  C   UNL     1     -42.536  54.546 -49.964  1.00  0.00    -0.011 C 
HETATM   36  C   UNL     1     -43.648  54.818 -50.663  1.00  0.00     0.009 C 
ENDBRANCH  34  35
ENDBRANCH  33  34
ENDBRANCH  31  33
ENDBRANCH  10  31
TORSDOF 10
ENDMDL
MODEL 2
REMARK VINA RESULT:      -6.9      3.344      7.828
REMARK  10 active torsions:
REMARK  status: ('A' for Active; 'I' for Inactive)
REMARK    1  A    between atoms: C_6  and  C_7 
REMARK    2  A    between atoms: C_7  and  C_8 
REMARK       I    between atoms: C_8  and  N_9 
REMARK    3  A    between atoms: N_9  and  C_10 
REMARK    4  A    between atoms: C_10  and  C_11 
REMARK    5  A    between atoms: C_11  and  N_12 
REMARK    6  A    between atoms: C_19  and  C_20 
REMARK    7  A    between atoms: C_29  and  C_30 
REMARK    8  A    between atoms: C_30  and  O_31 
REMARK    9  A    between atoms: O_31  and  C_32 
REMARK   10  A    between atoms: C_32  and  C_33 
ROOT
HETATM    1  C   UNL     1     -44.296  54.473 -50.213  1.00  0.00     0.071 C 
HETATM    2  C   UNL     1     -43.275  54.468 -51.323  1.00  0.00     0.048 C 
HETATM    3  N   UNL     1     -43.804  54.212 -52.582  1.00  0.00    -0.229 NA
HETATM    4  C   UNL     1     -43.093  54.569 -53.596  1.00  0.00     0.170 C 
HETATM    5  N   UNL     1     -41.696  55.222 -53.452  1.00  0.00    -0.319 N 
HETATM    6  C   UNL     1     -41.570  56.167 -54.320  1.00  0.00     0.011 C 
HETATM    7  C   UNL     1     -40.978  54.706 -52.268  1.00  0.00     0.166 C 
HETATM    8  S   UNL     1     -43.679  54.700 -55.214  1.00  0.00    -0.086 SA
HETATM    9  C   UNL     1     -42.496  56.059 -55.523  1.00  0.00     0.135 C 
HETATM   10  C   UNL     1     -41.961  54.727 -51.139  1.00  0.00     0.069 C 
ENDROOT
BRANCH   6  11
HETATM   11  C   UNL     1     -40.619  57.308 -54.093  1.00  0.00     0.156 C 
BRANCH  11  12
HETATM   12  C   UNL     1     -41.372  58.574 -53.720  1.00  0.00     0.223 C 
HETATM   13  N   UNL     1     -42.679  58.412 -53.298  1.00  0.00    -0.359 N 
HETATM   14  H   UNL     1     -42.906  57.539 -52.828  1.00  0.00     0.162 HD
HETATM   15  O   UNL     1     -40.879  59.673 -53.943  1.00  0.00    -0.273 OA
BRANCH  13  16
HETATM   16  C   UNL     1     -43.460  59.593 -52.906  1.00  0.00     0.150 C 
BRANCH  16  17
HETATM   17  C   UNL     1     -44.464  59.327 -51.764  1.00  0.00     0.254 C 
BRANCH  17  18
HETATM   18  N   UNL     1     -45.030  60.607 -51.190  1.00  0.00    -0.070 N 
HETATM   19  H   UNL     1     -45.933  60.803 -51.649  1.00  0.00     0.279 HD
HETATM   20  C   UNL     1     -44.155  61.841 -51.378  1.00  0.00     0.235 C 
HETATM   21  C   UNL     1     -43.692  62.199 -49.981  1.00  0.00     0.029 C 
HETATM   22  C   UNL     1     -44.889  61.844 -49.126  1.00  0.00     0.029 C 
HETATM   23  C   UNL     1     -45.329  60.509 -49.693  1.00  0.00     0.235 C 
ENDBRANCH  17  18
ENDBRANCH  16  17
ENDBRANCH  13  16
ENDBRANCH  11  12
ENDBRANCH   6  11
BRANCH   7  24
HETATM   24  C   UNL     1     -40.411  53.308 -52.587  1.00  0.00    -0.030 A 
HETATM   25  C   UNL     1     -40.371  52.836 -53.915  1.00  0.00     0.011 A 
HETATM   26  C   UNL     1     -39.954  51.530 -54.207  1.00  0.00     0.024 A 
HETATM   27  C   UNL     1     -39.543  50.682 -53.184  1.00  0.00     0.034 A 
HETATM   28 CL   UNL     1     -39.066  49.071 -53.541  1.00  0.00    -0.084 Cl
HETATM   29  C   UNL     1     -39.525  51.135 -51.873  1.00  0.00     0.024 A 
HETATM   30  C   UNL     1     -39.948  52.436 -51.577  1.00  0.00     0.011 A 
ENDBRANCH   7  24
BRANCH  10  31
HETATM   31  C   UNL     1     -41.396  55.103 -49.837  1.00  0.00     0.294 C 
HETATM   32  O   UNL     1     -41.539  54.458 -48.820  1.00  0.00    -0.259 OA
BRANCH  31  33
HETATM   33  O   UNL     1     -40.648  56.212 -50.032  1.00  0.00    -0.314 OA
BRANCH  33  34
HETATM   34  C   UNL     1     -41.437  57.400 -50.200  1.00  0.00     0.206 C 
BRANCH  34  35
HETATM   35  C   UNL     1     -40.536  58.592 -50.357  1.00  0.00    -0.011 C 
HETATM   36  C   UNL     1     -40.859  59.885 -50.206  1.00  0.00     0.009 C 
ENDBRANCH  34  35
ENDBRANCH  33  34
ENDBRANCH  31  33
ENDBRANCH  10  31
TORSDOF 10
ENDMDL
MODEL 3
REMARK VINA RESULT:      -6.8      3.698      8.506
REMARK  10 active torsions:
REMARK  status: ('A' for Active; 'I' for Inactive)
REMARK    1  A    between atoms: C_6  and  C_7 
REMARK    2  A    between atoms: C_7  and  C_8 
REMARK       I    between atoms: C_8  and  N_9 
REMARK    3  A    between atoms: N_9  and  C_10 
REMARK    4  A    between atoms: C_10  and  C_11 
REMARK    5  A    between atoms: C_11  and  N_12 
REMARK    6  A    between atoms: C_19  and  C_20 
REMARK    7  A    between atoms: C_29  and  C_30 
REMARK    8  A    between atoms: C_30  and  O_31 
REMARK    9  A    between atoms: O_31  and  C_32 
REMARK   10  A    between atoms: C_32  and  C_33 
ROOT
HETATM    1  C   UNL     1     -42.000  59.587 -56.728  1.00  0.00     0.071 C 
HETATM    2  C   UNL     1     -42.189  58.740 -55.495  1.00  0.00     0.048 C 
HETATM    3  N   UNL     1     -41.371  59.096 -54.430  1.00  0.00    -0.229 NA
HETATM    4  C   UNL     1     -41.733  58.698 -53.258  1.00  0.00     0.170 C 
HETATM    5  N   UNL     1     -42.995  57.833 -53.021  1.00  0.00    -0.319 N 
HETATM    6  C   UNL     1     -43.600  58.236 -51.956  1.00  0.00     0.011 C 
HETATM    7  C   UNL     1     -43.247  56.921 -54.155  1.00  0.00     0.166 C 
HETATM    8  S   UNL     1     -41.109  59.312 -51.772  1.00  0.00    -0.086 SA
HETATM    9  C   UNL     1     -42.726  59.006 -50.976  1.00  0.00     0.135 C 
HETATM   10  C   UNL     1     -43.095  57.743 -55.397  1.00  0.00     0.069 C 
ENDROOT
BRANCH   6  11
HETATM   11  C   UNL     1     -45.072  58.003 -51.762  1.00  0.00     0.156 C 
BRANCH  11  12
HETATM   12  C   UNL     1     -45.702  59.144 -50.981  1.00  0.00     0.223 C 
HETATM   13  N   UNL     1     -45.658  60.393 -51.572  1.00  0.00    -0.359 N 
HETATM   14  H   UNL     1     -45.661  60.422 -52.588  1.00  0.00     0.162 HD
HETATM   15  O   UNL     1     -46.077  58.968 -49.828  1.00  0.00    -0.273 OA
BRANCH  13  16
HETATM   16  C   UNL     1     -46.264  61.538 -50.879  1.00  0.00     0.150 C 
BRANCH  16  17
HETATM   17  C   UNL     1     -45.407  62.090 -49.719  1.00  0.00     0.254 C 
BRANCH  17  18
HETATM   18  N   UNL     1     -45.925  61.652 -48.367  1.00  0.00    -0.070 N 
HETATM   19  H   UNL     1     -46.501  60.805 -48.492  1.00  0.00     0.279 HD
HETATM   20  C   UNL     1     -46.790  62.678 -47.644  1.00  0.00     0.235 C 
HETATM   21  C   UNL     1     -45.961  63.105 -46.451  1.00  0.00     0.029 C 
HETATM   22  C   UNL     1     -45.245  61.830 -46.061  1.00  0.00     0.029 C 
HETATM   23  C   UNL     1     -44.808  61.263 -47.397  1.00  0.00     0.235 C 
ENDBRANCH  17  18
ENDBRANCH  16  17
ENDBRANCH  13  16
ENDBRANCH  11  12
ENDBRANCH   6  11
BRANCH   7  24
HETATM   24  C   UNL     1     -42.279  55.724 -54.067  1.00  0.00    -0.030 A 
HETATM   25  C   UNL     1     -41.278  55.536 -55.043  1.00  0.00     0.011 A 
HETATM   26  C   UNL     1     -40.459  54.399 -55.032  1.00  0.00     0.024 A 
HETATM   27  C   UNL     1     -40.604  53.442 -54.032  1.00  0.00     0.034 A 
HETATM   28 CL   UNL     1     -39.624  52.032 -54.041  1.00  0.00    -0.084 Cl
HETATM   29  C   UNL     1     -41.547  53.624 -53.030  1.00  0.00     0.024 A 
HETATM   30  C   UNL     1     -42.371  54.756 -53.043  1.00  0.00     0.011 A 
ENDBRANCH   7  24
BRANCH  10  31
HETATM   31  C   UNL     1     -44.042  57.417 -56.471  1.00  0.00     0.294 C 
HETATM   32  O   UNL     1     -45.112  57.967 -56.627  1.00  0.00    -0.259 OA
BRANCH  31  33
HETATM   33  O   UNL     1     -43.452  56.487 -57.256  1.00  0.00    -0.314 OA
BRANCH  33  34
HETATM   34  C   UNL     1     -43.430  56.854 -58.644  1.00  0.00     0.206 C 
BRANCH  34  35
HETATM   35  C   UNL     1     -43.405  55.617 -59.497  1.00  0.00    -0.011 C 
HETATM   36  C   UNL     1     -44.360  54.683 -59.609  1.00  0.00     0.009 C 
ENDBRANCH  34  35
ENDBRANCH  33  34
ENDBRANCH  31  33
ENDBRANCH  10  31
TORSDOF 10
ENDMDL
MODEL 4
REMARK VINA RESULT:      -6.7      3.732      8.445
REMARK  10 active torsions:
REMARK  status: ('A' for Active; 'I' for Inactive)
REMARK    1  A    between atoms: C_6  and  C_7 
REMARK    2  A    between atoms: C_7  and  C_8 
REMARK       I    between atoms: C_8  and  N_9 
REMARK    3  A    between atoms: N_9  and  C_10 
REMARK    4  A    between atoms: C_10  and  C_11 
REMARK    5  A    between atoms: C_11  and  N_12 
REMARK    6  A    between atoms: C_19  and  C_20 
REMARK    7  A    between atoms: C_29  and  C_30 
REMARK    8  A    between atoms: C_30  and  O_31 
REMARK    9  A    between atoms: O_31  and  C_32 
REMARK   10  A    between atoms: C_32  and  C_33 
ROOT
HETATM    1  C   UNL     1     -42.059  59.606 -56.752  1.00  0.00     0.071 C 
HETATM    2  C   UNL     1     -42.273  58.740 -55.536  1.00  0.00     0.048 C 
HETATM    3  N   UNL     1     -41.393  58.997 -54.492  1.00  0.00    -0.229 NA
HETATM    4  C   UNL     1     -41.746  58.594 -53.319  1.00  0.00     0.170 C 
HETATM    5  N   UNL     1     -43.064  57.825 -53.060  1.00  0.00    -0.319 N 
HETATM    6  C   UNL     1     -43.598  58.242 -51.963  1.00  0.00     0.011 C 
HETATM    7  C   UNL     1     -43.427  56.970 -54.209  1.00  0.00     0.166 C 
HETATM    8  S   UNL     1     -41.024  59.111 -51.840  1.00  0.00    -0.086 SA
HETATM    9  C   UNL     1     -42.632  58.910 -50.995  1.00  0.00     0.135 C 
HETATM   10  C   UNL     1     -43.252  57.814 -55.433  1.00  0.00     0.069 C 
ENDROOT
BRANCH   6  11
HETATM   11  C   UNL     1     -45.076  58.120 -51.722  1.00  0.00     0.156 C 
BRANCH  11  12
HETATM   12  C   UNL     1     -45.548  59.158 -50.718  1.00  0.00     0.223 C 
HETATM   13  N   UNL     1     -45.408  60.483 -51.089  1.00  0.00    -0.359 N 
HETATM   14  H   UNL     1     -45.458  60.691 -52.083  1.00  0.00     0.162 HD
HETATM   15  O   UNL     1     -45.881  58.817 -49.589  1.00  0.00    -0.273 OA
BRANCH  13  16
HETATM   16  C   UNL     1     -45.859  61.538 -50.172  1.00  0.00     0.150 C 
BRANCH  16  17
HETATM   17  C   UNL     1     -44.734  62.122 -49.290  1.00  0.00     0.254 C 
BRANCH  17  18
HETATM   18  N   UNL     1     -45.166  62.293 -47.851  1.00  0.00    -0.070 N 
HETATM   19  H   UNL     1     -44.747  63.160 -47.481  1.00  0.00     0.279 HD
HETATM   20  C   UNL     1     -44.756  61.162 -46.914  1.00  0.00     0.235 C 
HETATM   21  C   UNL     1     -46.059  60.490 -46.533  1.00  0.00     0.029 C 
HETATM   22  C   UNL     1     -47.032  61.646 -46.467  1.00  0.00     0.029 C 
HETATM   23  C   UNL     1     -46.680  62.458 -47.698  1.00  0.00     0.235 C 
ENDBRANCH  17  18
ENDBRANCH  16  17
ENDBRANCH  13  16
ENDBRANCH  11  12
ENDBRANCH   6  11
BRANCH   7  24
HETATM   24  C   UNL     1     -42.555  55.698 -54.190  1.00  0.00    -0.030 A 
HETATM   25  C   UNL     1     -42.642  54.785 -53.119  1.00  0.00     0.011 A 
HETATM   26  C   UNL     1     -41.784  53.680 -53.038  1.00  0.00     0.024 A 
HETATM   27  C   UNL     1     -40.843  53.450 -54.037  1.00  0.00     0.034 A 
HETATM   28 CL   UNL     1     -39.769  52.115 -53.917  1.00  0.00    -0.084 Cl
HETATM   29  C   UNL     1     -40.767  54.304 -55.128  1.00  0.00     0.024 A 
HETATM   30  C   UNL     1     -41.618  55.412 -55.208  1.00  0.00     0.011 A 
ENDBRANCH   7  24
BRANCH  10  31
HETATM   31  C   UNL     1     -44.258  57.597 -56.480  1.00  0.00     0.294 C 
HETATM   32  O   UNL     1     -45.373  58.076 -56.464  1.00  0.00    -0.259 OA
BRANCH  31  33
HETATM   33  O   UNL     1     -43.671  56.864 -57.453  1.00  0.00    -0.314 OA
BRANCH  33  34
HETATM   34  C   UNL     1     -44.324  56.991 -58.725  1.00  0.00     0.206 C 
BRANCH  34  35
HETATM   35  C   UNL     1     -43.910  55.862 -59.625  1.00  0.00    -0.011 C 
HETATM   36  C   UNL     1     -44.323  54.587 -59.577  1.00  0.00     0.009 C 
ENDBRANCH  34  35
ENDBRANCH  33  34
ENDBRANCH  31  33
ENDBRANCH  10  31
TORSDOF 10
ENDMDL
MODEL 5
REMARK VINA RESULT:      -6.5      3.609      8.514
REMARK  10 active torsions:
REMARK  status: ('A' for Active; 'I' for Inactive)
REMARK    1  A    between atoms: C_6  and  C_7 
REMARK    2  A    between atoms: C_7  and  C_8 
REMARK       I    between atoms: C_8  and  N_9 
REMARK    3  A    between atoms: N_9  and  C_10 
REMARK    4  A    between atoms: C_10  and  C_11 
REMARK    5  A    between atoms: C_11  and  N_12 
REMARK    6  A    between atoms: C_19  and  C_20 
REMARK    7  A    between atoms: C_29  and  C_30 
REMARK    8  A    between atoms: C_30  and  O_31 
REMARK    9  A    between atoms: O_31  and  C_32 
REMARK   10  A    between atoms: C_32  and  C_33 
ROOT
HETATM    1  C   UNL     1     -41.973  59.555 -56.701  1.00  0.00     0.071 C 
HETATM    2  C   UNL     1     -42.156  58.720 -55.458  1.00  0.00     0.048 C 
HETATM    3  N   UNL     1     -41.332  59.087 -54.401  1.00  0.00    -0.229 NA
HETATM    4  C   UNL     1     -41.689  58.701 -53.224  1.00  0.00     0.170 C 
HETATM    5  N   UNL     1     -42.950  57.839 -52.972  1.00  0.00    -0.319 N 
HETATM    6  C   UNL     1     -43.549  58.253 -51.907  1.00  0.00     0.011 C 
HETATM    7  C   UNL     1     -43.208  56.915 -54.095  1.00  0.00     0.166 C 
HETATM    8  S   UNL     1     -41.057  59.329 -51.747  1.00  0.00    -0.086 SA
HETATM    9  C   UNL     1     -42.670  59.032 -50.940  1.00  0.00     0.135 C 
HETATM   10  C   UNL     1     -43.062  57.724 -55.346  1.00  0.00     0.069 C 
ENDROOT
BRANCH   6  11
HETATM   11  C   UNL     1     -45.020  58.022 -51.703  1.00  0.00     0.156 C 
BRANCH  11  12
HETATM   12  C   UNL     1     -45.651  59.184 -50.956  1.00  0.00     0.223 C 
HETATM   13  N   UNL     1     -45.678  60.399 -51.616  1.00  0.00    -0.359 N 
HETATM   14  H   UNL     1     -45.730  60.371 -52.631  1.00  0.00     0.162 HD
HETATM   15  O   UNL     1     -45.966  59.062 -49.778  1.00  0.00    -0.273 OA
BRANCH  13  16
HETATM   16  C   UNL     1     -46.289  61.562 -50.958  1.00  0.00     0.150 C 
BRANCH  16  17
HETATM   17  C   UNL     1     -45.265  62.575 -50.402  1.00  0.00     0.254 C 
BRANCH  17  18
HETATM   18  N   UNL     1     -45.558  62.956 -48.968  1.00  0.00    -0.070 N 
HETATM   19  H   UNL     1     -45.321  63.951 -48.836  1.00  0.00     0.279 HD
HETATM   20  C   UNL     1     -44.781  62.168 -47.919  1.00  0.00     0.235 C 
HETATM   21  C   UNL     1     -45.829  61.330 -47.216  1.00  0.00     0.029 C 
HETATM   22  C   UNL     1     -47.039  62.238 -47.206  1.00  0.00     0.029 C 
HETATM   23  C   UNL     1     -47.038  62.822 -48.605  1.00  0.00     0.235 C 
ENDBRANCH  17  18
ENDBRANCH  16  17
ENDBRANCH  13  16
ENDBRANCH  11  12
ENDBRANCH   6  11
BRANCH   7  24
HETATM   24  C   UNL     1     -42.240  55.719 -54.000  1.00  0.00    -0.030 A 
HETATM   25  C   UNL     1     -41.348  55.431 -55.054  1.00  0.00     0.011 A 
HETATM   26  C   UNL     1     -40.536  54.289 -55.024  1.00  0.00     0.024 A 
HETATM   27  C   UNL     1     -40.578  53.428 -53.932  1.00  0.00     0.034 A 
HETATM   28 CL   UNL     1     -39.608  52.011 -53.915  1.00  0.00    -0.084 Cl
HETATM   29  C   UNL     1     -41.410  53.711 -52.858  1.00  0.00     0.024 A 
HETATM   30  C   UNL     1     -42.227  54.848 -52.888  1.00  0.00     0.011 A 
ENDBRANCH   7  24
BRANCH  10  31
HETATM   31  C   UNL     1     -44.015  57.388 -56.412  1.00  0.00     0.294 C 
HETATM   32  O   UNL     1     -43.734  56.738 -57.397  1.00  0.00    -0.259 OA
BRANCH  31  33
HETATM   33  O   UNL     1     -45.224  57.857 -56.029  1.00  0.00    -0.314 OA
BRANCH  33  34
HETATM   34  C   UNL     1     -45.723  58.893 -56.888  1.00  0.00     0.206 C 
BRANCH  34  35
HETATM   35  C   UNL     1     -46.911  58.389 -57.657  1.00  0.00    -0.011 C 
HETATM   36  C   UNL     1     -46.907  57.593 -58.736  1.00  0.00     0.009 C 
ENDBRANCH  34  35
ENDBRANCH  33  34
ENDBRANCH  31  33
ENDBRANCH  10  31
TORSDOF 10
ENDMDL
MODEL 6
REMARK VINA RESULT:      -6.4      3.891      6.563
REMARK  10 active torsions:
REMARK  status: ('A' for Active; 'I' for Inactive)
REMARK    1  A    between atoms: C_6  and  C_7 
REMARK    2  A    between atoms: C_7  and  C_8 
REMARK       I    between atoms: C_8  and  N_9 
REMARK    3  A    between atoms: N_9  and  C_10 
REMARK    4  A    between atoms: C_10  and  C_11 
REMARK    5  A    between atoms: C_11  and  N_12 
REMARK    6  A    between atoms: C_19  and  C_20 
REMARK    7  A    between atoms: C_29  and  C_30 
REMARK    8  A    between atoms: C_30  and  O_31 
REMARK    9  A    between atoms: O_31  and  C_32 
REMARK   10  A    between atoms: C_32  and  C_33 
ROOT
HETATM    1  C   UNL     1     -46.260  58.126 -57.692  1.00  0.00     0.071 C 
HETATM    2  C   UNL     1     -44.960  58.791 -57.319  1.00  0.00     0.048 C 
HETATM    3  N   UNL     1     -45.109  60.034 -56.717  1.00  0.00    -0.229 NA
HETATM    4  C   UNL     1     -44.109  60.475 -56.034  1.00  0.00     0.170 C 
HETATM    5  N   UNL     1     -42.777  59.697 -55.901  1.00  0.00    -0.319 N 
HETATM    6  C   UNL     1     -42.339  59.795 -54.693  1.00  0.00     0.011 C 
HETATM    7  C   UNL     1     -42.476  58.927 -57.126  1.00  0.00     0.166 C 
HETATM    8  S   UNL     1     -44.181  61.784 -54.912  1.00  0.00    -0.086 SA
HETATM    9  C   UNL     1     -42.873  60.988 -53.913  1.00  0.00     0.135 C 
HETATM   10  C   UNL     1     -43.745  58.230 -57.506  1.00  0.00     0.069 C 
ENDROOT
BRANCH   6  11
HETATM   11  C   UNL     1     -41.424  58.754 -54.110  1.00  0.00     0.156 C 
BRANCH  11  12
HETATM   12  C   UNL     1     -42.181  57.468 -53.823  1.00  0.00     0.223 C 
HETATM   13  N   UNL     1     -41.692  56.320 -54.419  1.00  0.00    -0.359 N 
HETATM   14  H   UNL     1     -40.692  56.282 -54.595  1.00  0.00     0.162 HD
HETATM   15  O   UNL     1     -43.250  57.502 -53.226  1.00  0.00    -0.273 OA
BRANCH  13  16
HETATM   16  C   UNL     1     -42.367  55.038 -54.171  1.00  0.00     0.150 C 
BRANCH  16  17
HETATM   17  C   UNL     1     -41.847  54.291 -52.924  1.00  0.00     0.254 C 
BRANCH  17  18
HETATM   18  N   UNL     1     -40.486  53.673 -53.154  1.00  0.00    -0.070 N 
HETATM   19  H   UNL     1     -39.774  54.419 -53.122  1.00  0.00     0.279 HD
HETATM   20  C   UNL     1     -40.321  52.954 -54.489  1.00  0.00     0.235 C 
HETATM   21  C   UNL     1     -40.192  51.490 -54.122  1.00  0.00     0.029 C 
HETATM   22  C   UNL     1     -39.427  51.533 -52.818  1.00  0.00     0.029 C 
HETATM   23  C   UNL     1     -40.095  52.668 -52.068  1.00  0.00     0.235 C 
ENDBRANCH  17  18
ENDBRANCH  16  17
ENDBRANCH  13  16
ENDBRANCH  11  12
ENDBRANCH   6  11
BRANCH   7  24
HETATM   24  C   UNL     1     -41.933  59.885 -58.206  1.00  0.00    -0.030 A 
HETATM   25  C   UNL     1     -41.165  61.011 -57.846  1.00  0.00     0.011 A 
HETATM   26  C   UNL     1     -40.753  61.944 -58.808  1.00  0.00     0.024 A 
HETATM   27  C   UNL     1     -41.075  61.756 -60.148  1.00  0.00     0.034 A 
HETATM   28 CL   UNL     1     -40.599  62.919 -61.319  1.00  0.00    -0.084 Cl
HETATM   29  C   UNL     1     -41.787  60.631 -60.539  1.00  0.00     0.024 A 
HETATM   30  C   UNL     1     -42.206  59.702 -59.580  1.00  0.00     0.011 A 
ENDBRANCH   7  24
BRANCH  10  31
HETATM   31  C   UNL     1     -43.566  56.875 -58.043  1.00  0.00     0.294 C 
HETATM   32  O   UNL     1     -43.233  55.917 -57.377  1.00  0.00    -0.259 OA
BRANCH  31  33
HETATM   33  O   UNL     1     -43.923  56.910 -59.346  1.00  0.00    -0.314 OA
BRANCH  33  34
HETATM   34  C   UNL     1     -43.766  55.645 -60.007  1.00  0.00     0.206 C 
BRANCH  34  35
HETATM   35  C   UNL     1     -45.114  55.093 -60.376  1.00  0.00    -0.011 C 
HETATM   36  C   UNL     1     -46.238  55.782 -60.625  1.00  0.00     0.009 C 
ENDBRANCH  34  35
ENDBRANCH  33  34
ENDBRANCH  31  33
ENDBRANCH  10  31
TORSDOF 10
ENDMDL
MODEL 7
REMARK VINA RESULT:      -6.3      3.494      6.278
REMARK  10 active torsions:
REMARK  status: ('A' for Active; 'I' for Inactive)
REMARK    1  A    between atoms: C_6  and  C_7 
REMARK    2  A    between atoms: C_7  and  C_8 
REMARK       I    between atoms: C_8  and  N_9 
REMARK    3  A    between atoms: N_9  and  C_10 
REMARK    4  A    between atoms: C_10  and  C_11 
REMARK    5  A    between atoms: C_11  and  N_12 
REMARK    6  A    between atoms: C_19  and  C_20 
REMARK    7  A    between atoms: C_29  and  C_30 
REMARK    8  A    between atoms: C_30  and  O_31 
REMARK    9  A    between atoms: O_31  and  C_32 
REMARK   10  A    between atoms: C_32  and  C_33 
ROOT
HETATM    1  C   UNL     1     -46.165  57.848 -56.707  1.00  0.00     0.071 C 
HETATM    2  C   UNL     1     -44.925  58.687 -56.527  1.00  0.00     0.048 C 
HETATM    3  N   UNL     1     -45.171  59.976 -56.071  1.00  0.00    -0.229 NA
HETATM    4  C   UNL     1     -44.181  60.602 -55.532  1.00  0.00     0.170 C 
HETATM    5  N   UNL     1     -42.764  59.988 -55.419  1.00  0.00    -0.319 N 
HETATM    6  C   UNL     1     -42.256  60.287 -54.271  1.00  0.00     0.011 C 
HETATM    7  C   UNL     1     -42.465  59.101 -56.562  1.00  0.00     0.166 C 
HETATM    8  S   UNL     1     -44.321  62.031 -54.575  1.00  0.00    -0.086 SA
HETATM    9  C   UNL     1     -42.864  61.510 -53.601  1.00  0.00     0.135 C 
HETATM   10  C   UNL     1     -43.671  58.234 -56.746  1.00  0.00     0.069 C 
ENDROOT
BRANCH   6  11
HETATM   11  C   UNL     1     -41.191  59.431 -53.646  1.00  0.00     0.156 C 
BRANCH  11  12
HETATM   12  C   UNL     1     -41.733  58.050 -53.315  1.00  0.00     0.223 C 
HETATM   13  N   UNL     1     -43.039  57.992 -52.865  1.00  0.00    -0.359 N 
HETATM   14  H   UNL     1     -43.675  58.710 -53.203  1.00  0.00     0.162 HD
HETATM   15  O   UNL     1     -40.984  57.081 -53.304  1.00  0.00    -0.273 OA
BRANCH  13  16
HETATM   16  C   UNL     1     -43.631  56.687 -52.542  1.00  0.00     0.150 C 
BRANCH  16  17
HETATM   17  C   UNL     1     -43.833  56.450 -51.030  1.00  0.00     0.254 C 
BRANCH  17  18
HETATM   18  N   UNL     1     -43.192  55.162 -50.563  1.00  0.00    -0.070 N 
HETATM   19  H   UNL     1     -43.820  54.708 -49.882  1.00  0.00     0.279 HD
HETATM   20  C   UNL     1     -41.838  55.325 -49.882  1.00  0.00     0.235 C 
HETATM   21  C   UNL     1     -40.849  54.696 -50.842  1.00  0.00     0.029 C 
HETATM   22  C   UNL     1     -41.630  53.540 -51.426  1.00  0.00     0.029 C 
HETATM   23  C   UNL     1     -42.992  54.150 -51.693  1.00  0.00     0.235 C 
ENDBRANCH  17  18
ENDBRANCH  16  17
ENDBRANCH  13  16
ENDBRANCH  11  12
ENDBRANCH   6  11
BRANCH   7  24
HETATM   24  C   UNL     1     -42.110  59.961 -57.791  1.00  0.00    -0.030 A 
HETATM   25  C   UNL     1     -42.526  59.574 -59.082  1.00  0.00     0.011 A 
HETATM   26  C   UNL     1     -42.125  60.290 -60.218  1.00  0.00     0.024 A 
HETATM   27  C   UNL     1     -41.324  61.421 -60.085  1.00  0.00     0.034 A 
HETATM   28 CL   UNL     1     -40.804  62.276 -61.481  1.00  0.00    -0.084 Cl
HETATM   29  C   UNL     1     -40.940  61.854 -58.825  1.00  0.00     0.024 A 
HETATM   30  C   UNL     1     -41.334  61.137 -57.689  1.00  0.00     0.011 A 
ENDBRANCH   7  24
BRANCH  10  31
HETATM   31  C   UNL     1     -43.379  56.846 -57.127  1.00  0.00     0.294 C 
HETATM   32  O   UNL     1     -43.547  56.395 -58.240  1.00  0.00    -0.259 OA
BRANCH  31  33
HETATM   33  O   UNL     1     -42.826  56.244 -56.050  1.00  0.00    -0.314 OA
BRANCH  33  34
HETATM   34  C   UNL     1     -42.707  54.821 -56.200  1.00  0.00     0.206 C 
BRANCH  34  35
HETATM   35  C   UNL     1     -41.799  54.271 -55.136  1.00  0.00    -0.011 C 
HETATM   36  C   UNL     1     -40.467  54.134 -55.192  1.00  0.00     0.009 C 
ENDBRANCH  34  35
ENDBRANCH  33  34
ENDBRANCH  31  33
ENDBRANCH  10  31
TORSDOF 10
ENDMDL
MODEL 8
REMARK VINA RESULT:      -6.2      4.701      7.552
REMARK  10 active torsions:
REMARK  status: ('A' for Active; 'I' for Inactive)
REMARK    1  A    between atoms: C_6  and  C_7 
REMARK    2  A    between atoms: C_7  and  C_8 
REMARK       I    between atoms: C_8  and  N_9 
REMARK    3  A    between atoms: N_9  and  C_10 
REMARK    4  A    between atoms: C_10  and  C_11 
REMARK    5  A    between atoms: C_11  and  N_12 
REMARK    6  A    between atoms: C_19  and  C_20 
REMARK    7  A    between atoms: C_29  and  C_30 
REMARK    8  A    between atoms: C_30  and  O_31 
REMARK    9  A    between atoms: O_31  and  C_32 
REMARK   10  A    between atoms: C_32  and  C_33 
ROOT
HETATM    1  C   UNL     1     -45.487  58.750 -60.053  1.00  0.00     0.071 C 
HETATM    2  C   UNL     1     -44.452  59.523 -59.274  1.00  0.00     0.048 C 
HETATM    3  N   UNL     1     -44.930  60.696 -58.703  1.00  0.00    -0.229 NA
HETATM    4  C   UNL     1     -44.244  61.192 -57.730  1.00  0.00     0.170 C 
HETATM    5  N   UNL     1     -42.928  60.554 -57.223  1.00  0.00    -0.319 N 
HETATM    6  C   UNL     1     -42.889  60.610 -55.936  1.00  0.00     0.011 C 
HETATM    7  C   UNL     1     -42.179  59.912 -58.324  1.00  0.00     0.166 C 
HETATM    8  S   UNL     1     -44.813  62.400 -56.637  1.00  0.00    -0.086 SA
HETATM    9  C   UNL     1     -43.777  61.679 -55.315  1.00  0.00     0.135 C 
HETATM   10  C   UNL     1     -43.177  59.112 -59.100  1.00  0.00     0.069 C 
ENDROOT
BRANCH   6  11
HETATM   11  C   UNL     1     -42.069  59.635 -55.139  1.00  0.00     0.156 C 
BRANCH  11  12
HETATM   12  C   UNL     1     -42.940  58.518 -54.589  1.00  0.00     0.223 C 
HETATM   13  N   UNL     1     -42.601  58.031 -53.340  1.00  0.00    -0.359 N 
HETATM   14  H   UNL     1     -42.159  58.681 -52.696  1.00  0.00     0.162 HD
HETATM   15  O   UNL     1     -43.787  57.991 -55.299  1.00  0.00    -0.273 OA
BRANCH  13  16
HETATM   16  C   UNL     1     -43.412  56.961 -52.742  1.00  0.00     0.150 C 
BRANCH  16  17
HETATM   17  C   UNL     1     -42.584  55.763 -52.229  1.00  0.00     0.254 C 
BRANCH  17  18
HETATM   18  N   UNL     1     -42.455  54.672 -53.268  1.00  0.00    -0.070 N 
HETATM   19  H   UNL     1     -42.435  53.759 -52.787  1.00  0.00     0.279 HD
HETATM   20  C   UNL     1     -41.203  54.748 -54.133  1.00  0.00     0.235 C 
HETATM   21  C   UNL     1     -41.714  55.092 -55.517  1.00  0.00     0.029 C 
HETATM   22  C   UNL     1     -43.030  54.349 -55.587  1.00  0.00     0.029 C 
HETATM   23  C   UNL     1     -43.645  54.618 -54.228  1.00  0.00     0.235 C 
ENDBRANCH  17  18
ENDBRANCH  16  17
ENDBRANCH  13  16
ENDBRANCH  11  12
ENDBRANCH   6  11
BRANCH   7  24
HETATM   24  C   UNL     1     -41.461  60.999 -59.149  1.00  0.00    -0.030 A 
HETATM   25  C   UNL     1     -41.694  61.119 -60.535  1.00  0.00     0.011 A 
HETATM   26  C   UNL     1     -40.972  62.034 -61.314  1.00  0.00     0.024 A 
HETATM   27  C   UNL     1     -40.025  62.864 -60.721  1.00  0.00     0.034 A 
HETATM   28 CL   UNL     1     -39.117  63.958 -61.684  1.00  0.00    -0.084 Cl
HETATM   29  C   UNL     1     -39.809  62.803 -59.352  1.00  0.00     0.024 A 
HETATM   30  C   UNL     1     -40.524  61.885 -58.572  1.00  0.00     0.011 A 
ENDBRANCH   7  24
BRANCH  10  31
HETATM   31  C   UNL     1     -42.678  57.826 -59.604  1.00  0.00     0.294 C 
HETATM   32  O   UNL     1     -42.061  57.694 -60.640  1.00  0.00    -0.259 OA
BRANCH  31  33
HETATM   33  O   UNL     1     -42.960  56.893 -58.668  1.00  0.00    -0.314 OA
BRANCH  33  34
HETATM   34  C   UNL     1     -42.945  55.554 -59.187  1.00  0.00     0.206 C 
BRANCH  34  35
HETATM   35  C   UNL     1     -44.336  55.146 -59.585  1.00  0.00    -0.011 C 
HETATM   36  C   UNL     1     -44.824  55.017 -60.827  1.00  0.00     0.009 C 
ENDBRANCH  34  35
ENDBRANCH  33  34
ENDBRANCH  31  33
ENDBRANCH  10  31
TORSDOF 10
ENDMDL
MODEL 9
REMARK VINA RESULT:      -6.2      2.640      5.105
REMARK  10 active torsions:
REMARK  status: ('A' for Active; 'I' for Inactive)
REMARK    1  A    between atoms: C_6  and  C_7 
REMARK    2  A    between atoms: C_7  and  C_8 
REMARK       I    between atoms: C_8  and  N_9 
REMARK    3  A    between atoms: N_9  and  C_10 
REMARK    4  A    between atoms: C_10  and  C_11 
REMARK    5  A    between atoms: C_11  and  N_12 
REMARK    6  A    between atoms: C_19  and  C_20 
REMARK    7  A    between atoms: C_29  and  C_30 
REMARK    8  A    between atoms: C_30  and  O_31 
REMARK    9  A    between atoms: O_31  and  C_32 
REMARK   10  A    between atoms: C_32  and  C_33 
ROOT
HETATM    1  C   UNL     1     -39.193  58.843 -52.065  1.00  0.00     0.071 C 
HETATM    2  C   UNL     1     -40.624  58.844 -52.542  1.00  0.00     0.048 C 
HETATM    3  N   UNL     1     -40.896  59.790 -53.522  1.00  0.00    -0.229 NA
HETATM    4  C   UNL     1     -41.951  59.600 -54.239  1.00  0.00     0.170 C 
HETATM    5  N   UNL     1     -42.909  58.403 -54.018  1.00  0.00    -0.319 N 
HETATM    6  C   UNL     1     -43.289  57.939 -55.160  1.00  0.00     0.011 C 
HETATM    7  C   UNL     1     -42.979  58.023 -52.592  1.00  0.00     0.166 C 
HETATM    8  S   UNL     1     -42.291  60.405 -55.726  1.00  0.00    -0.086 SA
HETATM    9  C   UNL     1     -43.175  58.919 -56.319  1.00  0.00     0.135 C 
HETATM   10  C   UNL     1     -41.567  57.984 -52.097  1.00  0.00     0.069 C 
ENDROOT
BRANCH   6  11
HETATM   11  C   UNL     1     -43.740  56.514 -55.308  1.00  0.00     0.156 C 
BRANCH  11  12
HETATM   12  C   UNL     1     -43.217  55.912 -56.601  1.00  0.00     0.223 C 
HETATM   13  N   UNL     1     -43.934  56.199 -57.749  1.00  0.00    -0.359 N 
HETATM   14  H   UNL     1     -44.424  57.089 -57.775  1.00  0.00     0.162 HD
HETATM   15  O   UNL     1     -42.304  55.095 -56.576  1.00  0.00    -0.273 OA
BRANCH  13  16
HETATM   16  C   UNL     1     -43.474  55.663 -59.037  1.00  0.00     0.150 C 
BRANCH  16  17
HETATM   17  C   UNL     1     -43.429  56.711 -60.169  1.00  0.00     0.254 C 
BRANCH  17  18
HETATM   18  N   UNL     1     -44.783  56.914 -60.813  1.00  0.00    -0.070 N 
HETATM   19  H   UNL     1     -44.644  57.132 -61.812  1.00  0.00     0.279 HD
HETATM   20  C   UNL     1     -45.617  58.044 -60.220  1.00  0.00     0.235 C 
HETATM   21  C   UNL     1     -46.779  57.348 -59.544  1.00  0.00     0.029 C 
HETATM   22  C   UNL     1     -47.049  56.172 -60.457  1.00  0.00     0.029 C 
HETATM   23  C   UNL     1     -45.658  55.660 -60.772  1.00  0.00     0.235 C 
ENDBRANCH  17  18
ENDBRANCH  16  17
ENDBRANCH  13  16
ENDBRANCH  11  12
ENDBRANCH   6  11
BRANCH   7  24
HETATM   24  C   UNL     1     -43.884  59.023 -51.845  1.00  0.00    -0.030 A 
HETATM   25  C   UNL     1     -45.242  59.163 -52.196  1.00  0.00     0.011 A 
HETATM   26  C   UNL     1     -46.049  60.139 -51.594  1.00  0.00     0.024 A 
HETATM   27  C   UNL     1     -45.523  60.974 -50.613  1.00  0.00     0.034 A 
HETATM   28 CL   UNL     1     -46.503  62.193 -49.904  1.00  0.00    -0.084 Cl
HETATM   29  C   UNL     1     -44.203  60.827 -50.212  1.00  0.00     0.024 A 
HETATM   30  C   UNL     1     -43.393  59.857 -50.816  1.00  0.00     0.011 A 
ENDBRANCH   7  24
BRANCH  10  31
HETATM   31  C   UNL     1     -41.279  56.908 -51.140  1.00  0.00     0.294 C 
HETATM   32  O   UNL     1     -41.345  57.032 -49.936  1.00  0.00    -0.259 OA
BRANCH  31  33
HETATM   33  O   UNL     1     -41.029  55.790 -51.859  1.00  0.00    -0.314 OA
BRANCH  33  34
HETATM   34  C   UNL     1     -42.085  54.821 -51.777  1.00  0.00     0.206 C 
BRANCH  34  35
HETATM   35  C   UNL     1     -42.098  53.976 -53.019  1.00  0.00    -0.011 C 
HETATM   36  C   UNL     1     -41.068  53.314 -53.567  1.00  0.00     0.009 C 
ENDBRANCH  34  35
ENDBRANCH  33  34
ENDBRANCH  31  33
ENDBRANCH  10  31
TORSDOF 10
ENDMDL
MODEL 10
REMARK VINA RESULT:      -6.2      2.951      5.110
REMARK  10 active torsions:
REMARK  status: ('A' for Active; 'I' for Inactive)
REMARK    1  A    between atoms: C_6  and  C_7 
REMARK    2  A    between atoms: C_7  and  C_8 
REMARK       I    between atoms: C_8  and  N_9 
REMARK    3  A    between atoms: N_9  and  C_10 
REMARK    4  A    between atoms: C_10  and  C_11 
REMARK    5  A    between atoms: C_11  and  N_12 
REMARK    6  A    between atoms: C_19  and  C_20 
REMARK    7  A    between atoms: C_29  and  C_30 
REMARK    8  A    between atoms: C_30  and  O_31 
REMARK    9  A    between atoms: O_31  and  C_32 
REMARK   10  A    between atoms: C_32  and  C_33 
ROOT
HETATM    1  C   UNL     1     -42.347  59.749 -57.153  1.00  0.00     0.071 C 
HETATM    2  C   UNL     1     -42.558  59.846 -55.663  1.00  0.00     0.048 C 
HETATM    3  N   UNL     1     -42.543  61.145 -55.170  1.00  0.00    -0.229 NA
HETATM    4  C   UNL     1     -43.090  61.338 -54.018  1.00  0.00     0.170 C 
HETATM    5  N   UNL     1     -43.710  60.191 -53.184  1.00  0.00    -0.319 N 
HETATM    6  C   UNL     1     -44.804  60.599 -52.636  1.00  0.00     0.011 C 
HETATM    7  C   UNL     1     -42.984  58.920 -53.386  1.00  0.00     0.166 C 
HETATM    8  S   UNL     1     -43.522  62.880 -53.378  1.00  0.00    -0.086 SA
HETATM    9  C   UNL     1     -44.921  62.110 -52.489  1.00  0.00     0.135 C 
HETATM   10  C   UNL     1     -42.784  58.781 -54.863  1.00  0.00     0.069 C 
ENDROOT
BRANCH   6  11
HETATM   11  C   UNL     1     -45.887  59.633 -52.247  1.00  0.00     0.156 C 
BRANCH  11  12
HETATM   12  C   UNL     1     -45.373  58.624 -51.234  1.00  0.00     0.223 C 
HETATM   13  N   UNL     1     -44.944  57.409 -51.738  1.00  0.00    -0.359 N 
HETATM   14  H   UNL     1     -44.561  57.410 -52.679  1.00  0.00     0.162 HD
HETATM   15  O   UNL     1     -45.493  58.839 -50.034  1.00  0.00    -0.273 OA
BRANCH  13  16
HETATM   16  C   UNL     1     -44.420  56.393 -50.815  1.00  0.00     0.150 C 
BRANCH  16  17
HETATM   17  C   UNL     1     -43.406  55.425 -51.462  1.00  0.00     0.254 C 
BRANCH  17  18
HETATM   18  N   UNL     1     -42.527  54.748 -50.435  1.00  0.00    -0.070 N 
HETATM   19  H   UNL     1     -43.130  54.299 -49.728  1.00  0.00     0.279 HD
HETATM   20  C   UNL     1     -41.574  55.674 -49.688  1.00  0.00     0.235 C 
HETATM   21  C   UNL     1     -40.195  55.271 -50.166  1.00  0.00     0.029 C 
HETATM   22  C   UNL     1     -40.322  53.775 -50.348  1.00  0.00     0.029 C 
HETATM   23  C   UNL     1     -41.669  53.629 -51.029  1.00  0.00     0.235 C 
ENDBRANCH  17  18
ENDBRANCH  16  17
ENDBRANCH  13  16
ENDBRANCH  11  12
ENDBRANCH   6  11
BRANCH   7  24
HETATM   24  C   UNL     1     -41.675  58.949 -52.571  1.00  0.00    -0.030 A 
HETATM   25  C   UNL     1     -41.703  59.137 -51.174  1.00  0.00     0.011 A 
HETATM   26  C   UNL     1     -40.518  59.268 -50.437  1.00  0.00     0.024 A 
HETATM   27  C   UNL     1     -39.285  59.186 -51.075  1.00  0.00     0.034 A 
HETATM   28 CL   UNL     1     -37.835  59.382 -50.175  1.00  0.00    -0.084 Cl
HETATM   29  C   UNL     1     -39.225  58.952 -52.441  1.00  0.00     0.024 A 
HETATM   30  C   UNL     1     -40.407  58.828 -53.181  1.00  0.00     0.011 A 
ENDBRANCH   7  24
BRANCH  10  31
HETATM   31  C   UNL     1     -42.910  57.411 -55.375  1.00  0.00     0.294 C 
HETATM   32  O   UNL     1     -43.913  56.965 -55.892  1.00  0.00    -0.259 OA
BRANCH  31  33
HETATM   33  O   UNL     1     -41.702  56.819 -55.234  1.00  0.00    -0.314 OA
BRANCH  33  34
HETATM   34  C   UNL     1     -41.773  55.385 -55.252  1.00  0.00     0.206 C 
BRANCH  34  35
HETATM   35  C   UNL     1     -40.501  54.805 -54.700  1.00  0.00    -0.011 C 
HETATM   36  C   UNL     1     -40.115  53.521 -54.715  1.00  0.00     0.009 C 
ENDBRANCH  34  35
ENDBRANCH  33  34
ENDBRANCH  31  33
ENDBRANCH  10  31
TORSDOF 10
ENDMDL
