MODEL 1
REMARK VINA RESULT:      -8.1      0.000      0.000
REMARK  2 active torsions:
REMARK  status: ('A' for Active; 'I' for Inactive)
REMARK       I    between atoms: C_2  and  N_3 
REMARK    1  A    between atoms: N_3  and  C_4 
REMARK    2  A    between atoms: C_11  and  N_12 
REMARK       I    between atoms: N_12  and  C_13 
ROOT
HETATM    1  C   UNL     1     -41.779  59.175 -51.634  1.00  0.00     0.035 A 
HETATM    2  C   UNL     1     -41.922  57.915 -51.049  1.00  0.00     0.038 A 
HETATM    3  C   UNL     1     -41.579  56.795 -51.794  1.00  0.00    -0.041 A 
HETATM    4  C   UNL     1     -41.094  56.900 -53.113  1.00  0.00    -0.019 A 
HETATM    5  C   UNL     1     -40.831  55.570 -53.618  1.00  0.00    -0.019 A 
HETATM    6  C   UNL     1     -41.152  54.631 -52.618  1.00  0.00    -0.041 A 
HETATM    7  C   UNL     1     -41.002  53.263 -52.816  1.00  0.00     0.038 A 
HETATM    8  C   UNL     1     -40.521  52.814 -54.046  1.00  0.00     0.035 A 
HETATM    9  C   UNL     1     -40.190  53.765 -55.041  1.00  0.00     0.030 A 
HETATM   10  C   UNL     1     -40.345  55.142 -54.837  1.00  0.00     0.015 A 
HETATM   11  C   UNL     1     -41.651  55.342 -51.373  1.00  0.00     0.079 A 
HETATM   12  C   UNL     1     -40.948  58.141 -53.703  1.00  0.00     0.015 A 
HETATM   13  C   UNL     1     -41.292  59.276 -52.957  1.00  0.00     0.030 A 
ENDROOT
BRANCH   1  14
HETATM   14  N   UNL     1     -42.097  60.384 -50.979  1.00  0.00    -0.328 N 
HETATM   15  C   UNL     1     -43.254  61.131 -51.108  1.00  0.00     0.218 C 
HETATM   16  C   UNL     1     -43.239  62.373 -50.250  1.00  0.00     0.117 C 
HETATM   17  O   UNL     1     -44.232  60.864 -51.797  1.00  0.00    -0.274 OA
HETATM   18  H   UNL     1     -41.397  60.735 -50.339  1.00  0.00     0.169 HD
ENDBRANCH   1  14
BRANCH   8  19
HETATM   19  N   UNL     1     -40.312  51.468 -54.399  1.00  0.00    -0.328 N 
HETATM   20  C   UNL     1     -39.836  50.372 -53.747  1.00  0.00     0.218 C 
HETATM   21  C   UNL     1     -39.470  50.406 -52.295  1.00  0.00     0.117 C 
HETATM   22  O   UNL     1     -39.728  49.322 -54.389  1.00  0.00    -0.274 OA
HETATM   23  H   UNL     1     -40.560  51.218 -55.351  1.00  0.00     0.169 HD
ENDBRANCH   8  19
TORSDOF 2
ENDMDL
MODEL 2
REMARK VINA RESULT:      -7.9      2.062      2.498
REMARK  2 active torsions:
REMARK  status: ('A' for Active; 'I' for Inactive)
REMARK       I    between atoms: C_2  and  N_3 
REMARK    1  A    between atoms: N_3  and  C_4 
REMARK    2  A    between atoms: C_11  and  N_12 
REMARK       I    between atoms: N_12  and  C_13 
ROOT
HETATM    1  C   UNL     1     -44.154  58.118 -52.342  1.00  0.00     0.035 A 
HETATM    2  C   UNL     1     -44.273  57.180 -53.370  1.00  0.00     0.038 A 
HETATM    3  C   UNL     1     -43.416  56.088 -53.373  1.00  0.00    -0.041 A 
HETATM    4  C   UNL     1     -42.439  55.906 -52.374  1.00  0.00    -0.019 A 
HETATM    5  C   UNL     1     -41.709  54.689 -52.653  1.00  0.00    -0.019 A 
HETATM    6  C   UNL     1     -42.225  54.108 -53.828  1.00  0.00    -0.041 A 
HETATM    7  C   UNL     1     -41.719  52.922 -54.348  1.00  0.00     0.038 A 
HETATM    8  C   UNL     1     -40.666  52.296 -53.681  1.00  0.00     0.035 A 
HETATM    9  C   UNL     1     -40.160  52.881 -52.495  1.00  0.00     0.030 A 
HETATM   10  C   UNL     1     -40.674  54.077 -51.977  1.00  0.00     0.015 A 
HETATM   11  C   UNL     1     -43.359  54.955 -54.377  1.00  0.00     0.079 A 
HETATM   12  C   UNL     1     -42.312  56.828 -51.352  1.00  0.00     0.015 A 
HETATM   13  C   UNL     1     -43.173  57.933 -51.342  1.00  0.00     0.030 A 
ENDROOT
BRANCH   1  14
HETATM   14  N   UNL     1     -44.964  59.269 -52.234  1.00  0.00    -0.328 N 
HETATM   15  C   UNL     1     -45.929  59.531 -51.278  1.00  0.00     0.218 C 
HETATM   16  C   UNL     1     -46.598  60.869 -51.484  1.00  0.00     0.117 C 
HETATM   17  O   UNL     1     -46.240  58.821 -50.329  1.00  0.00    -0.274 OA
HETATM   18  H   UNL     1     -44.811  59.982 -52.935  1.00  0.00     0.169 HD
ENDBRANCH   1  14
BRANCH   8  19
HETATM   19  N   UNL     1     -40.048  51.094 -54.076  1.00  0.00    -0.328 N 
HETATM   20  C   UNL     1     -39.618  49.981 -53.422  1.00  0.00     0.218 C 
HETATM   21  C   UNL     1     -39.833  49.788 -51.951  1.00  0.00     0.117 C 
HETATM   22  O   UNL     1     -39.051  49.106 -54.085  1.00  0.00    -0.274 OA
HETATM   23  H   UNL     1     -39.865  50.999 -55.069  1.00  0.00     0.169 HD
ENDBRANCH   8  19
TORSDOF 2
ENDMDL
MODEL 3
REMARK VINA RESULT:      -7.8     15.581     17.668
REMARK  2 active torsions:
REMARK  status: ('A' for Active; 'I' for Inactive)
REMARK       I    between atoms: C_2  and  N_3 
REMARK    1  A    between atoms: N_3  and  C_4 
REMARK    2  A    between atoms: C_11  and  N_12 
REMARK       I    between atoms: N_12  and  C_13 
ROOT
HETATM    1  C   UNL     1     -32.744  40.418 -50.854  1.00  0.00     0.035 A 
HETATM    2  C   UNL     1     -32.342  40.143 -52.163  1.00  0.00     0.038 A 
HETATM    3  C   UNL     1     -33.161  40.553 -53.206  1.00  0.00    -0.041 A 
HETATM    4  C   UNL     1     -34.374  41.234 -52.977  1.00  0.00    -0.019 A 
HETATM    5  C   UNL     1     -34.994  41.522 -54.252  1.00  0.00    -0.019 A 
HETATM    6  C   UNL     1     -34.172  41.021 -55.281  1.00  0.00    -0.041 A 
HETATM    7  C   UNL     1     -34.511  41.150 -56.624  1.00  0.00     0.038 A 
HETATM    8  C   UNL     1     -35.704  41.793 -56.953  1.00  0.00     0.035 A 
HETATM    9  C   UNL     1     -36.518  42.303 -55.913  1.00  0.00     0.030 A 
HETATM   10  C   UNL     1     -36.172  42.169 -54.562  1.00  0.00     0.015 A 
HETATM   11  C   UNL     1     -32.935  40.368 -54.693  1.00  0.00     0.079 A 
HETATM   12  C   UNL     1     -34.781  41.511 -51.686  1.00  0.00     0.015 A 
HETATM   13  C   UNL     1     -33.960  41.100 -50.627  1.00  0.00     0.030 A 
ENDROOT
BRANCH   1  14
HETATM   14  N   UNL     1     -31.999  40.048 -49.712  1.00  0.00    -0.328 N 
HETATM   15  C   UNL     1     -32.396  39.213 -48.684  1.00  0.00     0.218 C 
HETATM   16  C   UNL     1     -31.330  39.052 -47.626  1.00  0.00     0.117 C 
HETATM   17  O   UNL     1     -33.461  38.615 -48.587  1.00  0.00    -0.274 OA
HETATM   18  H   UNL     1     -31.068  40.437 -49.650  1.00  0.00     0.169 HD
ENDBRANCH   1  14
BRANCH   8  19
HETATM   19  N   UNL     1     -36.184  42.005 -58.259  1.00  0.00    -0.328 N 
HETATM   20  C   UNL     1     -37.182  41.464 -59.009  1.00  0.00     0.218 C 
HETATM   21  C   UNL     1     -38.133  40.445 -58.457  1.00  0.00     0.117 C 
HETATM   22  O   UNL     1     -37.302  41.853 -60.176  1.00  0.00    -0.274 OA
HETATM   23  H   UNL     1     -35.701  42.717 -58.796  1.00  0.00     0.169 HD
ENDBRANCH   8  19
TORSDOF 2
ENDMDL
MODEL 4
REMARK VINA RESULT:      -7.6      0.992      8.077
REMARK  2 active torsions:
REMARK  status: ('A' for Active; 'I' for Inactive)
REMARK       I    between atoms: C_2  and  N_3 
REMARK    1  A    between atoms: N_3  and  C_4 
REMARK    2  A    between atoms: C_11  and  N_12 
REMARK       I    between atoms: N_12  and  C_13 
ROOT
HETATM    1  C   UNL     1     -40.506  53.231 -54.010  1.00  0.00     0.035 A 
HETATM    2  C   UNL     1     -40.893  53.663 -52.740  1.00  0.00     0.038 A 
HETATM    3  C   UNL     1     -41.098  55.021 -52.536  1.00  0.00    -0.041 A 
HETATM    4  C   UNL     1     -40.927  55.962 -53.570  1.00  0.00    -0.019 A 
HETATM    5  C   UNL     1     -41.210  57.282 -53.050  1.00  0.00    -0.019 A 
HETATM    6  C   UNL     1     -41.556  57.170 -51.689  1.00  0.00    -0.041 A 
HETATM    7  C   UNL     1     -41.882  58.280 -50.917  1.00  0.00     0.038 A 
HETATM    8  C   UNL     1     -41.858  59.540 -51.515  1.00  0.00     0.035 A 
HETATM    9  C   UNL     1     -41.520  59.642 -52.886  1.00  0.00     0.030 A 
HETATM   10  C   UNL     1     -41.192  58.520 -53.658  1.00  0.00     0.015 A 
HETATM   11  C   UNL     1     -41.516  55.715 -51.256  1.00  0.00     0.079 A 
HETATM   12  C   UNL     1     -40.544  55.546 -54.832  1.00  0.00     0.015 A 
HETATM   13  C   UNL     1     -40.335  54.177 -55.045  1.00  0.00     0.030 A 
ENDROOT
BRANCH   1  14
HETATM   14  N   UNL     1     -40.265  51.879 -54.338  1.00  0.00    -0.328 N 
HETATM   15  C   UNL     1     -39.667  50.915 -53.546  1.00  0.00     0.218 C 
HETATM   16  C   UNL     1     -39.575  49.575 -54.236  1.00  0.00     0.117 C 
HETATM   17  O   UNL     1     -39.259  51.051 -52.398  1.00  0.00    -0.274 OA
HETATM   18  H   UNL     1     -40.573  51.588 -55.256  1.00  0.00     0.169 HD
ENDBRANCH   1  14
BRANCH   8  19
HETATM   19  N   UNL     1     -42.164  60.755 -50.873  1.00  0.00    -0.328 N 
HETATM   20  C   UNL     1     -43.317  61.386 -50.522  1.00  0.00     0.218 C 
HETATM   21  C   UNL     1     -44.663  60.759 -50.727  1.00  0.00     0.117 C 
HETATM   22  O   UNL     1     -43.228  62.504 -50.004  1.00  0.00    -0.274 OA
HETATM   23  H   UNL     1     -41.368  61.316 -50.592  1.00  0.00     0.169 HD
ENDBRANCH   8  19
TORSDOF 2
ENDMDL
MODEL 5
REMARK VINA RESULT:      -7.4      1.893      1.954
REMARK  2 active torsions:
REMARK  status: ('A' for Active; 'I' for Inactive)
REMARK       I    between atoms: C_2  and  N_3 
REMARK    1  A    between atoms: N_3  and  C_4 
REMARK    2  A    between atoms: C_11  and  N_12 
REMARK       I    between atoms: N_12  and  C_13 
ROOT
HETATM    1  C   UNL     1     -43.878  58.375 -51.718  1.00  0.00     0.035 A 
HETATM    2  C   UNL     1     -42.943  57.525 -51.123  1.00  0.00     0.038 A 
HETATM    3  C   UNL     1     -42.532  56.399 -51.823  1.00  0.00    -0.041 A 
HETATM    4  C   UNL     1     -43.029  56.098 -53.106  1.00  0.00    -0.019 A 
HETATM    5  C   UNL     1     -42.416  54.871 -53.567  1.00  0.00    -0.019 A 
HETATM    6  C   UNL     1     -41.536  54.401 -52.572  1.00  0.00    -0.041 A 
HETATM    7  C   UNL     1     -40.799  53.233 -52.732  1.00  0.00     0.038 A 
HETATM    8  C   UNL     1     -40.944  52.508 -53.915  1.00  0.00     0.035 A 
HETATM    9  C   UNL     1     -41.822  52.993 -54.914  1.00  0.00     0.030 A 
HETATM   10  C   UNL     1     -42.564  54.170 -54.746  1.00  0.00     0.015 A 
HETATM   11  C   UNL     1     -41.538  55.344 -51.382  1.00  0.00     0.079 A 
HETATM   12  C   UNL     1     -43.955  56.931 -53.706  1.00  0.00     0.015 A 
HETATM   13  C   UNL     1     -44.376  58.070 -53.005  1.00  0.00     0.030 A 
ENDROOT
BRANCH   1  14
HETATM   14  N   UNL     1     -44.375  59.546 -51.106  1.00  0.00    -0.328 N 
HETATM   15  C   UNL     1     -45.533  59.679 -50.360  1.00  0.00     0.218 C 
HETATM   16  C   UNL     1     -45.743  61.090 -49.865  1.00  0.00     0.117 C 
HETATM   17  O   UNL     1     -46.329  58.794 -50.070  1.00  0.00    -0.274 OA
HETATM   18  H   UNL     1     -43.811  60.377 -51.224  1.00  0.00     0.169 HD
ENDBRANCH   1  14
BRANCH   8  19
HETATM   19  N   UNL     1     -40.270  51.313 -54.228  1.00  0.00    -0.328 N 
HETATM   20  C   UNL     1     -39.631  50.357 -53.500  1.00  0.00     0.218 C 
HETATM   21  C   UNL     1     -39.600  50.385 -52.002  1.00  0.00     0.117 C 
HETATM   22  O   UNL     1     -39.081  49.436 -54.114  1.00  0.00    -0.274 OA
HETATM   23  H   UNL     1     -40.230  51.075 -55.214  1.00  0.00     0.169 HD
ENDBRANCH   8  19
TORSDOF 2
ENDMDL
MODEL 6
REMARK VINA RESULT:      -7.4      1.959      8.147
REMARK  2 active torsions:
REMARK  status: ('A' for Active; 'I' for Inactive)
REMARK       I    between atoms: C_2  and  N_3 
REMARK    1  A    between atoms: N_3  and  C_4 
REMARK    2  A    between atoms: C_11  and  N_12 
REMARK       I    between atoms: N_12  and  C_13 
ROOT
HETATM    1  C   UNL     1     -40.649  52.970 -53.597  1.00  0.00     0.035 A 
HETATM    2  C   UNL     1     -41.291  53.239 -52.386  1.00  0.00     0.038 A 
HETATM    3  C   UNL     1     -42.065  54.387 -52.287  1.00  0.00    -0.041 A 
HETATM    4  C   UNL     1     -42.217  55.277 -53.369  1.00  0.00    -0.019 A 
HETATM    5  C   UNL     1     -43.073  56.368 -52.957  1.00  0.00    -0.019 A 
HETATM    6  C   UNL     1     -43.456  56.165 -51.617  1.00  0.00    -0.041 A 
HETATM    7  C   UNL     1     -44.284  57.057 -50.944  1.00  0.00     0.038 A 
HETATM    8  C   UNL     1     -44.742  58.187 -51.622  1.00  0.00     0.035 A 
HETATM    9  C   UNL     1     -44.361  58.377 -52.972  1.00  0.00     0.030 A 
HETATM   10  C   UNL     1     -43.525  57.476 -53.645  1.00  0.00     0.015 A 
HETATM   11  C   UNL     1     -42.846  54.881 -51.086  1.00  0.00     0.079 A 
HETATM   12  C   UNL     1     -41.587  55.021 -54.572  1.00  0.00     0.015 A 
HETATM   13  C   UNL     1     -40.803  53.864 -54.680  1.00  0.00     0.030 A 
ENDROOT
BRANCH   1  14
HETATM   14  N   UNL     1     -39.834  51.839 -53.817  1.00  0.00    -0.328 N 
HETATM   15  C   UNL     1     -40.231  50.589 -54.257  1.00  0.00     0.218 C 
HETATM   16  C   UNL     1     -39.076  49.623 -54.372  1.00  0.00     0.117 C 
HETATM   17  O   UNL     1     -41.365  50.240 -54.565  1.00  0.00    -0.274 OA
HETATM   18  H   UNL     1     -38.847  51.967 -53.637  1.00  0.00     0.169 HD
ENDBRANCH   1  14
BRANCH   8  19
HETATM   19  N   UNL     1     -45.584  59.177 -51.084  1.00  0.00    -0.328 N 
HETATM   20  C   UNL     1     -45.381  60.333 -50.394  1.00  0.00     0.218 C 
HETATM   21  C   UNL     1     -44.008  60.863 -50.115  1.00  0.00     0.117 C 
HETATM   22  O   UNL     1     -46.376  60.958 -50.011  1.00  0.00    -0.274 OA
HETATM   23  H   UNL     1     -46.579  59.032 -51.221  1.00  0.00     0.169 HD
ENDBRANCH   8  19
TORSDOF 2
ENDMDL
MODEL 7
REMARK VINA RESULT:      -7.4      4.446      6.036
REMARK  2 active torsions:
REMARK  status: ('A' for Active; 'I' for Inactive)
REMARK       I    between atoms: C_2  and  N_3 
REMARK    1  A    between atoms: N_3  and  C_4 
REMARK    2  A    between atoms: C_11  and  N_12 
REMARK       I    between atoms: N_12  and  C_13 
ROOT
HETATM    1  C   UNL     1     -41.652  55.082 -50.956  1.00  0.00     0.035 A 
HETATM    2  C   UNL     1     -41.917  54.213 -52.016  1.00  0.00     0.038 A 
HETATM    3  C   UNL     1     -42.151  54.754 -53.273  1.00  0.00    -0.041 A 
HETATM    4  C   UNL     1     -42.127  56.145 -53.500  1.00  0.00    -0.019 A 
HETATM    5  C   UNL     1     -42.407  56.393 -54.898  1.00  0.00    -0.019 A 
HETATM    6  C   UNL     1     -42.610  55.159 -55.547  1.00  0.00    -0.041 A 
HETATM    7  C   UNL     1     -42.901  55.079 -56.905  1.00  0.00     0.038 A 
HETATM    8  C   UNL     1     -42.996  56.262 -57.638  1.00  0.00     0.035 A 
HETATM    9  C   UNL     1     -42.780  57.497 -56.980  1.00  0.00     0.030 A 
HETATM   10  C   UNL     1     -42.489  57.571 -55.611  1.00  0.00     0.015 A 
HETATM   11  C   UNL     1     -42.457  54.016 -54.560  1.00  0.00     0.079 A 
HETATM   12  C   UNL     1     -41.865  57.014 -52.458  1.00  0.00     0.015 A 
HETATM   13  C   UNL     1     -41.628  56.475 -51.187  1.00  0.00     0.030 A 
ENDROOT
BRANCH   1  14
HETATM   14  N   UNL     1     -41.402  54.652 -49.634  1.00  0.00    -0.328 N 
HETATM   15  C   UNL     1     -40.189  54.277 -49.086  1.00  0.00     0.218 C 
HETATM   16  C   UNL     1     -40.309  53.871 -47.637  1.00  0.00     0.117 C 
HETATM   17  O   UNL     1     -39.097  54.276 -49.643  1.00  0.00    -0.274 OA
HETATM   18  H   UNL     1     -42.207  54.624 -49.022  1.00  0.00     0.169 HD
ENDBRANCH   1  14
BRANCH   8  19
HETATM   19  N   UNL     1     -43.279  56.349 -59.014  1.00  0.00    -0.328 N 
HETATM   20  C   UNL     1     -43.902  55.541 -59.915  1.00  0.00     0.218 C 
HETATM   21  C   UNL     1     -44.559  54.256 -59.511  1.00  0.00     0.117 C 
HETATM   22  O   UNL     1     -43.930  55.907 -61.095  1.00  0.00    -0.274 OA
HETATM   23  H   UNL     1     -42.961  57.195 -59.476  1.00  0.00     0.169 HD
ENDBRANCH   8  19
TORSDOF 2
ENDMDL
MODEL 8
REMARK VINA RESULT:      -7.2     15.915     17.710
REMARK  2 active torsions:
REMARK  status: ('A' for Active; 'I' for Inactive)
REMARK       I    between atoms: C_2  and  N_3 
REMARK    1  A    between atoms: N_3  and  C_4 
REMARK    2  A    between atoms: C_11  and  N_12 
REMARK       I    between atoms: N_12  and  C_13 
ROOT
HETATM    1  C   UNL     1     -35.218  41.217 -54.762  1.00  0.00     0.035 A 
HETATM    2  C   UNL     1     -35.832  40.001 -55.067  1.00  0.00     0.038 A 
HETATM    3  C   UNL     1     -36.354  39.823 -56.341  1.00  0.00    -0.041 A 
HETATM    4  C   UNL     1     -36.278  40.831 -57.323  1.00  0.00    -0.019 A 
HETATM    5  C   UNL     1     -36.906  40.350 -58.534  1.00  0.00    -0.019 A 
HETATM    6  C   UNL     1     -37.379  39.042 -58.311  1.00  0.00    -0.041 A 
HETATM    7  C   UNL     1     -38.034  38.316 -59.301  1.00  0.00     0.038 A 
HETATM    8  C   UNL     1     -38.227  38.911 -60.548  1.00  0.00     0.035 A 
HETATM    9  C   UNL     1     -37.739  40.221 -60.766  1.00  0.00     0.030 A 
HETATM   10  C   UNL     1     -37.081  40.948 -59.764  1.00  0.00     0.015 A 
HETATM   11  C   UNL     1     -37.059  38.602 -56.894  1.00  0.00     0.079 A 
HETATM   12  C   UNL     1     -35.672  42.039 -57.033  1.00  0.00     0.015 A 
HETATM   13  C   UNL     1     -35.143  42.226 -55.748  1.00  0.00     0.030 A 
ENDROOT
BRANCH   1  14
HETATM   14  N   UNL     1     -34.655  41.516 -53.502  1.00  0.00    -0.328 N 
HETATM   15  C   UNL     1     -35.307  41.591 -52.285  1.00  0.00     0.218 C 
HETATM   16  C   UNL     1     -34.376  41.941 -51.150  1.00  0.00     0.117 C 
HETATM   17  O   UNL     1     -36.496  41.382 -52.071  1.00  0.00    -0.274 OA
HETATM   18  H   UNL     1     -33.658  41.688 -53.496  1.00  0.00     0.169 HD
ENDBRANCH   1  14
BRANCH   8  19
HETATM   19  N   UNL     1     -38.865  38.310 -61.649  1.00  0.00    -0.328 N 
HETATM   20  C   UNL     1     -40.124  37.852 -61.891  1.00  0.00     0.218 C 
HETATM   21  C   UNL     1     -41.233  38.004 -60.894  1.00  0.00     0.117 C 
HETATM   22  O   UNL     1     -40.342  37.313 -62.981  1.00  0.00    -0.274 OA
HETATM   23  H   UNL     1     -38.287  38.169 -62.470  1.00  0.00     0.169 HD
ENDBRANCH   8  19
TORSDOF 2
ENDMDL
MODEL 9
REMARK VINA RESULT:      -7.0      2.436      8.179
REMARK  2 active torsions:
REMARK  status: ('A' for Active; 'I' for Inactive)
REMARK       I    between atoms: C_2  and  N_3 
REMARK    1  A    between atoms: N_3  and  C_4 
REMARK    2  A    between atoms: C_11  and  N_12 
REMARK       I    between atoms: N_12  and  C_13 
ROOT
HETATM    1  C   UNL     1     -40.677  53.212 -50.541  1.00  0.00     0.035 A 
HETATM    2  C   UNL     1     -41.739  53.725 -51.288  1.00  0.00     0.038 A 
HETATM    3  C   UNL     1     -41.943  55.098 -51.296  1.00  0.00    -0.041 A 
HETATM    4  C   UNL     1     -41.110  55.977 -50.575  1.00  0.00    -0.019 A 
HETATM    5  C   UNL     1     -41.575  57.331 -50.780  1.00  0.00    -0.019 A 
HETATM    6  C   UNL     1     -42.701  57.303 -51.626  1.00  0.00    -0.041 A 
HETATM    7  C   UNL     1     -43.370  58.462 -52.003  1.00  0.00     0.038 A 
HETATM    8  C   UNL     1     -42.907  59.687 -51.521  1.00  0.00     0.035 A 
HETATM    9  C   UNL     1     -41.769  59.708 -50.680  1.00  0.00     0.030 A 
HETATM   10  C   UNL     1     -41.100  58.535 -50.303  1.00  0.00     0.015 A 
HETATM   11  C   UNL     1     -43.020  55.873 -52.025  1.00  0.00     0.079 A 
HETATM   12  C   UNL     1     -40.055  55.482 -49.832  1.00  0.00     0.015 A 
HETATM   13  C   UNL     1     -39.844  54.096 -49.819  1.00  0.00     0.030 A 
ENDROOT
BRANCH   1  14
HETATM   14  N   UNL     1     -40.373  51.837 -50.452  1.00  0.00    -0.328 N 
HETATM   15  C   UNL     1     -39.694  51.064 -51.377  1.00  0.00     0.218 C 
HETATM   16  C   UNL     1     -39.559  49.625 -50.941  1.00  0.00     0.117 C 
HETATM   17  O   UNL     1     -39.204  51.440 -52.436  1.00  0.00    -0.274 OA
HETATM   18  H   UNL     1     -40.684  51.371 -49.610  1.00  0.00     0.169 HD
ENDBRANCH   1  14
BRANCH   8  19
HETATM   19  N   UNL     1     -43.470  60.944 -51.811  1.00  0.00    -0.328 N 
HETATM   20  C   UNL     1     -43.502  61.745 -52.911  1.00  0.00     0.218 C 
HETATM   21  C   UNL     1     -42.914  61.322 -54.223  1.00  0.00     0.117 C 
HETATM   22  O   UNL     1     -44.053  62.846 -52.806  1.00  0.00    -0.274 OA
HETATM   23  H   UNL     1     -43.976  61.386 -51.052  1.00  0.00     0.169 HD
ENDBRANCH   8  19
TORSDOF 2
ENDMDL
MODEL 10
REMARK VINA RESULT:      -6.9      3.514      8.125
REMARK  2 active torsions:
REMARK  status: ('A' for Active; 'I' for Inactive)
REMARK       I    between atoms: C_2  and  N_3 
REMARK    1  A    between atoms: N_3  and  C_4 
REMARK    2  A    between atoms: C_11  and  N_12 
REMARK       I    between atoms: N_12  and  C_13 
ROOT
HETATM    1  C   UNL     1     -40.682  52.762 -53.583  1.00  0.00     0.035 A 
HETATM    2  C   UNL     1     -41.842  53.374 -53.103  1.00  0.00     0.038 A 
HETATM    3  C   UNL     1     -42.361  54.453 -53.805  1.00  0.00    -0.041 A 
HETATM    4  C   UNL     1     -41.750  54.940 -54.979  1.00  0.00    -0.019 A 
HETATM    5  C   UNL     1     -42.519  56.062 -55.472  1.00  0.00    -0.019 A 
HETATM    6  C   UNL     1     -43.609  56.281 -54.608  1.00  0.00    -0.041 A 
HETATM    7  C   UNL     1     -44.530  57.300 -54.827  1.00  0.00     0.038 A 
HETATM    8  C   UNL     1     -44.359  58.128 -55.936  1.00  0.00     0.035 A 
HETATM    9  C   UNL     1     -43.267  57.893 -56.806  1.00  0.00     0.030 A 
HETATM   10  C   UNL     1     -42.342  56.866 -56.579  1.00  0.00     0.015 A 
HETATM   11  C   UNL     1     -43.596  55.267 -53.478  1.00  0.00     0.079 A 
HETATM   12  C   UNL     1     -40.602  54.342 -55.463  1.00  0.00     0.015 A 
HETATM   13  C   UNL     1     -40.073  53.252 -54.759  1.00  0.00     0.030 A 
ENDROOT
BRANCH   1  14
HETATM   14  N   UNL     1     -40.060  51.661 -52.955  1.00  0.00    -0.328 N 
HETATM   15  C   UNL     1     -40.021  50.351 -53.398  1.00  0.00     0.218 C 
HETATM   16  C   UNL     1     -39.263  49.445 -52.457  1.00  0.00     0.117 C 
HETATM   17  O   UNL     1     -40.498  49.909 -54.436  1.00  0.00    -0.274 OA
HETATM   18  H   UNL     1     -39.584  51.863 -52.085  1.00  0.00     0.169 HD
ENDBRANCH   1  14
BRANCH   8  19
HETATM   19  N   UNL     1     -45.202  59.196 -56.296  1.00  0.00    -0.328 N 
HETATM   20  C   UNL     1     -46.292  59.324 -57.101  1.00  0.00     0.218 C 
HETATM   21  C   UNL     1     -46.919  58.148 -57.786  1.00  0.00     0.117 C 
HETATM   22  O   UNL     1     -46.775  60.453 -57.242  1.00  0.00    -0.274 OA
HETATM   23  H   UNL     1     -44.978  60.094 -55.880  1.00  0.00     0.169 HD
ENDBRANCH   8  19
TORSDOF 2
ENDMDL
