MODEL 1
REMARK VINA RESULT:      -7.7      0.000      0.000
REMARK  2 active torsions:
REMARK  status: ('A' for Active; 'I' for Inactive)
REMARK    1  A    between atoms: C_2  and  C_3 
REMARK    2  A    between atoms: C_6  and  C_7 
ROOT
HETATM    1  C   UNL     1     -41.741  57.228 -53.922  1.00  0.00     0.119 C 
HETATM    2  S   UNL     1     -41.559  57.903 -52.248  1.00  0.00    -0.141 SA
HETATM    3  C   UNL     1     -43.171  58.682 -51.955  1.00  0.00     0.136 C 
HETATM    4  C   UNL     1     -43.061  59.577 -50.722  1.00  0.00     0.031 C 
HETATM    5  C   UNL     1     -44.232  57.618 -51.740  1.00  0.00     0.236 C 
HETATM    6  O   UNL     1     -44.731  57.310 -50.669  1.00  0.00    -0.272 OA
HETATM    7  N   UNL     1     -44.807  56.960 -52.870  1.00  0.00    -0.311 N 
HETATM    8  C   UNL     1     -44.360  57.110 -54.163  1.00  0.00     0.134 C 
HETATM    9  C   UNL     1     -43.068  57.301 -54.619  1.00  0.00     0.032 C 
HETATM   10  N   UNL     1     -45.159  57.035 -55.270  1.00  0.00    -0.262 N 
HETATM   11  H   UNL     1     -46.154  56.852 -55.320  1.00  0.00     0.191 HD
HETATM   12  N   UNL     1     -44.525  57.346 -56.403  1.00  0.00    -0.178 NA
HETATM   13  C   UNL     1     -43.246  57.478 -56.035  1.00  0.00     0.062 C 
HETATM   14  C   UNL     1     -42.216  57.732 -57.079  1.00  0.00     0.073 C 
HETATM   15  H   UNL     1     -45.657  56.443 -52.673  1.00  0.00     0.170 HD
ENDROOT
BRANCH   1  16
HETATM   16  C   UNL     1     -41.351  55.756 -53.993  1.00  0.00    -0.040 A 
HETATM   17  C   UNL     1     -40.584  55.226 -55.047  1.00  0.00     0.009 A 
HETATM   18  C   UNL     1     -40.176  53.890 -55.038  1.00  0.00     0.007 A 
HETATM   19  C   UNL     1     -40.530  53.045 -53.983  1.00  0.00    -0.059 A 
HETATM   20  C   UNL     1     -41.318  53.552 -52.945  1.00  0.00     0.007 A 
HETATM   21  C   UNL     1     -41.729  54.888 -52.954  1.00  0.00     0.009 A 
BRANCH  19  22
HETATM   22  C   UNL     1     -40.030  51.624 -53.941  1.00  0.00     0.034 C 
HETATM   23  C   UNL     1     -39.600  51.229 -52.535  1.00  0.00     0.010 C 
ENDBRANCH  19  22
ENDBRANCH   1  16
TORSDOF 2
ENDMDL
MODEL 2
REMARK VINA RESULT:      -7.6      2.635      3.937
REMARK  2 active torsions:
REMARK  status: ('A' for Active; 'I' for Inactive)
REMARK    1  A    between atoms: C_2  and  C_3 
REMARK    2  A    between atoms: C_6  and  C_7 
ROOT
HETATM    1  C   UNL     1     -42.676  55.976 -52.867  1.00  0.00     0.119 C 
HETATM    2  S   UNL     1     -44.079  55.980 -54.017  1.00  0.00    -0.141 SA
HETATM    3  C   UNL     1     -44.042  57.667 -54.683  1.00  0.00     0.136 C 
HETATM    4  C   UNL     1     -45.356  57.928 -55.417  1.00  0.00     0.031 C 
HETATM    5  C   UNL     1     -42.869  57.826 -55.634  1.00  0.00     0.236 C 
HETATM    6  O   UNL     1     -42.935  57.866 -56.852  1.00  0.00    -0.272 OA
HETATM    7  N   UNL     1     -41.562  58.056 -55.105  1.00  0.00    -0.311 N 
HETATM    8  C   UNL     1     -41.248  57.995 -53.767  1.00  0.00     0.134 C 
HETATM    9  C   UNL     1     -41.767  57.167 -52.789  1.00  0.00     0.032 C 
HETATM   10  N   UNL     1     -40.275  58.747 -53.167  1.00  0.00    -0.262 N 
HETATM   11  H   UNL     1     -39.651  59.425 -53.589  1.00  0.00     0.191 HD
HETATM   12  N   UNL     1     -40.244  58.612 -51.840  1.00  0.00    -0.178 NA
HETATM   13  C   UNL     1     -41.119  57.633 -51.591  1.00  0.00     0.062 C 
HETATM   14  C   UNL     1     -41.276  57.139 -50.196  1.00  0.00     0.073 C 
HETATM   15  H   UNL     1     -40.881  58.380 -55.783  1.00  0.00     0.170 HD
ENDROOT
BRANCH   1  16
HETATM   16  C   UNL     1     -41.740  54.796 -53.106  1.00  0.00    -0.040 A 
HETATM   17  C   UNL     1     -41.260  53.987 -52.060  1.00  0.00     0.009 A 
HETATM   18  C   UNL     1     -40.469  52.865 -52.324  1.00  0.00     0.007 A 
HETATM   19  C   UNL     1     -40.132  52.525 -53.637  1.00  0.00    -0.059 A 
HETATM   20  C   UNL     1     -40.579  53.339 -54.682  1.00  0.00     0.007 A 
HETATM   21  C   UNL     1     -41.367  54.463 -54.420  1.00  0.00     0.009 A 
BRANCH  19  22
HETATM   22  C   UNL     1     -39.340  51.276 -53.923  1.00  0.00     0.034 C 
HETATM   23  C   UNL     1     -40.249  50.122 -54.322  1.00  0.00     0.010 C 
ENDBRANCH  19  22
ENDBRANCH   1  16
TORSDOF 2
ENDMDL
MODEL 3
REMARK VINA RESULT:      -7.0      2.642      3.828
REMARK  2 active torsions:
REMARK  status: ('A' for Active; 'I' for Inactive)
REMARK    1  A    between atoms: C_2  and  C_3 
REMARK    2  A    between atoms: C_6  and  C_7 
ROOT
HETATM    1  C   UNL     1     -43.446  56.619 -54.148  1.00  0.00     0.119 C 
HETATM    2  S   UNL     1     -43.901  57.284 -55.773  1.00  0.00    -0.141 SA
HETATM    3  C   UNL     1     -43.601  59.062 -55.573  1.00  0.00     0.136 C 
HETATM    4  C   UNL     1     -44.248  59.799 -56.745  1.00  0.00     0.031 C 
HETATM    5  C   UNL     1     -42.108  59.338 -55.539  1.00  0.00     0.236 C 
HETATM    6  O   UNL     1     -41.449  59.823 -56.445  1.00  0.00    -0.272 OA
HETATM    7  N   UNL     1     -41.383  59.126 -54.327  1.00  0.00    -0.311 N 
HETATM    8  C   UNL     1     -41.911  58.536 -53.202  1.00  0.00     0.134 C 
HETATM    9  C   UNL     1     -42.845  57.521 -53.111  1.00  0.00     0.032 C 
HETATM   10  N   UNL     1     -41.534  58.838 -51.922  1.00  0.00    -0.262 N 
HETATM   11  H   UNL     1     -40.833  59.499 -51.610  1.00  0.00     0.191 HD
HETATM   12  N   UNL     1     -42.280  58.234 -50.994  1.00  0.00    -0.178 NA
HETATM   13  C   UNL     1     -43.060  57.403 -51.693  1.00  0.00     0.062 C 
HETATM   14  C   UNL     1     -43.971  56.480 -50.962  1.00  0.00     0.073 C 
HETATM   15  H   UNL     1     -40.459  59.545 -54.307  1.00  0.00     0.170 HD
ENDROOT
BRANCH   1  16
HETATM   16  C   UNL     1     -42.466  55.456 -54.257  1.00  0.00    -0.040 A 
HETATM   17  C   UNL     1     -41.320  55.505 -55.072  1.00  0.00     0.009 A 
HETATM   18  C   UNL     1     -40.401  54.452 -55.085  1.00  0.00     0.007 A 
HETATM   19  C   UNL     1     -40.606  53.320 -54.291  1.00  0.00    -0.059 A 
HETATM   20  C   UNL     1     -41.756  53.247 -53.500  1.00  0.00     0.007 A 
HETATM   21  C   UNL     1     -42.678  54.297 -53.489  1.00  0.00     0.009 A 
BRANCH  19  22
HETATM   22  C   UNL     1     -39.578  52.218 -54.253  1.00  0.00     0.034 C 
HETATM   23  C   UNL     1     -40.233  50.847 -54.337  1.00  0.00     0.010 C 
ENDBRANCH  19  22
ENDBRANCH   1  16
TORSDOF 2
ENDMDL
MODEL 4
REMARK VINA RESULT:      -6.6     16.949     18.911
REMARK  2 active torsions:
REMARK  status: ('A' for Active; 'I' for Inactive)
REMARK    1  A    between atoms: C_2  and  C_3 
REMARK    2  A    between atoms: C_6  and  C_7 
ROOT
HETATM    1  C   UNL     1     -34.637  38.955 -52.987  1.00  0.00     0.119 C 
HETATM    2  S   UNL     1     -33.783  38.001 -54.272  1.00  0.00    -0.141 SA
HETATM    3  C   UNL     1     -33.977  39.049 -55.740  1.00  0.00     0.136 C 
HETATM    4  C   UNL     1     -33.599  38.231 -56.974  1.00  0.00     0.031 C 
HETATM    5  C   UNL     1     -33.087  40.273 -55.628  1.00  0.00     0.236 C 
HETATM    6  O   UNL     1     -32.043  40.457 -56.233  1.00  0.00    -0.272 OA
HETATM    7  N   UNL     1     -33.514  41.383 -54.837  1.00  0.00    -0.311 N 
HETATM    8  C   UNL     1     -34.627  41.373 -54.027  1.00  0.00     0.134 C 
HETATM    9  C   UNL     1     -35.159  40.327 -53.295  1.00  0.00     0.032 C 
HETATM   10  N   UNL     1     -35.396  42.471 -53.758  1.00  0.00    -0.262 N 
HETATM   11  H   UNL     1     -35.272  43.424 -54.081  1.00  0.00     0.191 HD
HETATM   12  N   UNL     1     -36.496  42.188 -53.057  1.00  0.00    -0.178 NA
HETATM   13  C   UNL     1     -36.356  40.898 -52.736  1.00  0.00     0.062 C 
HETATM   14  C   UNL     1     -37.369  40.258 -51.854  1.00  0.00     0.073 C 
HETATM   15  H   UNL     1     -32.995  42.240 -54.992  1.00  0.00     0.170 HD
ENDROOT
BRANCH   1  16
HETATM   16  C   UNL     1     -33.775  39.144 -51.743  1.00  0.00    -0.040 A 
HETATM   17  C   UNL     1     -32.461  39.642 -51.801  1.00  0.00     0.009 A 
HETATM   18  C   UNL     1     -31.729  39.879 -50.634  1.00  0.00     0.007 A 
HETATM   19  C   UNL     1     -32.287  39.617 -49.380  1.00  0.00    -0.059 A 
HETATM   20  C   UNL     1     -33.582  39.094 -49.310  1.00  0.00     0.007 A 
HETATM   21  C   UNL     1     -34.313  38.854 -50.477  1.00  0.00     0.009 A 
BRANCH  19  22
HETATM   22  C   UNL     1     -31.523  39.940 -48.121  1.00  0.00     0.034 C 
HETATM   23  C   UNL     1     -31.571  38.784 -47.132  1.00  0.00     0.010 C 
ENDBRANCH  19  22
ENDBRANCH   1  16
TORSDOF 2
ENDMDL
MODEL 5
REMARK VINA RESULT:      -6.4      3.038      4.782
REMARK  2 active torsions:
REMARK  status: ('A' for Active; 'I' for Inactive)
REMARK    1  A    between atoms: C_2  and  C_3 
REMARK    2  A    between atoms: C_6  and  C_7 
ROOT
HETATM    1  C   UNL     1     -42.998  59.120 -53.061  1.00  0.00     0.119 C 
HETATM    2  S   UNL     1     -44.105  60.478 -52.590  1.00  0.00    -0.141 SA
HETATM    3  C   UNL     1     -45.616  59.605 -52.094  1.00  0.00     0.136 C 
HETATM    4  C   UNL     1     -46.751  60.622 -51.984  1.00  0.00     0.031 C 
HETATM    5  C   UNL     1     -45.402  58.911 -50.760  1.00  0.00     0.236 C 
HETATM    6  O   UNL     1     -45.842  59.279 -49.683  1.00  0.00    -0.272 OA
HETATM    7  N   UNL     1     -44.721  57.656 -50.723  1.00  0.00    -0.311 N 
HETATM    8  C   UNL     1     -44.095  57.083 -51.806  1.00  0.00     0.134 C 
HETATM    9  C   UNL     1     -43.424  57.697 -52.848  1.00  0.00     0.032 C 
HETATM   10  N   UNL     1     -43.982  55.735 -52.009  1.00  0.00    -0.262 N 
HETATM   11  H   UNL     1     -44.310  54.978 -51.420  1.00  0.00     0.191 HD
HETATM   12  N   UNL     1     -43.454  55.420 -53.193  1.00  0.00    -0.178 NA
HETATM   13  C   UNL     1     -43.077  56.595 -53.705  1.00  0.00     0.062 C 
HETATM   14  C   UNL     1     -42.345  56.619 -55.002  1.00  0.00     0.073 C 
HETATM   15  H   UNL     1     -44.818  57.146 -49.852  1.00  0.00     0.170 HD
ENDROOT
BRANCH   1  16
HETATM   16  C   UNL     1     -41.641  59.220 -52.373  1.00  0.00    -0.040 A 
HETATM   17  C   UNL     1     -41.507  59.494 -51.000  1.00  0.00     0.009 A 
HETATM   18  C   UNL     1     -40.251  59.498 -50.387  1.00  0.00     0.007 A 
HETATM   19  C   UNL     1     -39.096  59.235 -51.129  1.00  0.00    -0.059 A 
HETATM   20  C   UNL     1     -39.214  58.990 -52.500  1.00  0.00     0.007 A 
HETATM   21  C   UNL     1     -40.469  58.990 -53.116  1.00  0.00     0.009 A 
BRANCH  19  22
HETATM   22  C   UNL     1     -37.751  59.170 -50.452  1.00  0.00     0.034 C 
HETATM   23  C   UNL     1     -37.649  60.184 -49.322  1.00  0.00     0.010 C 
ENDBRANCH  19  22
ENDBRANCH   1  16
TORSDOF 2
ENDMDL
MODEL 6
REMARK VINA RESULT:      -6.3     16.341     18.351
REMARK  2 active torsions:
REMARK  status: ('A' for Active; 'I' for Inactive)
REMARK    1  A    between atoms: C_2  and  C_3 
REMARK    2  A    between atoms: C_6  and  C_7 
ROOT
HETATM    1  C   UNL     1     -35.355  39.123 -54.195  1.00  0.00     0.119 C 
HETATM    2  S   UNL     1     -36.382  39.565 -52.767  1.00  0.00    -0.141 SA
HETATM    3  C   UNL     1     -35.151  39.865 -51.468  1.00  0.00     0.136 C 
HETATM    4  C   UNL     1     -35.870  39.925 -50.122  1.00  0.00     0.031 C 
HETATM    5  C   UNL     1     -34.421  41.169 -51.733  1.00  0.00     0.236 C 
HETATM    6  O   UNL     1     -34.593  42.220 -51.136  1.00  0.00    -0.272 OA
HETATM    7  N   UNL     1     -33.356  41.197 -52.685  1.00  0.00    -0.311 N 
HETATM    8  C   UNL     1     -33.029  40.147 -53.511  1.00  0.00     0.134 C 
HETATM    9  C   UNL     1     -33.860  39.212 -54.099  1.00  0.00     0.032 C 
HETATM   10  N   UNL     1     -31.762  39.877 -53.952  1.00  0.00    -0.262 N 
HETATM   11  H   UNL     1     -30.906  40.387 -53.766  1.00  0.00     0.191 HD
HETATM   12  N   UNL     1     -31.671  38.732 -54.631  1.00  0.00    -0.178 NA
HETATM   13  C   UNL     1     -32.938  38.328 -54.761  1.00  0.00     0.062 C 
HETATM   14  C   UNL     1     -33.230  37.110 -55.566  1.00  0.00     0.073 C 
HETATM   15  H   UNL     1     -32.771  42.024 -52.642  1.00  0.00     0.170 HD
ENDROOT
BRANCH   1  16
HETATM   16  C   UNL     1     -35.708  39.941 -55.432  1.00  0.00    -0.040 A 
HETATM   17  C   UNL     1     -35.915  39.355 -56.694  1.00  0.00     0.009 A 
HETATM   18  C   UNL     1     -36.317  40.126 -57.788  1.00  0.00     0.007 A 
HETATM   19  C   UNL     1     -36.515  41.502 -57.654  1.00  0.00    -0.059 A 
HETATM   20  C   UNL     1     -36.284  42.101 -56.412  1.00  0.00     0.007 A 
HETATM   21  C   UNL     1     -35.879  41.332 -55.317  1.00  0.00     0.009 A 
BRANCH  19  22
HETATM   22  C   UNL     1     -37.017  42.319 -58.817  1.00  0.00     0.034 C 
HETATM   23  C   UNL     1     -37.353  41.437 -60.010  1.00  0.00     0.010 C 
ENDBRANCH  19  22
ENDBRANCH   1  16
TORSDOF 2
ENDMDL
MODEL 7
REMARK VINA RESULT:      -6.2      2.648      4.056
REMARK  2 active torsions:
REMARK  status: ('A' for Active; 'I' for Inactive)
REMARK    1  A    between atoms: C_2  and  C_3 
REMARK    2  A    between atoms: C_6  and  C_7 
ROOT
HETATM    1  C   UNL     1     -41.722  56.936 -52.990  1.00  0.00     0.119 C 
HETATM    2  S   UNL     1     -41.166  55.556 -51.953  1.00  0.00    -0.141 SA
HETATM    3  C   UNL     1     -42.178  55.748 -50.459  1.00  0.00     0.136 C 
HETATM    4  C   UNL     1     -41.596  54.860 -49.361  1.00  0.00     0.031 C 
HETATM    5  C   UNL     1     -43.615  55.352 -50.749  1.00  0.00     0.236 C 
HETATM    6  O   UNL     1     -44.157  54.317 -50.395  1.00  0.00    -0.272 OA
HETATM    7  N   UNL     1     -44.482  56.281 -51.400  1.00  0.00    -0.311 N 
HETATM    8  C   UNL     1     -44.070  57.481 -51.934  1.00  0.00     0.134 C 
HETATM    9  C   UNL     1     -42.870  57.793 -52.545  1.00  0.00     0.032 C 
HETATM   10  N   UNL     1     -44.847  58.604 -51.999  1.00  0.00    -0.262 N 
HETATM   11  H   UNL     1     -45.806  58.728 -51.695  1.00  0.00     0.191 HD
HETATM   12  N   UNL     1     -44.188  59.680 -52.435  1.00  0.00    -0.178 NA
HETATM   13  C   UNL     1     -42.995  59.203 -52.804  1.00  0.00     0.062 C 
HETATM   14  C   UNL     1     -42.014  60.123 -53.443  1.00  0.00     0.073 C 
HETATM   15  H   UNL     1     -45.467  56.047 -51.352  1.00  0.00     0.170 HD
ENDROOT
BRANCH   1  16
HETATM   16  C   UNL     1     -42.105  56.482 -54.394  1.00  0.00    -0.040 A 
HETATM   17  C   UNL     1     -42.565  55.181 -54.670  1.00  0.00     0.009 A 
HETATM   18  C   UNL     1     -42.985  54.824 -55.955  1.00  0.00     0.007 A 
HETATM   19  C   UNL     1     -42.951  55.753 -56.998  1.00  0.00    -0.059 A 
HETATM   20  C   UNL     1     -42.468  57.040 -56.743  1.00  0.00     0.007 A 
HETATM   21  C   UNL     1     -42.045  57.398 -55.459  1.00  0.00     0.009 A 
BRANCH  19  22
HETATM   22  C   UNL     1     -43.470  55.386 -58.365  1.00  0.00     0.034 C 
HETATM   23  C   UNL     1     -42.729  56.141 -59.459  1.00  0.00     0.010 C 
ENDBRANCH  19  22
ENDBRANCH   1  16
TORSDOF 2
ENDMDL
MODEL 8
REMARK VINA RESULT:      -6.1     16.875     18.912
REMARK  2 active torsions:
REMARK  status: ('A' for Active; 'I' for Inactive)
REMARK    1  A    between atoms: C_2  and  C_3 
REMARK    2  A    between atoms: C_6  and  C_7 
ROOT
HETATM    1  C   UNL     1     -33.502  40.924 -55.748  1.00  0.00     0.119 C 
HETATM    2  S   UNL     1     -34.950  41.939 -56.155  1.00  0.00    -0.141 SA
HETATM    3  C   UNL     1     -35.664  41.061 -57.574  1.00  0.00     0.136 C 
HETATM    4  C   UNL     1     -36.698  41.970 -58.236  1.00  0.00     0.031 C 
HETATM    5  C   UNL     1     -36.317  39.770 -57.112  1.00  0.00     0.236 C 
HETATM    6  O   UNL     1     -37.517  39.573 -57.006  1.00  0.00    -0.272 OA
HETATM    7  N   UNL     1     -35.505  38.621 -56.869  1.00  0.00    -0.311 N 
HETATM    8  C   UNL     1     -34.130  38.630 -56.874  1.00  0.00     0.134 C 
HETATM    9  C   UNL     1     -33.266  39.631 -56.471  1.00  0.00     0.032 C 
HETATM   10  N   UNL     1     -33.352  37.569 -57.247  1.00  0.00    -0.262 N 
HETATM   11  H   UNL     1     -33.644  36.647 -57.551  1.00  0.00     0.191 HD
HETATM   12  N   UNL     1     -32.050  37.858 -57.298  1.00  0.00    -0.178 NA
HETATM   13  C   UNL     1     -31.971  39.095 -56.799  1.00  0.00     0.062 C 
HETATM   14  C   UNL     1     -30.631  39.716 -56.610  1.00  0.00     0.073 C 
HETATM   15  H   UNL     1     -36.017  37.749 -56.794  1.00  0.00     0.170 HD
ENDROOT
BRANCH   1  16
HETATM   16  C   UNL     1     -33.460  40.550 -54.271  1.00  0.00    -0.040 A 
HETATM   17  C   UNL     1     -32.254  40.396 -53.563  1.00  0.00     0.009 A 
HETATM   18  C   UNL     1     -32.255  40.132 -52.190  1.00  0.00     0.007 A 
HETATM   19  C   UNL     1     -33.458  40.008 -51.490  1.00  0.00    -0.059 A 
HETATM   20  C   UNL     1     -34.663  40.129 -52.189  1.00  0.00     0.007 A 
HETATM   21  C   UNL     1     -34.664  40.390 -53.562  1.00  0.00     0.009 A 
BRANCH  19  22
HETATM   22  C   UNL     1     -33.456  39.794 -49.998  1.00  0.00     0.034 C 
HETATM   23  C   UNL     1     -32.049  39.891 -49.426  1.00  0.00     0.010 C 
ENDBRANCH  19  22
ENDBRANCH   1  16
TORSDOF 2
ENDMDL
MODEL 9
REMARK VINA RESULT:      -6.1      2.717      3.917
REMARK  2 active torsions:
REMARK  status: ('A' for Active; 'I' for Inactive)
REMARK    1  A    between atoms: C_2  and  C_3 
REMARK    2  A    between atoms: C_6  and  C_7 
ROOT
HETATM    1  C   UNL     1     -43.819  57.117 -53.574  1.00  0.00     0.119 C 
HETATM    2  S   UNL     1     -45.090  56.881 -54.846  1.00  0.00    -0.141 SA
HETATM    3  C   UNL     1     -44.861  58.333 -55.911  1.00  0.00     0.136 C 
HETATM    4  C   UNL     1     -46.069  58.449 -56.839  1.00  0.00     0.031 C 
HETATM    5  C   UNL     1     -43.587  58.187 -56.723  1.00  0.00     0.236 C 
HETATM    6  O   UNL     1     -43.522  57.911 -57.911  1.00  0.00    -0.272 OA
HETATM    7  N   UNL     1     -42.329  58.490 -56.118  1.00  0.00    -0.311 N 
HETATM    8  C   UNL     1     -42.161  58.767 -54.781  1.00  0.00     0.134 C 
HETATM    9  C   UNL     1     -42.839  58.247 -53.693  1.00  0.00     0.032 C 
HETATM   10  N   UNL     1     -41.205  59.607 -54.280  1.00  0.00    -0.262 N 
HETATM   11  H   UNL     1     -40.492  60.124 -54.782  1.00  0.00     0.191 HD
HETATM   12  N   UNL     1     -41.323  59.822 -52.968  1.00  0.00    -0.178 NA
HETATM   13  C   UNL     1     -42.288  58.980 -52.585  1.00  0.00     0.062 C 
HETATM   14  C   UNL     1     -42.624  58.875 -51.139  1.00  0.00     0.073 C 
HETATM   15  H   UNL     1     -41.559  58.597 -56.769  1.00  0.00     0.170 HD
ENDROOT
BRANCH   1  16
HETATM   16  C   UNL     1     -42.951  55.876 -53.391  1.00  0.00    -0.040 A 
HETATM   17  C   UNL     1     -42.211  55.309 -54.444  1.00  0.00     0.009 A 
HETATM   18  C   UNL     1     -41.363  54.220 -54.221  1.00  0.00     0.007 A 
HETATM   19  C   UNL     1     -41.237  53.665 -52.945  1.00  0.00    -0.059 A 
HETATM   20  C   UNL     1     -41.991  54.202 -51.897  1.00  0.00     0.007 A 
HETATM   21  C   UNL     1     -42.842  55.289 -52.118  1.00  0.00     0.009 A 
BRANCH  19  22
HETATM   22  C   UNL     1     -40.269  52.538 -52.693  1.00  0.00     0.034 C 
HETATM   23  C   UNL     1     -39.901  51.825 -53.986  1.00  0.00     0.010 C 
ENDBRANCH  19  22
ENDBRANCH   1  16
TORSDOF 2
ENDMDL
MODEL 10
REMARK VINA RESULT:      -6.1      2.651      6.308
REMARK  2 active torsions:
REMARK  status: ('A' for Active; 'I' for Inactive)
REMARK    1  A    between atoms: C_2  and  C_3 
REMARK    2  A    between atoms: C_6  and  C_7 
ROOT
HETATM    1  C   UNL     1     -41.140  56.474 -51.982  1.00  0.00     0.119 C 
HETATM    2  S   UNL     1     -40.659  56.333 -53.725  1.00  0.00    -0.141 SA
HETATM    3  C   UNL     1     -41.600  54.886 -54.282  1.00  0.00     0.136 C 
HETATM    4  C   UNL     1     -41.051  54.442 -55.637  1.00  0.00     0.031 C 
HETATM    5  C   UNL     1     -43.072  55.237 -54.401  1.00  0.00     0.236 C 
HETATM    6  O   UNL     1     -43.682  55.427 -55.442  1.00  0.00    -0.272 OA
HETATM    7  N   UNL     1     -43.887  55.257 -53.228  1.00  0.00    -0.311 N 
HETATM    8  C   UNL     1     -43.401  55.127 -51.947  1.00  0.00     0.134 C 
HETATM    9  C   UNL     1     -42.202  55.573 -51.423  1.00  0.00     0.032 C 
HETATM   10  N   UNL     1     -44.090  54.552 -50.915  1.00  0.00    -0.262 N 
HETATM   11  H   UNL     1     -45.026  54.162 -50.919  1.00  0.00     0.191 HD
HETATM   12  N   UNL     1     -43.365  54.420 -49.802  1.00  0.00    -0.178 NA
HETATM   13  C   UNL     1     -42.226  55.063 -50.077  1.00  0.00     0.062 C 
HETATM   14  C   UNL     1     -41.199  55.206 -49.009  1.00  0.00     0.073 C 
HETATM   15  H   UNL     1     -44.885  55.267 -53.405  1.00  0.00     0.170 HD
ENDROOT
BRANCH   1  16
HETATM   16  C   UNL     1     -41.606  57.881 -51.626  1.00  0.00    -0.040 A 
HETATM   17  C   UNL     1     -42.661  58.523 -52.301  1.00  0.00     0.009 A 
HETATM   18  C   UNL     1     -43.115  59.781 -51.895  1.00  0.00     0.007 A 
HETATM   19  C   UNL     1     -42.525  60.434 -50.810  1.00  0.00    -0.059 A 
HETATM   20  C   UNL     1     -41.456  59.820 -50.150  1.00  0.00     0.007 A 
HETATM   21  C   UNL     1     -40.998  58.563 -50.557  1.00  0.00     0.009 A 
BRANCH  19  22
HETATM   22  C   UNL     1     -43.062  61.758 -50.330  1.00  0.00     0.034 C 
HETATM   23  C   UNL     1     -44.150  61.567 -49.283  1.00  0.00     0.010 C 
ENDBRANCH  19  22
ENDBRANCH   1  16
TORSDOF 2
ENDMDL
