MODEL 1
REMARK VINA RESULT:      -7.9      0.000      0.000
REMARK  3 active torsions:
REMARK  status: ('A' for Active; 'I' for Inactive)
REMARK    1  A    between atoms: C_2  and  C_3 
REMARK    2  A    between atoms: C_7  and  N_8 
REMARK       I    between atoms: N_8  and  C_9 
REMARK    3  A    between atoms: C_9  and  C_10 
ROOT
HETATM    1  N   UNL     1     -42.105  56.089 -57.045  1.00  0.00    -0.311 N 
HETATM    2  C   UNL     1     -42.162  55.435 -55.826  1.00  0.00     0.234 C 
HETATM    3  O   UNL     1     -43.163  54.845 -55.410  1.00  0.00    -0.272 OA
HETATM    4  H   UNL     1     -41.251  56.555 -57.336  1.00  0.00     0.170 HD
ENDROOT
BRANCH   2   5
HETATM    5  C   UNL     1     -40.875  55.432 -55.018  1.00  0.00     0.138 C 
HETATM    6  C   UNL     1     -40.624  54.190 -54.240  1.00  0.00    -0.008 A 
HETATM    7  C   UNL     1     -40.835  54.443 -52.893  1.00  0.00     0.076 A 
HETATM    8  C   UNL     1     -40.287  52.920 -54.680  1.00  0.00     0.030 A 
HETATM    9  C   UNL     1     -40.728  53.455 -51.936  1.00  0.00     0.039 A 
HETATM   10  O   UNL     1     -41.204  55.734 -52.628  1.00  0.00    -0.349 OA
HETATM   11  C   UNL     1     -40.382  52.170 -52.360  1.00  0.00     0.022 A 
HETATM   12  C   UNL     1     -40.164  51.909 -53.723  1.00  0.00     0.011 A 
HETATM   13 BR   UNL     1     -39.712  50.158 -54.273  1.00  0.00    -0.051 Br
HETATM   14  C   UNL     1     -40.942  56.441 -53.867  1.00  0.00     0.194 C 
ENDBRANCH   2   5
BRANCH   1  15
HETATM   15  C   UNL     1     -43.202  56.182 -57.878  1.00  0.00     0.126 A 
HETATM   16  N   UNL     1     -44.267  57.021 -57.674  1.00  0.00    -0.262 N 
HETATM   17  N   UNL     1     -45.211  56.934 -58.628  1.00  0.00    -0.178 NA
HETATM   18  H   UNL     1     -44.389  57.669 -56.900  1.00  0.00     0.191 HD
HETATM   19  C   UNL     1     -44.728  56.015 -59.474  1.00  0.00     0.058 A 
HETATM   20  C   UNL     1     -43.478  55.508 -59.042  1.00  0.00     0.079 A 
BRANCH  19  21
HETATM   21  C   UNL     1     -45.493  55.643 -60.699  1.00  0.00     0.056 C 
HETATM   22  C   UNL     1     -46.907  56.206 -60.689  1.00  0.00     0.011 C 
ENDBRANCH  19  21
ENDBRANCH   1  15
TORSDOF 3
ENDMDL
MODEL 2
REMARK VINA RESULT:      -6.9     14.533     15.864
REMARK  3 active torsions:
REMARK  status: ('A' for Active; 'I' for Inactive)
REMARK    1  A    between atoms: C_2  and  C_3 
REMARK    2  A    between atoms: C_7  and  N_8 
REMARK       I    between atoms: N_8  and  C_9 
REMARK    3  A    between atoms: C_9  and  C_10 
ROOT
HETATM    1  N   UNL     1     -37.075  41.089 -54.314  1.00  0.00    -0.311 N 
HETATM    2  C   UNL     1     -36.517  41.729 -53.219  1.00  0.00     0.234 C 
HETATM    3  O   UNL     1     -35.770  42.707 -53.304  1.00  0.00    -0.272 OA
HETATM    4  H   UNL     1     -37.686  40.290 -54.182  1.00  0.00     0.170 HD
ENDROOT
BRANCH   2   5
HETATM    5  C   UNL     1     -36.923  41.185 -51.859  1.00  0.00     0.138 C 
HETATM    6  C   UNL     1     -35.923  40.293 -51.215  1.00  0.00    -0.008 A 
HETATM    7  C   UNL     1     -36.373  38.983 -51.274  1.00  0.00     0.076 A 
HETATM    8  C   UNL     1     -34.689  40.597 -50.663  1.00  0.00     0.030 A 
HETATM    9  C   UNL     1     -35.622  37.928 -50.800  1.00  0.00     0.039 A 
HETATM   10  O   UNL     1     -37.589  38.846 -51.888  1.00  0.00    -0.349 OA
HETATM   11  C   UNL     1     -34.377  38.215 -50.234  1.00  0.00     0.022 A 
HETATM   12  C   UNL     1     -33.919  39.541 -50.169  1.00  0.00     0.011 A 
HETATM   13 BR   UNL     1     -32.224  39.902 -49.411  1.00  0.00    -0.051 Br
HETATM   14  C   UNL     1     -38.093  40.203 -51.985  1.00  0.00     0.194 C 
ENDBRANCH   2   5
BRANCH   1  15
HETATM   15  C   UNL     1     -36.786  41.469 -55.609  1.00  0.00     0.126 A 
HETATM   16  N   UNL     1     -35.539  41.818 -56.059  1.00  0.00    -0.262 N 
HETATM   17  N   UNL     1     -35.509  42.144 -57.364  1.00  0.00    -0.178 NA
HETATM   18  H   UNL     1     -34.682  41.844 -55.512  1.00  0.00     0.191 HD
HETATM   19  C   UNL     1     -36.778  41.991 -57.761  1.00  0.00     0.058 A 
HETATM   20  C   UNL     1     -37.617  41.578 -56.696  1.00  0.00     0.079 A 
BRANCH  19  21
HETATM   21  C   UNL     1     -37.159  42.245 -59.181  1.00  0.00     0.056 C 
HETATM   22  C   UNL     1     -37.264  40.960 -59.989  1.00  0.00     0.011 C 
ENDBRANCH  19  21
ENDBRANCH   1  15
TORSDOF 3
ENDMDL
MODEL 3
REMARK VINA RESULT:      -6.9      3.421      4.363
REMARK  3 active torsions:
REMARK  status: ('A' for Active; 'I' for Inactive)
REMARK    1  A    between atoms: C_2  and  C_3 
REMARK    2  A    between atoms: C_7  and  N_8 
REMARK       I    between atoms: N_8  and  C_9 
REMARK    3  A    between atoms: C_9  and  C_10 
ROOT
HETATM    1  N   UNL     1     -41.537  55.486 -52.730  1.00  0.00    -0.311 N 
HETATM    2  C   UNL     1     -41.603  54.704 -51.588  1.00  0.00     0.234 C 
HETATM    3  O   UNL     1     -42.652  54.452 -50.990  1.00  0.00    -0.272 OA
HETATM    4  H   UNL     1     -40.644  55.656 -53.181  1.00  0.00     0.170 HD
ENDROOT
BRANCH   2   5
HETATM    5  C   UNL     1     -40.286  54.107 -51.120  1.00  0.00     0.138 C 
HETATM    6  C   UNL     1     -40.086  52.676 -51.467  1.00  0.00    -0.008 A 
HETATM    7  C   UNL     1     -40.223  51.904 -50.323  1.00  0.00     0.076 A 
HETATM    8  C   UNL     1     -39.853  52.086 -52.699  1.00  0.00     0.030 A 
HETATM    9  C   UNL     1     -40.143  50.527 -50.354  1.00  0.00     0.039 A 
HETATM   10  O   UNL     1     -40.494  52.633 -49.197  1.00  0.00    -0.349 OA
HETATM   11  C   UNL     1     -39.901  49.915 -51.586  1.00  0.00     0.022 A 
HETATM   12  C   UNL     1     -39.758  50.692 -52.747  1.00  0.00     0.011 A 
HETATM   13 BR   UNL     1     -39.447  49.838 -54.405  1.00  0.00    -0.051 Br
HETATM   14  C   UNL     1     -40.238  54.006 -49.592  1.00  0.00     0.194 C 
ENDBRANCH   2   5
BRANCH   1  15
HETATM   15  C   UNL     1     -42.652  56.101 -53.262  1.00  0.00     0.126 A 
HETATM   16  N   UNL     1     -43.743  55.438 -53.763  1.00  0.00    -0.262 N 
HETATM   17  N   UNL     1     -44.707  56.257 -54.220  1.00  0.00    -0.178 NA
HETATM   18  H   UNL     1     -43.871  54.431 -53.811  1.00  0.00     0.191 HD
HETATM   19  C   UNL     1     -44.219  57.483 -53.995  1.00  0.00     0.058 A 
HETATM   20  C   UNL     1     -42.932  57.438 -53.405  1.00  0.00     0.079 A 
BRANCH  19  21
HETATM   21  C   UNL     1     -45.018  58.690 -54.356  1.00  0.00     0.056 C 
HETATM   22  C   UNL     1     -45.369  58.729 -55.836  1.00  0.00     0.011 C 
ENDBRANCH  19  21
ENDBRANCH   1  15
TORSDOF 3
ENDMDL
MODEL 4
REMARK VINA RESULT:      -6.8      4.840      7.140
REMARK  3 active torsions:
REMARK  status: ('A' for Active; 'I' for Inactive)
REMARK    1  A    between atoms: C_2  and  C_3 
REMARK    2  A    between atoms: C_7  and  N_8 
REMARK       I    between atoms: N_8  and  C_9 
REMARK    3  A    between atoms: C_9  and  C_10 
ROOT
HETATM    1  N   UNL     1     -40.764  54.936 -53.262  1.00  0.00    -0.311 N 
HETATM    2  C   UNL     1     -41.975  55.500 -52.897  1.00  0.00     0.234 C 
HETATM    3  O   UNL     1     -42.823  54.921 -52.214  1.00  0.00    -0.272 OA
HETATM    4  H   UNL     1     -40.103  55.463 -53.824  1.00  0.00     0.170 HD
ENDROOT
BRANCH   2   5
HETATM    5  C   UNL     1     -42.197  56.934 -53.350  1.00  0.00     0.138 C 
HETATM    6  C   UNL     1     -41.821  57.973 -52.354  1.00  0.00    -0.008 A 
HETATM    7  C   UNL     1     -42.971  58.532 -51.819  1.00  0.00     0.076 A 
HETATM    8  C   UNL     1     -40.568  58.364 -51.912  1.00  0.00     0.030 A 
HETATM    9  C   UNL     1     -42.928  59.489 -50.826  1.00  0.00     0.039 A 
HETATM   10  O   UNL     1     -44.127  58.007 -52.330  1.00  0.00    -0.349 OA
HETATM   11  C   UNL     1     -41.672  59.901 -50.372  1.00  0.00     0.022 A 
HETATM   12  C   UNL     1     -40.505  59.340 -50.913  1.00  0.00     0.011 A 
HETATM   13 BR   UNL     1     -38.818  59.905 -50.270  1.00  0.00    -0.051 Br
HETATM   14  C   UNL     1     -43.691  57.245 -53.486  1.00  0.00     0.194 C 
ENDBRANCH   2   5
BRANCH   1  15
HETATM   15  C   UNL     1     -40.432  53.638 -52.930  1.00  0.00     0.126 A 
HETATM   16  N   UNL     1     -40.227  53.189 -51.650  1.00  0.00    -0.262 N 
HETATM   17  N   UNL     1     -39.919  51.881 -51.582  1.00  0.00    -0.178 NA
HETATM   18  H   UNL     1     -40.288  53.738 -50.797  1.00  0.00     0.191 HD
HETATM   19  C   UNL     1     -39.937  51.481 -52.859  1.00  0.00     0.058 A 
HETATM   20  C   UNL     1     -40.243  52.546 -53.741  1.00  0.00     0.079 A 
BRANCH  19  21
HETATM   21  C   UNL     1     -39.657  50.057 -53.207  1.00  0.00     0.056 C 
HETATM   22  C   UNL     1     -39.845  49.778 -54.691  1.00  0.00     0.011 C 
ENDBRANCH  19  21
ENDBRANCH   1  15
TORSDOF 3
ENDMDL
MODEL 5
REMARK VINA RESULT:      -6.7      5.426      7.142
REMARK  3 active torsions:
REMARK  status: ('A' for Active; 'I' for Inactive)
REMARK    1  A    between atoms: C_2  and  C_3 
REMARK    2  A    between atoms: C_7  and  N_8 
REMARK       I    between atoms: N_8  and  C_9 
REMARK    3  A    between atoms: C_9  and  C_10 
ROOT
HETATM    1  N   UNL     1     -41.015  54.599 -51.955  1.00  0.00    -0.311 N 
HETATM    2  C   UNL     1     -42.334  54.973 -51.755  1.00  0.00     0.234 C 
HETATM    3  O   UNL     1     -43.295  54.400 -52.273  1.00  0.00    -0.272 OA
HETATM    4  H   UNL     1     -40.265  55.107 -51.498  1.00  0.00     0.170 HD
ENDROOT
BRANCH   2   5
HETATM    5  C   UNL     1     -42.553  56.129 -50.793  1.00  0.00     0.138 C 
HETATM    6  C   UNL     1     -42.751  57.454 -51.437  1.00  0.00    -0.008 A 
HETATM    7  C   UNL     1     -41.613  58.225 -51.258  1.00  0.00     0.076 A 
HETATM    8  C   UNL     1     -43.826  57.932 -52.169  1.00  0.00     0.030 A 
HETATM    9  C   UNL     1     -41.491  59.489 -51.800  1.00  0.00     0.039 A 
HETATM   10  O   UNL     1     -40.626  57.594 -50.551  1.00  0.00    -0.349 OA
HETATM   11  C   UNL     1     -42.568  59.990 -52.535  1.00  0.00     0.022 A 
HETATM   12  C   UNL     1     -43.724  59.214 -52.716  1.00  0.00     0.011 A 
HETATM   13 BR   UNL     1     -45.161  59.910 -53.729  1.00  0.00    -0.051 Br
HETATM   14  C   UNL     1     -41.282  56.427 -49.990  1.00  0.00     0.194 C 
ENDBRANCH   2   5
BRANCH   1  15
HETATM   15  C   UNL     1     -40.668  53.573 -52.810  1.00  0.00     0.126 A 
HETATM   16  N   UNL     1     -40.688  53.658 -54.179  1.00  0.00    -0.262 N 
HETATM   17  N   UNL     1     -40.300  52.527 -54.794  1.00  0.00    -0.178 NA
HETATM   18  H   UNL     1     -40.958  54.467 -54.732  1.00  0.00     0.191 HD
HETATM   19  C   UNL     1     -40.014  51.695 -53.785  1.00  0.00     0.058 A 
HETATM   20  C   UNL     1     -40.237  52.300 -52.524  1.00  0.00     0.079 A 
BRANCH  19  21
HETATM   21  C   UNL     1     -39.521  50.315 -54.063  1.00  0.00     0.056 C 
HETATM   22  C   UNL     1     -39.559  49.428 -52.827  1.00  0.00     0.011 C 
ENDBRANCH  19  21
ENDBRANCH   1  15
TORSDOF 3
ENDMDL
MODEL 6
REMARK VINA RESULT:      -6.6      4.958      7.215
REMARK  3 active torsions:
REMARK  status: ('A' for Active; 'I' for Inactive)
REMARK    1  A    between atoms: C_2  and  C_3 
REMARK    2  A    between atoms: C_7  and  N_8 
REMARK       I    between atoms: N_8  and  C_9 
REMARK    3  A    between atoms: C_9  and  C_10 
ROOT
HETATM    1  N   UNL     1     -40.835  54.700 -51.539  1.00  0.00    -0.311 N 
HETATM    2  C   UNL     1     -42.126  55.028 -51.158  1.00  0.00     0.234 C 
HETATM    3  O   UNL     1     -42.991  54.194 -50.880  1.00  0.00    -0.272 OA
HETATM    4  H   UNL     1     -40.164  55.431 -51.753  1.00  0.00     0.170 HD
ENDROOT
BRANCH   2   5
HETATM    5  C   UNL     1     -42.423  56.514 -51.046  1.00  0.00     0.138 C 
HETATM    6  C   UNL     1     -42.420  57.255 -52.335  1.00  0.00    -0.008 A 
HETATM    7  C   UNL     1     -41.277  58.037 -52.410  1.00  0.00     0.076 A 
HETATM    8  C   UNL     1     -43.321  57.211 -53.386  1.00  0.00     0.030 A 
HETATM    9  C   UNL     1     -40.980  58.796 -53.523  1.00  0.00     0.039 A 
HETATM   10  O   UNL     1     -40.469  57.937 -51.310  1.00  0.00    -0.349 OA
HETATM   11  C   UNL     1     -41.881  58.769 -54.591  1.00  0.00     0.022 A 
HETATM   12  C   UNL     1     -43.041  57.981 -54.518  1.00  0.00     0.011 A 
HETATM   13 BR   UNL     1     -44.237  57.950 -55.982  1.00  0.00    -0.051 Br
HETATM   14  C   UNL     1     -41.288  57.251 -50.328  1.00  0.00     0.194 C 
ENDBRANCH   2   5
BRANCH   1  15
HETATM   15  C   UNL     1     -40.428  53.390 -51.693  1.00  0.00     0.126 A 
HETATM   16  N   UNL     1     -40.246  52.504 -50.662  1.00  0.00    -0.262 N 
HETATM   17  N   UNL     1     -39.851  51.283 -51.066  1.00  0.00    -0.178 NA
HETATM   18  H   UNL     1     -40.381  52.690 -49.672  1.00  0.00     0.191 HD
HETATM   19  C   UNL     1     -39.788  51.391 -52.399  1.00  0.00     0.058 A 
HETATM   20  C   UNL     1     -40.131  52.694 -52.838  1.00  0.00     0.079 A 
BRANCH  19  21
HETATM   21  C   UNL     1     -39.396  50.217 -53.232  1.00  0.00     0.056 C 
HETATM   22  C   UNL     1     -40.318  50.024 -54.426  1.00  0.00     0.011 C 
ENDBRANCH  19  21
ENDBRANCH   1  15
TORSDOF 3
ENDMDL
MODEL 7
REMARK VINA RESULT:      -6.6     14.786     16.146
REMARK  3 active torsions:
REMARK  status: ('A' for Active; 'I' for Inactive)
REMARK    1  A    between atoms: C_2  and  C_3 
REMARK    2  A    between atoms: C_7  and  N_8 
REMARK       I    between atoms: N_8  and  C_9 
REMARK    3  A    between atoms: C_9  and  C_10 
ROOT
HETATM    1  N   UNL     1     -38.849  41.087 -52.201  1.00  0.00    -0.311 N 
HETATM    2  C   UNL     1     -37.648  40.728 -52.790  1.00  0.00     0.234 C 
HETATM    3  O   UNL     1     -37.319  39.562 -53.021  1.00  0.00    -0.272 OA
HETATM    4  H   UNL     1     -39.066  42.065 -52.038  1.00  0.00     0.170 HD
ENDROOT
BRANCH   2   5
HETATM    5  C   UNL     1     -36.745  41.880 -53.201  1.00  0.00     0.138 C 
HETATM    6  C   UNL     1     -36.237  41.812 -54.597  1.00  0.00    -0.008 A 
HETATM    7  C   UNL     1     -34.892  41.473 -54.578  1.00  0.00     0.076 A 
HETATM    8  C   UNL     1     -36.910  41.984 -55.795  1.00  0.00     0.030 A 
HETATM    9  C   UNL     1     -34.168  41.285 -55.738  1.00  0.00     0.039 A 
HETATM   10  O   UNL     1     -34.387  41.296 -53.319  1.00  0.00    -0.349 OA
HETATM   11  C   UNL     1     -34.829  41.461 -56.956  1.00  0.00     0.022 A 
HETATM   12  C   UNL     1     -36.189  41.807 -56.980  1.00  0.00     0.011 A 
HETATM   13 BR   UNL     1     -37.064  42.024 -58.642  1.00  0.00    -0.051 Br
HETATM   14  C   UNL     1     -35.413  41.835 -52.445  1.00  0.00     0.194 C 
ENDBRANCH   2   5
BRANCH   1  15
HETATM   15  C   UNL     1     -39.761  40.147 -51.767  1.00  0.00     0.126 A 
HETATM   16  N   UNL     1     -39.457  39.081 -50.959  1.00  0.00    -0.262 N 
HETATM   17  N   UNL     1     -40.518  38.307 -50.668  1.00  0.00    -0.178 NA
HETATM   18  H   UNL     1     -38.542  38.846 -50.584  1.00  0.00     0.191 HD
HETATM   19  C   UNL     1     -41.534  38.904 -51.303  1.00  0.00     0.058 A 
HETATM   20  C   UNL     1     -41.109  40.054 -52.013  1.00  0.00     0.079 A 
BRANCH  19  21
HETATM   21  C   UNL     1     -42.914  38.346 -51.208  1.00  0.00     0.056 C 
HETATM   22  C   UNL     1     -43.223  37.374 -52.338  1.00  0.00     0.011 C 
ENDBRANCH  19  21
ENDBRANCH   1  15
TORSDOF 3
ENDMDL
MODEL 8
REMARK VINA RESULT:      -6.5      3.175      6.765
REMARK  3 active torsions:
REMARK  status: ('A' for Active; 'I' for Inactive)
REMARK    1  A    between atoms: C_2  and  C_3 
REMARK    2  A    between atoms: C_7  and  N_8 
REMARK       I    between atoms: N_8  and  C_9 
REMARK    3  A    between atoms: C_9  and  C_10 
ROOT
HETATM    1  N   UNL     1     -41.786  56.007 -55.097  1.00  0.00    -0.311 N 
HETATM    2  C   UNL     1     -43.142  56.287 -55.087  1.00  0.00     0.234 C 
HETATM    3  O   UNL     1     -43.957  55.707 -54.365  1.00  0.00    -0.272 OA
HETATM    4  H   UNL     1     -41.162  56.521 -55.712  1.00  0.00     0.170 HD
ENDROOT
BRANCH   2   5
HETATM    5  C   UNL     1     -43.589  57.416 -56.001  1.00  0.00     0.138 C 
HETATM    6  C   UNL     1     -43.447  57.141 -57.456  1.00  0.00    -0.008 A 
HETATM    7  C   UNL     1     -42.384  57.877 -57.958  1.00  0.00     0.076 A 
HETATM    8  C   UNL     1     -44.159  56.274 -58.269  1.00  0.00     0.030 A 
HETATM    9  C   UNL     1     -41.983  57.779 -59.274  1.00  0.00     0.039 A 
HETATM   10  O   UNL     1     -41.758  58.650 -57.019  1.00  0.00    -0.349 OA
HETATM   11  C   UNL     1     -42.694  56.915 -60.111  1.00  0.00     0.022 A 
HETATM   12  C   UNL     1     -43.772  56.171 -59.608  1.00  0.00     0.011 A 
HETATM   13 BR   UNL     1     -44.709  54.997 -60.757  1.00  0.00    -0.051 Br
HETATM   14  C   UNL     1     -42.658  58.626 -55.881  1.00  0.00     0.194 C 
ENDBRANCH   2   5
BRANCH   1  15
HETATM   15  C   UNL     1     -41.240  55.000 -54.326  1.00  0.00     0.126 A 
HETATM   16  N   UNL     1     -41.013  55.088 -52.977  1.00  0.00    -0.262 N 
HETATM   17  N   UNL     1     -40.479  53.973 -52.447  1.00  0.00    -0.178 NA
HETATM   18  H   UNL     1     -41.209  55.887 -52.379  1.00  0.00     0.191 HD
HETATM   19  C   UNL     1     -40.370  53.143 -53.492  1.00  0.00     0.058 A 
HETATM   20  C   UNL     1     -40.824  53.744 -54.692  1.00  0.00     0.079 A 
BRANCH  19  21
HETATM   21  C   UNL     1     -39.824  51.767 -53.307  1.00  0.00     0.056 C 
HETATM   22  C   UNL     1     -40.210  50.835 -54.447  1.00  0.00     0.011 C 
ENDBRANCH  19  21
ENDBRANCH   1  15
TORSDOF 3
ENDMDL
MODEL 9
REMARK VINA RESULT:      -6.5     14.679     16.116
REMARK  3 active torsions:
REMARK  status: ('A' for Active; 'I' for Inactive)
REMARK    1  A    between atoms: C_2  and  C_3 
REMARK    2  A    between atoms: C_7  and  N_8 
REMARK       I    between atoms: N_8  and  C_9 
REMARK    3  A    between atoms: C_9  and  C_10 
ROOT
HETATM    1  N   UNL     1     -37.145  40.321 -58.565  1.00  0.00    -0.311 N 
HETATM    2  C   UNL     1     -36.881  41.680 -58.510  1.00  0.00     0.234 C 
HETATM    3  O   UNL     1     -37.059  42.451 -59.456  1.00  0.00    -0.272 OA
HETATM    4  H   UNL     1     -36.981  39.736 -57.752  1.00  0.00     0.170 HD
ENDROOT
BRANCH   2   5
HETATM    5  C   UNL     1     -36.393  42.204 -57.169  1.00  0.00     0.138 C 
HETATM    6  C   UNL     1     -35.373  41.357 -56.497  1.00  0.00    -0.008 A 
HETATM    7  C   UNL     1     -35.956  40.704 -55.422  1.00  0.00     0.076 A 
HETATM    8  C   UNL     1     -34.046  41.133 -56.830  1.00  0.00     0.030 A 
HETATM    9  C   UNL     1     -35.257  39.804 -54.644  1.00  0.00     0.039 A 
HETATM   10  O   UNL     1     -37.282  40.998 -55.253  1.00  0.00    -0.349 OA
HETATM   11  C   UNL     1     -33.916  39.571 -54.960  1.00  0.00     0.022 A 
HETATM   12  C   UNL     1     -33.320  40.233 -56.046  1.00  0.00     0.011 A 
HETATM   13 BR   UNL     1     -31.508  39.888 -56.463  1.00  0.00    -0.051 Br
HETATM   14  C   UNL     1     -37.504  42.144 -56.116  1.00  0.00     0.194 C 
ENDBRANCH   2   5
BRANCH   1  15
HETATM   15  C   UNL     1     -37.583  39.707 -59.721  1.00  0.00     0.126 A 
HETATM   16  N   UNL     1     -37.050  39.919 -60.966  1.00  0.00    -0.262 N 
HETATM   17  N   UNL     1     -37.643  39.199 -61.935  1.00  0.00    -0.178 NA
HETATM   18  H   UNL     1     -36.282  40.544 -61.199  1.00  0.00     0.191 HD
HETATM   19  C   UNL     1     -38.579  38.496 -61.285  1.00  0.00     0.058 A 
HETATM   20  C   UNL     1     -38.587  38.787 -59.898  1.00  0.00     0.079 A 
BRANCH  19  21
HETATM   21  C   UNL     1     -39.456  37.544 -62.025  1.00  0.00     0.056 C 
HETATM   22  C   UNL     1     -40.900  38.019 -62.089  1.00  0.00     0.011 C 
ENDBRANCH  19  21
ENDBRANCH   1  15
TORSDOF 3
ENDMDL
MODEL 10
REMARK VINA RESULT:      -6.5      3.658      7.699
REMARK  3 active torsions:
REMARK  status: ('A' for Active; 'I' for Inactive)
REMARK    1  A    between atoms: C_2  and  C_3 
REMARK    2  A    between atoms: C_7  and  N_8 
REMARK       I    between atoms: N_8  and  C_9 
REMARK    3  A    between atoms: C_9  and  C_10 
ROOT
HETATM    1  N   UNL     1     -42.469  55.716 -57.220  1.00  0.00    -0.311 N 
HETATM    2  C   UNL     1     -42.528  57.044 -57.611  1.00  0.00     0.234 C 
HETATM    3  O   UNL     1     -42.294  57.991 -56.858  1.00  0.00    -0.272 OA
HETATM    4  H   UNL     1     -42.668  54.977 -57.886  1.00  0.00     0.170 HD
ENDROOT
BRANCH   2   5
HETATM    5  C   UNL     1     -42.853  57.285 -59.076  1.00  0.00     0.138 C 
HETATM    6  C   UNL     1     -44.302  57.411 -59.386  1.00  0.00    -0.008 A 
HETATM    7  C   UNL     1     -44.732  56.265 -60.036  1.00  0.00     0.076 A 
HETATM    8  C   UNL     1     -45.189  58.430 -59.077  1.00  0.00     0.030 A 
HETATM    9  C   UNL     1     -46.050  56.079 -60.397  1.00  0.00     0.039 A 
HETATM   10  O   UNL     1     -43.744  55.337 -60.227  1.00  0.00    -0.349 OA
HETATM   11  C   UNL     1     -46.959  57.098 -60.101  1.00  0.00     0.022 A 
HETATM   12  C   UNL     1     -46.527  58.262 -59.446  1.00  0.00     0.011 A 
HETATM   13 BR   UNL     1     -47.779  59.621 -59.042  1.00  0.00    -0.051 Br
HETATM   14  C   UNL     1     -42.520  56.055 -59.926  1.00  0.00     0.194 C 
ENDBRANCH   2   5
BRANCH   1  15
HETATM   15  C   UNL     1     -42.195  55.349 -55.917  1.00  0.00     0.126 A 
HETATM   16  N   UNL     1     -41.016  55.603 -55.267  1.00  0.00    -0.262 N 
HETATM   17  N   UNL     1     -40.991  55.151 -54.000  1.00  0.00    -0.178 NA
HETATM   18  H   UNL     1     -40.204  56.083 -55.648  1.00  0.00     0.191 HD
HETATM   19  C   UNL     1     -42.199  54.598 -53.834  1.00  0.00     0.058 A 
HETATM   20  C   UNL     1     -42.985  54.688 -55.009  1.00  0.00     0.079 A 
BRANCH  19  21
HETATM   21  C   UNL     1     -42.574  53.988 -52.525  1.00  0.00     0.056 C 
HETATM   22  C   UNL     1     -41.358  53.545 -51.725  1.00  0.00     0.011 C 
ENDBRANCH  19  21
ENDBRANCH   1  15
TORSDOF 3
ENDMDL
