MODEL 1
REMARK VINA RESULT:      -7.7      0.000      0.000
REMARK  9 active torsions:
REMARK  status: ('A' for Active; 'I' for Inactive)
REMARK    1  A    between atoms: C_2  and  O_3 
REMARK    2  A    between atoms: O_3  and  C_4 
REMARK    3  A    between atoms: C_4  and  C_5 
REMARK    4  A    between atoms: C_10  and  N_11 
REMARK       I    between atoms: N_11  and  C_12 
REMARK    5  A    between atoms: C_12  and  C_13 
REMARK    6  A    between atoms: C_13  and  N_14 
REMARK    7  A    between atoms: C_16  and  C_17 
REMARK    8  A    between atoms: C_17  and  C_18 
REMARK    9  A    between atoms: C_18  and  O_19 
ROOT
HETATM    1  C   UNL     1     -41.335  55.485 -52.733  1.00  0.00     0.137 A 
HETATM    2  N   UNL     1     -40.865  54.711 -51.702  1.00  0.00    -0.349 N 
HETATM    3  H   UNL     1     -40.819  55.011 -50.737  1.00  0.00     0.166 HD
HETATM    4  C   UNL     1     -40.456  53.485 -52.164  1.00  0.00     0.045 A 
HETATM    5  C   UNL     1     -40.668  53.464 -53.547  1.00  0.00     0.021 A 
HETATM    6  C   UNL     1     -41.249  54.729 -53.896  1.00  0.00     0.080 A 
HETATM    7  C   UNL     1     -39.908  52.412 -51.448  1.00  0.00     0.032 A 
HETATM    8  C   UNL     1     -39.543  51.270 -52.163  1.00  0.00     0.026 A 
HETATM    9  C   UNL     1     -39.715  51.220 -53.540  1.00  0.00     0.035 A 
HETATM   10 CL   UNL     1     -39.238  49.809 -54.404  1.00  0.00    -0.084 Cl
HETATM   11  C   UNL     1     -40.265  52.300 -54.241  1.00  0.00     0.040 A 
ENDROOT
BRANCH   6  12
HETATM   12  N   UNL     1     -41.680  55.274 -55.105  1.00  0.00    -0.323 N 
HETATM   13  C   UNL     1     -42.683  54.818 -55.920  1.00  0.00     0.248 C 
HETATM   14  O   UNL     1     -43.453  53.879 -55.727  1.00  0.00    -0.271 OA
HETATM   15  H   UNL     1     -41.258  56.183 -55.310  1.00  0.00     0.169 HD
BRANCH  13  16
HETATM   16  C   UNL     1     -42.874  55.646 -57.194  1.00  0.00     0.338 C 
BRANCH  16  17
HETATM   17  N   UNL     1     -42.938  57.145 -56.859  1.00  0.00    -0.059 N 
HETATM   18  H   UNL     1     -42.355  57.193 -56.004  1.00  0.00     0.280 HD
HETATM   19  C   UNL     1     -42.212  58.061 -57.854  1.00  0.00     0.190 C 
HETATM   20  C   UNL     1     -42.151  59.457 -57.217  1.00  0.00     0.033 C 
HETATM   21  C   UNL     1     -43.527  59.986 -56.821  1.00  0.00     0.004 C 
HETATM   22  C   UNL     1     -44.250  59.008 -55.900  1.00  0.00     0.028 C 
HETATM   23  C   UNL     1     -44.319  57.603 -56.480  1.00  0.00     0.236 C 
BRANCH  19  24
HETATM   24  C   UNL     1     -42.873  58.020 -59.238  1.00  0.00     0.059 C 
BRANCH  24  25
HETATM   25  C   UNL     1     -41.871  57.897 -60.382  1.00  0.00     0.166 C 
BRANCH  25  26
HETATM   26  O   UNL     1     -41.400  56.558 -60.389  1.00  0.00    -0.401 OA
HETATM   27  H   UNL     1     -40.661  56.495 -59.756  1.00  0.00     0.209 HD
ENDBRANCH  25  26
ENDBRANCH  24  25
ENDBRANCH  19  24
ENDBRANCH  16  17
ENDBRANCH  13  16
ENDBRANCH   6  12
BRANCH   1  28
HETATM   28  C   UNL     1     -41.841  56.829 -52.581  1.00  0.00     0.312 C 
HETATM   29  O   UNL     1     -42.563  57.179 -51.653  1.00  0.00    -0.258 OA
BRANCH  28  30
HETATM   30  O   UNL     1     -41.401  57.614 -53.598  1.00  0.00    -0.317 OA
BRANCH  30  31
HETATM   31  C   UNL     1     -40.792  58.855 -53.209  1.00  0.00     0.175 C 
HETATM   32  C   UNL     1     -41.743  60.012 -53.448  1.00  0.00     0.034 C 
ENDBRANCH  30  31
ENDBRANCH  28  30
ENDBRANCH   1  28
TORSDOF 9
ENDMDL
MODEL 2
REMARK VINA RESULT:      -7.6      1.709      2.379
REMARK  9 active torsions:
REMARK  status: ('A' for Active; 'I' for Inactive)
REMARK    1  A    between atoms: C_2  and  O_3 
REMARK    2  A    between atoms: O_3  and  C_4 
REMARK    3  A    between atoms: C_4  and  C_5 
REMARK    4  A    between atoms: C_10  and  N_11 
REMARK       I    between atoms: N_11  and  C_12 
REMARK    5  A    between atoms: C_12  and  C_13 
REMARK    6  A    between atoms: C_13  and  N_14 
REMARK    7  A    between atoms: C_16  and  C_17 
REMARK    8  A    between atoms: C_17  and  C_18 
REMARK    9  A    between atoms: C_18  and  O_19 
ROOT
HETATM    1  C   UNL     1     -41.870  55.072 -52.109  1.00  0.00     0.137 A 
HETATM    2  N   UNL     1     -41.100  54.317 -51.261  1.00  0.00    -0.349 N 
HETATM    3  H   UNL     1     -40.899  54.564 -50.300  1.00  0.00     0.166 HD
HETATM    4  C   UNL     1     -40.633  53.195 -51.897  1.00  0.00     0.045 A 
HETATM    5  C   UNL     1     -41.118  53.222 -53.209  1.00  0.00     0.021 A 
HETATM    6  C   UNL     1     -41.922  54.406 -53.329  1.00  0.00     0.080 A 
HETATM    7  C   UNL     1     -39.812  52.175 -51.397  1.00  0.00     0.032 A 
HETATM    8  C   UNL     1     -39.451  51.144 -52.265  1.00  0.00     0.026 A 
HETATM    9  C   UNL     1     -39.892  51.149 -53.581  1.00  0.00     0.035 A 
HETATM   10 CL   UNL     1     -39.417  49.877 -54.641  1.00  0.00    -0.084 Cl
HETATM   11  C   UNL     1     -40.713  52.174 -54.066  1.00  0.00     0.040 A 
ENDROOT
BRANCH   6  12
HETATM   12  N   UNL     1     -42.660  54.950 -54.380  1.00  0.00    -0.323 N 
HETATM   13  C   UNL     1     -42.246  55.876 -55.302  1.00  0.00     0.248 C 
HETATM   14  O   UNL     1     -41.129  56.368 -55.438  1.00  0.00    -0.271 OA
HETATM   15  H   UNL     1     -43.563  54.492 -54.517  1.00  0.00     0.169 HD
BRANCH  13  16
HETATM   16  C   UNL     1     -43.329  56.276 -56.308  1.00  0.00     0.338 C 
BRANCH  16  17
HETATM   17  N   UNL     1     -42.695  56.749 -57.626  1.00  0.00    -0.059 N 
HETATM   18  H   UNL     1     -41.685  56.646 -57.420  1.00  0.00     0.280 HD
HETATM   19  C   UNL     1     -42.926  55.820 -58.824  1.00  0.00     0.190 C 
HETATM   20  C   UNL     1     -42.006  56.306 -59.953  1.00  0.00     0.033 C 
HETATM   21  C   UNL     1     -42.219  57.778 -60.297  1.00  0.00     0.004 C 
HETATM   22  C   UNL     1     -42.064  58.660 -59.062  1.00  0.00     0.028 C 
HETATM   23  C   UNL     1     -42.943  58.206 -57.906  1.00  0.00     0.236 C 
BRANCH  19  24
HETATM   24  C   UNL     1     -44.412  55.748 -59.200  1.00  0.00     0.059 C 
BRANCH  24  25
HETATM   25  C   UNL     1     -44.748  54.572 -60.112  1.00  0.00     0.166 C 
BRANCH  25  26
HETATM   26  O   UNL     1     -45.057  53.465 -59.279  1.00  0.00    -0.401 OA
HETATM   27  H   UNL     1     -45.513  52.797 -59.823  1.00  0.00     0.209 HD
ENDBRANCH  25  26
ENDBRANCH  24  25
ENDBRANCH  19  24
ENDBRANCH  16  17
ENDBRANCH  13  16
ENDBRANCH   6  12
BRANCH   1  28
HETATM   28  C   UNL     1     -42.510  56.314 -51.747  1.00  0.00     0.312 C 
HETATM   29  O   UNL     1     -43.619  56.646 -52.151  1.00  0.00    -0.258 OA
BRANCH  28  30
HETATM   30  O   UNL     1     -41.711  57.028 -50.914  1.00  0.00    -0.317 OA
BRANCH  30  31
HETATM   31  C   UNL     1     -41.018  58.136 -51.512  1.00  0.00     0.175 C 
HETATM   32  C   UNL     1     -40.593  59.133 -50.451  1.00  0.00     0.034 C 
ENDBRANCH  30  31
ENDBRANCH  28  30
ENDBRANCH   1  28
TORSDOF 9
ENDMDL
MODEL 3
REMARK VINA RESULT:      -7.3      1.535      2.260
REMARK  9 active torsions:
REMARK  status: ('A' for Active; 'I' for Inactive)
REMARK    1  A    between atoms: C_2  and  O_3 
REMARK    2  A    between atoms: O_3  and  C_4 
REMARK    3  A    between atoms: C_4  and  C_5 
REMARK    4  A    between atoms: C_10  and  N_11 
REMARK       I    between atoms: N_11  and  C_12 
REMARK    5  A    between atoms: C_12  and  C_13 
REMARK    6  A    between atoms: C_13  and  N_14 
REMARK    7  A    between atoms: C_16  and  C_17 
REMARK    8  A    between atoms: C_17  and  C_18 
REMARK    9  A    between atoms: C_18  and  O_19 
ROOT
HETATM    1  C   UNL     1     -41.326  55.815 -52.634  1.00  0.00     0.137 A 
HETATM    2  N   UNL     1     -40.934  54.952 -51.643  1.00  0.00    -0.349 N 
HETATM    3  H   UNL     1     -40.917  55.182 -50.658  1.00  0.00     0.166 HD
HETATM    4  C   UNL     1     -40.557  53.743 -52.173  1.00  0.00     0.045 A 
HETATM    5  C   UNL     1     -40.710  53.826 -53.562  1.00  0.00     0.021 A 
HETATM    6  C   UNL     1     -41.222  55.137 -53.844  1.00  0.00     0.080 A 
HETATM    7  C   UNL     1     -40.085  52.600 -51.514  1.00  0.00     0.032 A 
HETATM    8  C   UNL     1     -39.739  51.495 -52.292  1.00  0.00     0.026 A 
HETATM    9  C   UNL     1     -39.853  51.547 -53.675  1.00  0.00     0.035 A 
HETATM   10 CL   UNL     1     -39.399  50.178 -54.617  1.00  0.00    -0.084 Cl
HETATM   11  C   UNL     1     -40.327  52.696 -54.319  1.00  0.00     0.040 A 
ENDROOT
BRANCH   6  12
HETATM   12  N   UNL     1     -41.577  55.783 -55.028  1.00  0.00    -0.323 N 
HETATM   13  C   UNL     1     -42.512  55.389 -55.949  1.00  0.00     0.248 C 
HETATM   14  O   UNL     1     -43.276  54.427 -55.895  1.00  0.00    -0.271 OA
HETATM   15  H   UNL     1     -41.159  56.711 -55.121  1.00  0.00     0.169 HD
BRANCH  13  16
HETATM   16  C   UNL     1     -42.629  56.326 -57.155  1.00  0.00     0.338 C 
BRANCH  16  17
HETATM   17  N   UNL     1     -44.028  56.960 -57.213  1.00  0.00    -0.059 N 
HETATM   18  H   UNL     1     -44.607  56.230 -56.762  1.00  0.00     0.280 HD
HETATM   19  C   UNL     1     -44.217  58.190 -56.316  1.00  0.00     0.190 C 
HETATM   20  C   UNL     1     -45.719  58.507 -56.299  1.00  0.00     0.033 C 
HETATM   21  C   UNL     1     -46.298  58.701 -57.698  1.00  0.00     0.004 C 
HETATM   22  C   UNL     1     -46.015  57.492 -58.584  1.00  0.00     0.028 C 
HETATM   23  C   UNL     1     -44.539  57.126 -58.617  1.00  0.00     0.236 C 
BRANCH  19  24
HETATM   24  C   UNL     1     -43.325  59.355 -56.765  1.00  0.00     0.059 C 
BRANCH  24  25
HETATM   25  C   UNL     1     -42.530  59.983 -55.624  1.00  0.00     0.166 C 
BRANCH  25  26
HETATM   26  O   UNL     1     -41.525  59.055 -55.248  1.00  0.00    -0.401 OA
HETATM   27  H   UNL     1     -40.756  59.559 -54.923  1.00  0.00     0.209 HD
ENDBRANCH  25  26
ENDBRANCH  24  25
ENDBRANCH  19  24
ENDBRANCH  16  17
ENDBRANCH  13  16
ENDBRANCH   6  12
BRANCH   1  28
HETATM   28  C   UNL     1     -41.781  57.166 -52.409  1.00  0.00     0.312 C 
HETATM   29  O   UNL     1     -42.708  57.680 -53.027  1.00  0.00    -0.258 OA
BRANCH  28  30
HETATM   30  O   UNL     1     -41.042  57.754 -51.433  1.00  0.00    -0.317 OA
BRANCH  30  31
HETATM   31  C   UNL     1     -40.249  58.879 -51.844  1.00  0.00     0.175 C 
HETATM   32  C   UNL     1     -39.535  59.490 -50.653  1.00  0.00     0.034 C 
ENDBRANCH  30  31
ENDBRANCH  28  30
ENDBRANCH   1  28
TORSDOF 9
ENDMDL
MODEL 4
REMARK VINA RESULT:      -7.3      1.937      2.650
REMARK  9 active torsions:
REMARK  status: ('A' for Active; 'I' for Inactive)
REMARK    1  A    between atoms: C_2  and  O_3 
REMARK    2  A    between atoms: O_3  and  C_4 
REMARK    3  A    between atoms: C_4  and  C_5 
REMARK    4  A    between atoms: C_10  and  N_11 
REMARK       I    between atoms: N_11  and  C_12 
REMARK    5  A    between atoms: C_12  and  C_13 
REMARK    6  A    between atoms: C_13  and  N_14 
REMARK    7  A    between atoms: C_16  and  C_17 
REMARK    8  A    between atoms: C_17  and  C_18 
REMARK    9  A    between atoms: C_18  and  O_19 
ROOT
HETATM    1  C   UNL     1     -42.613  56.535 -52.216  1.00  0.00     0.137 A 
HETATM    2  N   UNL     1     -42.042  56.384 -50.978  1.00  0.00    -0.349 N 
HETATM    3  H   UNL     1     -42.074  57.082 -50.245  1.00  0.00     0.166 HD
HETATM    4  C   UNL     1     -41.414  55.168 -50.878  1.00  0.00     0.045 A 
HETATM    5  C   UNL     1     -41.584  54.505 -52.098  1.00  0.00     0.021 A 
HETATM    6  C   UNL     1     -42.367  55.371 -52.934  1.00  0.00     0.080 A 
HETATM    7  C   UNL     1     -40.705  54.628 -49.796  1.00  0.00     0.032 A 
HETATM    8  C   UNL     1     -40.129  53.368 -49.958  1.00  0.00     0.026 A 
HETATM    9  C   UNL     1     -40.255  52.688 -51.162  1.00  0.00     0.035 A 
HETATM   10 CL   UNL     1     -39.517  51.143 -51.347  1.00  0.00    -0.084 Cl
HETATM   11  C   UNL     1     -40.966  53.241 -52.234  1.00  0.00     0.040 A 
ENDROOT
BRANCH   6  12
HETATM   12  N   UNL     1     -42.856  55.247 -54.234  1.00  0.00    -0.323 N 
HETATM   13  C   UNL     1     -42.133  55.103 -55.391  1.00  0.00     0.248 C 
HETATM   14  O   UNL     1     -40.917  54.986 -55.519  1.00  0.00    -0.271 OA
HETATM   15  H   UNL     1     -43.871  55.133 -54.274  1.00  0.00     0.169 HD
BRANCH  13  16
HETATM   16  C   UNL     1     -42.995  55.023 -56.655  1.00  0.00     0.338 C 
BRANCH  16  17
HETATM   17  N   UNL     1     -42.520  56.047 -57.698  1.00  0.00    -0.059 N 
HETATM   18  H   UNL     1     -41.491  55.932 -57.651  1.00  0.00     0.280 HD
HETATM   19  C   UNL     1     -42.866  55.696 -59.151  1.00  0.00     0.190 C 
HETATM   20  C   UNL     1     -42.087  56.671 -60.046  1.00  0.00     0.033 C 
HETATM   21  C   UNL     1     -42.364  58.133 -59.708  1.00  0.00     0.004 C 
HETATM   22  C   UNL     1     -42.088  58.421 -58.236  1.00  0.00     0.028 C 
HETATM   23  C   UNL     1     -42.824  57.466 -57.307  1.00  0.00     0.236 C 
BRANCH  19  24
HETATM   24  C   UNL     1     -44.383  55.694 -59.382  1.00  0.00     0.059 C 
BRANCH  24  25
HETATM   25  C   UNL     1     -44.871  54.488 -60.179  1.00  0.00     0.166 C 
BRANCH  25  26
HETATM   26  O   UNL     1     -45.060  53.422 -59.260  1.00  0.00    -0.401 OA
HETATM   27  H   UNL     1     -45.610  53.752 -58.526  1.00  0.00     0.209 HD
ENDBRANCH  25  26
ENDBRANCH  24  25
ENDBRANCH  19  24
ENDBRANCH  16  17
ENDBRANCH  13  16
ENDBRANCH   6  12
BRANCH   1  28
HETATM   28  C   UNL     1     -43.349  57.702 -52.640  1.00  0.00     0.312 C 
HETATM   29  O   UNL     1     -44.465  57.651 -53.147  1.00  0.00    -0.258 OA
BRANCH  28  30
HETATM   30  O   UNL     1     -42.630  58.827 -52.393  1.00  0.00    -0.317 OA
BRANCH  30  31
HETATM   31  C   UNL     1     -41.735  59.237 -53.439  1.00  0.00     0.175 C 
HETATM   32  C   UNL     1     -40.305  58.871 -53.090  1.00  0.00     0.034 C 
ENDBRANCH  30  31
ENDBRANCH  28  30
ENDBRANCH   1  28
TORSDOF 9
ENDMDL
MODEL 5
REMARK VINA RESULT:      -7.1      1.787      2.424
REMARK  9 active torsions:
REMARK  status: ('A' for Active; 'I' for Inactive)
REMARK    1  A    between atoms: C_2  and  O_3 
REMARK    2  A    between atoms: O_3  and  C_4 
REMARK    3  A    between atoms: C_4  and  C_5 
REMARK    4  A    between atoms: C_10  and  N_11 
REMARK       I    between atoms: N_11  and  C_12 
REMARK    5  A    between atoms: C_12  and  C_13 
REMARK    6  A    between atoms: C_13  and  N_14 
REMARK    7  A    between atoms: C_16  and  C_17 
REMARK    8  A    between atoms: C_17  and  C_18 
REMARK    9  A    between atoms: C_18  and  O_19 
ROOT
HETATM    1  C   UNL     1     -41.240  55.871 -53.052  1.00  0.00     0.137 A 
HETATM    2  N   UNL     1     -40.914  55.047 -52.004  1.00  0.00    -0.349 N 
HETATM    3  H   UNL     1     -40.918  55.330 -51.033  1.00  0.00     0.166 HD
HETATM    4  C   UNL     1     -40.571  53.798 -52.457  1.00  0.00     0.045 A 
HETATM    5  C   UNL     1     -40.679  53.811 -53.852  1.00  0.00     0.021 A 
HETATM    6  C   UNL     1     -41.126  55.125 -54.220  1.00  0.00     0.080 A 
HETATM    7  C   UNL     1     -40.168  52.674 -51.723  1.00  0.00     0.032 A 
HETATM    8  C   UNL     1     -39.843  51.516 -52.429  1.00  0.00     0.026 A 
HETATM    9  C   UNL     1     -39.913  51.497 -53.816  1.00  0.00     0.035 A 
HETATM   10 CL   UNL     1     -39.487  50.062 -54.669  1.00  0.00    -0.084 Cl
HETATM   11  C   UNL     1     -40.319  52.627 -54.536  1.00  0.00     0.040 A 
ENDROOT
BRANCH   6  12
HETATM   12  N   UNL     1     -41.418  55.719 -55.448  1.00  0.00    -0.323 N 
HETATM   13  C   UNL     1     -42.643  55.833 -56.053  1.00  0.00     0.248 C 
HETATM   14  O   UNL     1     -43.742  55.499 -55.616  1.00  0.00    -0.271 OA
HETATM   15  H   UNL     1     -40.624  56.220 -55.851  1.00  0.00     0.169 HD
BRANCH  13  16
HETATM   16  C   UNL     1     -42.598  56.523 -57.419  1.00  0.00     0.338 C 
BRANCH  16  17
HETATM   17  N   UNL     1     -43.853  56.184 -58.238  1.00  0.00    -0.059 N 
HETATM   18  H   UNL     1     -44.445  55.716 -57.528  1.00  0.00     0.280 HD
HETATM   19  C   UNL     1     -44.687  57.396 -58.675  1.00  0.00     0.190 C 
HETATM   20  C   UNL     1     -46.013  56.854 -59.227  1.00  0.00     0.033 C 
HETATM   21  C   UNL     1     -45.814  55.837 -60.348  1.00  0.00     0.004 C 
HETATM   22  C   UNL     1     -44.912  54.692 -59.901  1.00  0.00     0.028 C 
HETATM   23  C   UNL     1     -43.590  55.180 -59.326  1.00  0.00     0.236 C 
BRANCH  19  24
HETATM   24  C   UNL     1     -43.909  58.290 -59.650  1.00  0.00     0.059 C 
BRANCH  24  25
HETATM   25  C   UNL     1     -43.680  59.703 -59.122  1.00  0.00     0.166 C 
BRANCH  25  26
HETATM   26  O   UNL     1     -43.591  60.565 -60.245  1.00  0.00    -0.401 OA
HETATM   27  H   UNL     1     -44.089  60.158 -60.978  1.00  0.00     0.209 HD
ENDBRANCH  25  26
ENDBRANCH  24  25
ENDBRANCH  19  24
ENDBRANCH  16  17
ENDBRANCH  13  16
ENDBRANCH   6  12
BRANCH   1  28
HETATM   28  C   UNL     1     -41.646  57.249 -52.914  1.00  0.00     0.312 C 
HETATM   29  O   UNL     1     -42.575  57.612 -52.201  1.00  0.00    -0.258 OA
BRANCH  28  30
HETATM   30  O   UNL     1     -40.856  58.050 -53.675  1.00  0.00    -0.317 OA
BRANCH  30  31
HETATM   31  C   UNL     1     -41.343  59.384 -53.888  1.00  0.00     0.175 C 
HETATM   32  C   UNL     1     -42.082  59.476 -55.209  1.00  0.00     0.034 C 
ENDBRANCH  30  31
ENDBRANCH  28  30
ENDBRANCH   1  28
TORSDOF 9
ENDMDL
MODEL 6
REMARK VINA RESULT:      -6.9      1.903      2.880
REMARK  9 active torsions:
REMARK  status: ('A' for Active; 'I' for Inactive)
REMARK    1  A    between atoms: C_2  and  O_3 
REMARK    2  A    between atoms: O_3  and  C_4 
REMARK    3  A    between atoms: C_4  and  C_5 
REMARK    4  A    between atoms: C_10  and  N_11 
REMARK       I    between atoms: N_11  and  C_12 
REMARK    5  A    between atoms: C_12  and  C_13 
REMARK    6  A    between atoms: C_13  and  N_14 
REMARK    7  A    between atoms: C_16  and  C_17 
REMARK    8  A    between atoms: C_17  and  C_18 
REMARK    9  A    between atoms: C_18  and  O_19 
ROOT
HETATM    1  C   UNL     1     -41.334  56.393 -51.908  1.00  0.00     0.137 A 
HETATM    2  N   UNL     1     -41.075  55.340 -51.069  1.00  0.00    -0.349 N 
HETATM    3  H   UNL     1     -41.095  55.396 -50.058  1.00  0.00     0.166 HD
HETATM    4  C   UNL     1     -40.774  54.209 -51.786  1.00  0.00     0.045 A 
HETATM    5  C   UNL     1     -40.840  54.543 -53.144  1.00  0.00     0.021 A 
HETATM    6  C   UNL     1     -41.219  55.926 -53.213  1.00  0.00     0.080 A 
HETATM    7  C   UNL     1     -40.442  52.931 -51.319  1.00  0.00     0.032 A 
HETATM    8  C   UNL     1     -40.147  51.947 -52.264  1.00  0.00     0.026 A 
HETATM    9  C   UNL     1     -40.178  52.245 -53.620  1.00  0.00     0.035 A 
HETATM   10 CL   UNL     1     -39.790  51.021 -54.768  1.00  0.00    -0.084 Cl
HETATM   11  C   UNL     1     -40.512  53.527 -54.072  1.00  0.00     0.040 A 
ENDROOT
BRANCH   6  12
HETATM   12  N   UNL     1     -41.450  56.795 -54.279  1.00  0.00    -0.323 N 
HETATM   13  C   UNL     1     -42.558  56.860 -55.082  1.00  0.00     0.248 C 
HETATM   14  O   UNL     1     -43.602  56.218 -54.993  1.00  0.00    -0.271 OA
HETATM   15  H   UNL     1     -40.742  57.529 -54.359  1.00  0.00     0.169 HD
BRANCH  13  16
HETATM   16  C   UNL     1     -42.466  57.922 -56.182  1.00  0.00     0.338 C 
BRANCH  16  17
HETATM   17  N   UNL     1     -42.730  57.297 -57.561  1.00  0.00    -0.059 N 
HETATM   18  H   UNL     1     -42.331  56.349 -57.440  1.00  0.00     0.280 HD
HETATM   19  C   UNL     1     -44.208  57.040 -57.882  1.00  0.00     0.190 C 
HETATM   20  C   UNL     1     -44.248  56.179 -59.152  1.00  0.00     0.033 C 
HETATM   21  C   UNL     1     -43.491  56.810 -60.318  1.00  0.00     0.004 C 
HETATM   22  C   UNL     1     -42.050  57.128 -59.931  1.00  0.00     0.028 C 
HETATM   23  C   UNL     1     -41.957  57.964 -58.664  1.00  0.00     0.236 C 
BRANCH  19  24
HETATM   24  C   UNL     1     -44.998  58.352 -57.976  1.00  0.00     0.059 C 
BRANCH  24  25
HETATM   25  C   UNL     1     -46.343  58.299 -57.258  1.00  0.00     0.166 C 
BRANCH  25  26
HETATM   26  O   UNL     1     -46.106  57.798 -55.951  1.00  0.00    -0.401 OA
HETATM   27  H   UNL     1     -45.763  58.530 -55.406  1.00  0.00     0.209 HD
ENDBRANCH  25  26
ENDBRANCH  24  25
ENDBRANCH  19  24
ENDBRANCH  16  17
ENDBRANCH  13  16
ENDBRANCH   6  12
BRANCH   1  28
HETATM   28  C   UNL     1     -41.683  57.723 -51.468  1.00  0.00     0.312 C 
HETATM   29  O   UNL     1     -42.669  58.332 -51.872  1.00  0.00    -0.258 OA
BRANCH  28  30
HETATM   30  O   UNL     1     -40.775  58.172 -50.565  1.00  0.00    -0.317 OA
BRANCH  30  31
HETATM   31  C   UNL     1     -40.495  59.581 -50.610  1.00  0.00     0.175 C 
HETATM   32  C   UNL     1     -39.031  59.841 -50.310  1.00  0.00     0.034 C 
ENDBRANCH  30  31
ENDBRANCH  28  30
ENDBRANCH   1  28
TORSDOF 9
ENDMDL
MODEL 7
REMARK VINA RESULT:      -6.9      1.811      2.413
REMARK  9 active torsions:
REMARK  status: ('A' for Active; 'I' for Inactive)
REMARK    1  A    between atoms: C_2  and  O_3 
REMARK    2  A    between atoms: O_3  and  C_4 
REMARK    3  A    between atoms: C_4  and  C_5 
REMARK    4  A    between atoms: C_10  and  N_11 
REMARK       I    between atoms: N_11  and  C_12 
REMARK    5  A    between atoms: C_12  and  C_13 
REMARK    6  A    between atoms: C_13  and  N_14 
REMARK    7  A    between atoms: C_16  and  C_17 
REMARK    8  A    between atoms: C_17  and  C_18 
REMARK    9  A    between atoms: C_18  and  O_19 
ROOT
HETATM    1  C   UNL     1     -41.197  55.261 -52.169  1.00  0.00     0.137 A 
HETATM    2  N   UNL     1     -40.656  54.357 -51.290  1.00  0.00    -0.349 N 
HETATM    3  H   UNL     1     -40.504  54.537 -50.306  1.00  0.00     0.166 HD
HETATM    4  C   UNL     1     -40.339  53.186 -51.931  1.00  0.00     0.045 A 
HETATM    5  C   UNL     1     -40.688  53.336 -53.278  1.00  0.00     0.021 A 
HETATM    6  C   UNL     1     -41.254  54.648 -53.416  1.00  0.00     0.080 A 
HETATM    7  C   UNL     1     -39.763  52.021 -51.407  1.00  0.00     0.032 A 
HETATM    8  C   UNL     1     -39.512  50.966 -52.284  1.00  0.00     0.026 A 
HETATM    9  C   UNL     1     -39.822  51.085 -53.633  1.00  0.00     0.035 A 
HETATM   10 CL   UNL     1     -39.484  49.777 -54.701  1.00  0.00    -0.084 Cl
HETATM   11  C   UNL     1     -40.398  52.255 -54.142  1.00  0.00     0.040 A 
ENDROOT
BRANCH   6  12
HETATM   12  N   UNL     1     -41.783  55.345 -54.502  1.00  0.00    -0.323 N 
HETATM   13  C   UNL     1     -43.042  55.239 -55.033  1.00  0.00     0.248 C 
HETATM   14  O   UNL     1     -43.985  54.563 -54.627  1.00  0.00    -0.271 OA
HETATM   15  H   UNL     1     -41.173  56.096 -54.833  1.00  0.00     0.169 HD
BRANCH  13  16
HETATM   16  C   UNL     1     -43.281  56.139 -56.249  1.00  0.00     0.338 C 
BRANCH  16  17
HETATM   17  N   UNL     1     -43.614  57.572 -55.805  1.00  0.00    -0.059 N 
HETATM   18  H   UNL     1     -42.669  57.963 -55.635  1.00  0.00     0.280 HD
HETATM   19  C   UNL     1     -44.195  58.470 -56.904  1.00  0.00     0.190 C 
HETATM   20  C   UNL     1     -44.203  59.904 -56.355  1.00  0.00     0.033 C 
HETATM   21  C   UNL     1     -44.954  60.027 -55.032  1.00  0.00     0.004 C 
HETATM   22  C   UNL     1     -44.401  59.057 -53.993  1.00  0.00     0.028 C 
HETATM   23  C   UNL     1     -44.355  57.623 -54.498  1.00  0.00     0.236 C 
BRANCH  19  24
HETATM   24  C   UNL     1     -45.564  57.963 -57.379  1.00  0.00     0.059 C 
BRANCH  24  25
HETATM   25  C   UNL     1     -45.606  57.644 -58.870  1.00  0.00     0.166 C 
BRANCH  25  26
HETATM   26  O   UNL     1     -46.485  56.543 -59.043  1.00  0.00    -0.401 OA
HETATM   27  H   UNL     1     -46.075  55.762 -58.626  1.00  0.00     0.209 HD
ENDBRANCH  25  26
ENDBRANCH  24  25
ENDBRANCH  19  24
ENDBRANCH  16  17
ENDBRANCH  13  16
ENDBRANCH   6  12
BRANCH   1  28
HETATM   28  C   UNL     1     -41.637  56.588 -51.809  1.00  0.00     0.312 C 
HETATM   29  O   UNL     1     -41.312  57.598 -52.425  1.00  0.00    -0.258 OA
BRANCH  28  30
HETATM   30  O   UNL     1     -42.441  56.537 -50.717  1.00  0.00    -0.317 OA
BRANCH  30  31
HETATM   31  C   UNL     1     -43.808  56.169 -50.965  1.00  0.00     0.175 C 
HETATM   32  C   UNL     1     -44.124  54.832 -50.323  1.00  0.00     0.034 C 
ENDBRANCH  30  31
ENDBRANCH  28  30
ENDBRANCH   1  28
TORSDOF 9
ENDMDL
MODEL 8
REMARK VINA RESULT:      -6.7      2.337      5.141
REMARK  9 active torsions:
REMARK  status: ('A' for Active; 'I' for Inactive)
REMARK    1  A    between atoms: C_2  and  O_3 
REMARK    2  A    between atoms: O_3  and  C_4 
REMARK    3  A    between atoms: C_4  and  C_5 
REMARK    4  A    between atoms: C_10  and  N_11 
REMARK       I    between atoms: N_11  and  C_12 
REMARK    5  A    between atoms: C_12  and  C_13 
REMARK    6  A    between atoms: C_13  and  N_14 
REMARK    7  A    between atoms: C_16  and  C_17 
REMARK    8  A    between atoms: C_17  and  C_18 
REMARK    9  A    between atoms: C_18  and  O_19 
ROOT
HETATM    1  C   UNL     1     -41.223  54.387 -54.586  1.00  0.00     0.137 A 
HETATM    2  N   UNL     1     -40.687  53.284 -55.201  1.00  0.00    -0.349 N 
HETATM    3  H   UNL     1     -40.609  53.171 -56.204  1.00  0.00     0.166 HD
HETATM    4  C   UNL     1     -40.286  52.357 -54.272  1.00  0.00     0.045 A 
HETATM    5  C   UNL     1     -40.573  52.878 -53.006  1.00  0.00     0.021 A 
HETATM    6  C   UNL     1     -41.146  54.178 -53.213  1.00  0.00     0.080 A 
HETATM    7  C   UNL     1     -39.703  51.099 -54.477  1.00  0.00     0.032 A 
HETATM    8  C   UNL     1     -39.410  50.325 -53.354  1.00  0.00     0.026 A 
HETATM    9  C   UNL     1     -39.703  50.797 -52.081  1.00  0.00     0.035 A 
HETATM   10 CL   UNL     1     -39.353  49.816 -50.710  1.00  0.00    -0.084 Cl
HETATM   11  C   UNL     1     -40.285  52.056 -51.892  1.00  0.00     0.040 A 
ENDROOT
BRANCH   6  12
HETATM   12  N   UNL     1     -41.612  55.161 -52.340  1.00  0.00    -0.323 N 
HETATM   13  C   UNL     1     -42.722  55.111 -51.537  1.00  0.00     0.248 C 
HETATM   14  O   UNL     1     -43.498  54.172 -51.369  1.00  0.00    -0.271 OA
HETATM   15  H   UNL     1     -40.958  55.938 -52.224  1.00  0.00     0.169 HD
BRANCH  13  16
HETATM   16  C   UNL     1     -42.955  56.385 -50.720  1.00  0.00     0.338 C 
BRANCH  16  17
HETATM   17  N   UNL     1     -42.765  57.632 -51.597  1.00  0.00    -0.059 N 
HETATM   18  H   UNL     1     -42.359  57.222 -52.458  1.00  0.00     0.280 HD
HETATM   19  C   UNL     1     -44.065  58.290 -52.077  1.00  0.00     0.190 C 
HETATM   20  C   UNL     1     -43.678  59.327 -53.140  1.00  0.00     0.033 C 
HETATM   21  C   UNL     1     -42.655  60.340 -52.632  1.00  0.00     0.004 C 
HETATM   22  C   UNL     1     -41.413  59.643 -52.087  1.00  0.00     0.028 C 
HETATM   23  C   UNL     1     -41.747  58.589 -51.041  1.00  0.00     0.236 C 
BRANCH  19  24
HETATM   24  C   UNL     1     -44.875  58.853 -50.902  1.00  0.00     0.059 C 
BRANCH  24  25
HETATM   25  C   UNL     1     -46.055  59.715 -51.341  1.00  0.00     0.166 C 
BRANCH  25  26
HETATM   26  O   UNL     1     -46.253  60.704 -50.342  1.00  0.00    -0.401 OA
HETATM   27  H   UNL     1     -47.087  60.502 -49.879  1.00  0.00     0.209 HD
ENDBRANCH  25  26
ENDBRANCH  24  25
ENDBRANCH  19  24
ENDBRANCH  16  17
ENDBRANCH  13  16
ENDBRANCH   6  12
BRANCH   1  28
HETATM   28  C   UNL     1     -41.737  55.543 -55.281  1.00  0.00     0.312 C 
HETATM   29  O   UNL     1     -41.622  56.690 -54.864  1.00  0.00    -0.258 OA
BRANCH  28  30
HETATM   30  O   UNL     1     -42.347  55.164 -56.434  1.00  0.00    -0.317 OA
BRANCH  30  31
HETATM   31  C   UNL     1     -42.975  56.218 -57.182  1.00  0.00     0.175 C 
HETATM   32  C   UNL     1     -43.283  55.756 -58.594  1.00  0.00     0.034 C 
ENDBRANCH  30  31
ENDBRANCH  28  30
ENDBRANCH   1  28
TORSDOF 9
ENDMDL
MODEL 9
REMARK VINA RESULT:      -6.6      2.171      3.038
REMARK  9 active torsions:
REMARK  status: ('A' for Active; 'I' for Inactive)
REMARK    1  A    between atoms: C_2  and  O_3 
REMARK    2  A    between atoms: O_3  and  C_4 
REMARK    3  A    between atoms: C_4  and  C_5 
REMARK    4  A    between atoms: C_10  and  N_11 
REMARK       I    between atoms: N_11  and  C_12 
REMARK    5  A    between atoms: C_12  and  C_13 
REMARK    6  A    between atoms: C_13  and  N_14 
REMARK    7  A    between atoms: C_16  and  C_17 
REMARK    8  A    between atoms: C_17  and  C_18 
REMARK    9  A    between atoms: C_18  and  O_19 
ROOT
HETATM    1  C   UNL     1     -41.490  57.279 -53.137  1.00  0.00     0.137 A 
HETATM    2  N   UNL     1     -41.110  56.532 -52.051  1.00  0.00    -0.349 N 
HETATM    3  H   UNL     1     -40.961  56.907 -51.123  1.00  0.00     0.166 HD
HETATM    4  C   UNL     1     -40.950  55.214 -52.400  1.00  0.00     0.045 A 
HETATM    5  C   UNL     1     -41.237  55.103 -53.766  1.00  0.00     0.021 A 
HETATM    6  C   UNL     1     -41.602  56.415 -54.220  1.00  0.00     0.080 A 
HETATM    7  C   UNL     1     -40.564  54.131 -51.600  1.00  0.00     0.032 A 
HETATM    8  C   UNL     1     -40.446  52.880 -52.208  1.00  0.00     0.026 A 
HETATM    9  C   UNL     1     -40.697  52.734 -53.566  1.00  0.00     0.035 A 
HETATM   10 CL   UNL     1     -40.525  51.185 -54.300  1.00  0.00    -0.084 Cl
HETATM   11  C   UNL     1     -41.083  53.826 -54.352  1.00  0.00     0.040 A 
ENDROOT
BRANCH   6  12
HETATM   12  N   UNL     1     -41.993  56.914 -55.462  1.00  0.00    -0.323 N 
HETATM   13  C   UNL     1     -43.264  56.993 -55.971  1.00  0.00     0.248 C 
HETATM   14  O   UNL     1     -44.323  56.705 -55.420  1.00  0.00    -0.271 OA
HETATM   15  H   UNL     1     -41.234  57.375 -55.968  1.00  0.00     0.169 HD
BRANCH  13  16
HETATM   16  C   UNL     1     -43.331  57.574 -57.386  1.00  0.00     0.338 C 
BRANCH  16  17
HETATM   17  N   UNL     1     -44.191  56.684 -58.296  1.00  0.00    -0.059 N 
HETATM   18  H   UNL     1     -44.830  56.240 -57.611  1.00  0.00     0.280 HD
HETATM   19  C   UNL     1     -45.131  57.443 -59.242  1.00  0.00     0.190 C 
HETATM   20  C   UNL     1     -46.083  56.407 -59.856  1.00  0.00     0.033 C 
HETATM   21  C   UNL     1     -45.346  55.263 -60.547  1.00  0.00     0.004 C 
HETATM   22  C   UNL     1     -44.360  54.589 -59.598  1.00  0.00     0.028 C 
HETATM   23  C   UNL     1     -43.406  55.579 -58.948  1.00  0.00     0.236 C 
BRANCH  19  24
HETATM   24  C   UNL     1     -44.345  58.272 -60.267  1.00  0.00     0.059 C 
BRANCH  24  25
HETATM   25  C   UNL     1     -45.031  59.584 -60.634  1.00  0.00     0.166 C 
BRANCH  25  26
HETATM   26  O   UNL     1     -44.516  59.994 -61.892  1.00  0.00    -0.401 OA
HETATM   27  H   UNL     1     -43.773  60.604 -61.729  1.00  0.00     0.209 HD
ENDBRANCH  25  26
ENDBRANCH  24  25
ENDBRANCH  19  24
ENDBRANCH  16  17
ENDBRANCH  13  16
ENDBRANCH   6  12
BRANCH   1  28
HETATM   28  C   UNL     1     -41.741  58.700 -53.104  1.00  0.00     0.312 C 
HETATM   29  O   UNL     1     -40.851  59.544 -53.091  1.00  0.00    -0.258 OA
BRANCH  28  30
HETATM   30  O   UNL     1     -43.077  58.941 -53.092  1.00  0.00    -0.317 OA
BRANCH  30  31
HETATM   31  C   UNL     1     -43.472  60.286 -53.408  1.00  0.00     0.175 C 
HETATM   32  C   UNL     1     -43.676  60.443 -54.902  1.00  0.00     0.034 C 
ENDBRANCH  30  31
ENDBRANCH  28  30
ENDBRANCH   1  28
TORSDOF 9
ENDMDL
MODEL 10
REMARK VINA RESULT:      -6.6      2.709      5.453
REMARK  9 active torsions:
REMARK  status: ('A' for Active; 'I' for Inactive)
REMARK    1  A    between atoms: C_2  and  O_3 
REMARK    2  A    between atoms: O_3  and  C_4 
REMARK    3  A    between atoms: C_4  and  C_5 
REMARK    4  A    between atoms: C_10  and  N_11 
REMARK       I    between atoms: N_11  and  C_12 
REMARK    5  A    between atoms: C_12  and  C_13 
REMARK    6  A    between atoms: C_13  and  N_14 
REMARK    7  A    between atoms: C_16  and  C_17 
REMARK    8  A    between atoms: C_17  and  C_18 
REMARK    9  A    between atoms: C_18  and  O_19 
ROOT
HETATM    1  C   UNL     1     -41.803  56.000 -55.219  1.00  0.00     0.137 A 
HETATM    2  N   UNL     1     -41.436  54.782 -55.734  1.00  0.00    -0.349 N 
HETATM    3  H   UNL     1     -41.502  54.532 -56.712  1.00  0.00     0.166 HD
HETATM    4  C   UNL     1     -40.981  53.952 -54.741  1.00  0.00     0.045 A 
HETATM    5  C   UNL     1     -41.056  54.658 -53.534  1.00  0.00     0.021 A 
HETATM    6  C   UNL     1     -41.557  55.965 -53.851  1.00  0.00     0.080 A 
HETATM    7  C   UNL     1     -40.522  52.631 -54.837  1.00  0.00     0.032 A 
HETATM    8  C   UNL     1     -40.137  51.987 -53.660  1.00  0.00     0.026 A 
HETATM    9  C   UNL     1     -40.221  52.646 -52.440  1.00  0.00     0.035 A 
HETATM   10 CL   UNL     1     -39.760  51.825 -50.998  1.00  0.00    -0.084 Cl
HETATM   11  C   UNL     1     -40.680  53.966 -52.360  1.00  0.00     0.040 A 
ENDROOT
BRANCH   6  12
HETATM   12  N   UNL     1     -41.829  57.091 -53.074  1.00  0.00    -0.323 N 
HETATM   13  C   UNL     1     -42.718  57.199 -52.036  1.00  0.00     0.248 C 
HETATM   14  O   UNL     1     -43.408  56.316 -51.531  1.00  0.00    -0.271 OA
HETATM   15  H   UNL     1     -41.186  57.866 -53.250  1.00  0.00     0.169 HD
BRANCH  13  16
HETATM   16  C   UNL     1     -42.784  58.598 -51.417  1.00  0.00     0.338 C 
BRANCH  16  17
HETATM   17  N   UNL     1     -43.553  59.560 -52.337  1.00  0.00    -0.059 N 
HETATM   18  H   UNL     1     -43.848  58.926 -53.102  1.00  0.00     0.280 HD
HETATM   19  C   UNL     1     -44.875  60.086 -51.761  1.00  0.00     0.190 C 
HETATM   20  C   UNL     1     -45.614  60.792 -52.907  1.00  0.00     0.033 C 
HETATM   21  C   UNL     1     -44.777  61.886 -53.564  1.00  0.00     0.004 C 
HETATM   22  C   UNL     1     -43.437  61.341 -54.047  1.00  0.00     0.028 C 
HETATM   23  C   UNL     1     -42.674  60.613 -52.950  1.00  0.00     0.236 C 
BRANCH  19  24
HETATM   24  C   UNL     1     -44.638  60.959 -50.522  1.00  0.00     0.059 C 
BRANCH  24  25
HETATM   25  C   UNL     1     -45.526  60.583 -49.340  1.00  0.00     0.166 C 
BRANCH  25  26
HETATM   26  O   UNL     1     -45.806  59.195 -49.445  1.00  0.00    -0.401 OA
HETATM   27  H   UNL     1     -46.621  59.092 -49.970  1.00  0.00     0.209 HD
ENDBRANCH  25  26
ENDBRANCH  24  25
ENDBRANCH  19  24
ENDBRANCH  16  17
ENDBRANCH  13  16
ENDBRANCH   6  12
BRANCH   1  28
HETATM   28  C   UNL     1     -42.322  57.096 -56.001  1.00  0.00     0.312 C 
HETATM   29  O   UNL     1     -42.101  58.274 -55.744  1.00  0.00    -0.258 OA
BRANCH  28  30
HETATM   30  O   UNL     1     -43.068  56.624 -57.033  1.00  0.00    -0.317 OA
BRANCH  30  31
HETATM   31  C   UNL     1     -42.719  57.122 -58.335  1.00  0.00     0.175 C 
HETATM   32  C   UNL     1     -42.828  56.021 -59.372  1.00  0.00     0.034 C 
ENDBRANCH  30  31
ENDBRANCH  28  30
ENDBRANCH   1  28
TORSDOF 9
ENDMDL
