MODEL 1
REMARK VINA RESULT:      -7.9      0.000      0.000
REMARK  9 active torsions:
REMARK  status: ('A' for Active; 'I' for Inactive)
REMARK    1  A    between atoms: C_2  and  O_3 
REMARK    2  A    between atoms: O_3  and  C_4 
REMARK    3  A    between atoms: C_7  and  N_8 
REMARK       I    between atoms: N_8  and  C_9 
REMARK    4  A    between atoms: C_9  and  C_10 
REMARK    5  A    between atoms: C_11  and  N_12 
REMARK       I    between atoms: N_12  and  C_13 
REMARK    6  A    between atoms: C_13  and  C_14 
REMARK    7  A    between atoms: C_14  and  N_15 
REMARK    8  A    between atoms: N_15  and  C_18 
REMARK    9  A    between atoms: C_18  and  C_19 
ROOT
HETATM    1  C   UNL     1     -42.822  58.911 -56.457  1.00  0.00     0.073 A 
HETATM    2  C   UNL     1     -42.752  60.107 -55.747  1.00  0.00     0.093 A 
HETATM    3  S   UNL     1     -42.695  61.466 -56.760  1.00  0.00    -0.075 SA
HETATM    4  C   UNL     1     -42.615  60.511 -58.156  1.00  0.00    -0.008 A 
HETATM    5  C   UNL     1     -42.655  59.156 -57.878  1.00  0.00    -0.026 A 
HETATM    6  C   UNL     1     -42.509  58.145 -58.984  1.00  0.00     0.041 C 
HETATM    7  C   UNL     1     -41.893  58.760 -60.251  1.00  0.00     0.009 C 
HETATM    8  C   UNL     1     -42.603  60.075 -60.627  1.00  0.00    -0.014 C 
HETATM    9  C   UNL     1     -42.080  60.613 -61.957  1.00  0.00     0.010 C 
HETATM   10  C   UNL     1     -42.436  61.129 -59.512  1.00  0.00     0.051 C 
ENDROOT
BRANCH   2  11
HETATM   11  N   UNL     1     -42.731  60.230 -54.363  1.00  0.00    -0.319 N 
HETATM   12  C   UNL     1     -41.715  59.850 -53.516  1.00  0.00     0.248 C 
HETATM   13  O   UNL     1     -40.607  59.393 -53.796  1.00  0.00    -0.271 OA
HETATM   14  H   UNL     1     -43.620  60.565 -53.980  1.00  0.00     0.169 HD
BRANCH  12  15
HETATM   15  C   UNL     1     -42.042  60.036 -52.032  1.00  0.00     0.335 C 
BRANCH  15  16
HETATM   16  N   UNL     1     -41.956  58.712 -51.313  1.00  0.00    -0.063 N 
HETATM   17  H   UNL     1     -41.012  58.312 -51.347  1.00  0.00     0.278 HD
HETATM   18  H   UNL     1     -42.156  58.914 -50.318  1.00  0.00     0.278 HD
BRANCH  16  19
HETATM   19  C   UNL     1     -42.959  57.697 -51.738  1.00  0.00     0.271 C 
BRANCH  19  20
HETATM   20  C   UNL     1     -42.503  56.314 -51.376  1.00  0.00    -0.033 A 
HETATM   21  C   UNL     1     -41.205  56.104 -50.883  1.00  0.00     0.009 A 
HETATM   22  C   UNL     1     -40.767  54.815 -50.577  1.00  0.00     0.001 A 
HETATM   23  C   UNL     1     -41.614  53.726 -50.769  1.00  0.00     0.000 A 
HETATM   24  C   UNL     1     -42.900  53.921 -51.267  1.00  0.00     0.001 A 
HETATM   25  C   UNL     1     -43.344  55.208 -51.574  1.00  0.00     0.009 A 
ENDBRANCH  19  20
ENDBRANCH  16  19
ENDBRANCH  15  16
ENDBRANCH  12  15
ENDBRANCH   2  11
BRANCH   1  26
HETATM   26  C   UNL     1     -42.973  57.619 -55.760  1.00  0.00     0.259 C 
HETATM   27  N   UNL     1     -41.954  56.729 -56.014  1.00  0.00    -0.323 N 
HETATM   28  H   UNL     1     -41.329  56.969 -56.770  1.00  0.00     0.169 HD
HETATM   29  O   UNL     1     -43.987  57.392 -55.102  1.00  0.00    -0.267 OA
BRANCH  27  30
HETATM   30  C   UNL     1     -41.686  55.500 -55.384  1.00  0.00     0.035 A 
HETATM   31  C   UNL     1     -40.490  55.190 -54.743  1.00  0.00     0.032 A 
HETATM   32  C   UNL     1     -40.293  53.912 -54.203  1.00  0.00     0.039 A 
HETATM   33  C   UNL     1     -41.282  52.930 -54.299  1.00  0.00     0.068 A 
HETATM   34  C   UNL     1     -42.486  53.244 -54.921  1.00  0.00     0.039 A 
HETATM   35  C   UNL     1     -42.684  54.519 -55.462  1.00  0.00     0.032 A 
BRANCH  33  36
HETATM   36  O   UNL     1     -40.949  51.720 -53.756  1.00  0.00    -0.352 OA
BRANCH  36  37
HETATM   37  C   UNL     1     -39.569  51.352 -53.791  1.00  0.00     0.171 C 
HETATM   38  C   UNL     1     -39.468  49.939 -54.336  1.00  0.00     0.034 C 
ENDBRANCH  36  37
ENDBRANCH  33  36
ENDBRANCH  27  30
ENDBRANCH   1  26
TORSDOF 9
ENDMDL
MODEL 2
REMARK VINA RESULT:      -7.9      2.988      7.360
REMARK  9 active torsions:
REMARK  status: ('A' for Active; 'I' for Inactive)
REMARK    1  A    between atoms: C_2  and  O_3 
REMARK    2  A    between atoms: O_3  and  C_4 
REMARK    3  A    between atoms: C_7  and  N_8 
REMARK       I    between atoms: N_8  and  C_9 
REMARK    4  A    between atoms: C_9  and  C_10 
REMARK    5  A    between atoms: C_11  and  N_12 
REMARK       I    between atoms: N_12  and  C_13 
REMARK    6  A    between atoms: C_13  and  C_14 
REMARK    7  A    between atoms: C_14  and  N_15 
REMARK    8  A    between atoms: N_15  and  C_18 
REMARK    9  A    between atoms: C_18  and  C_19 
ROOT
HETATM    1  C   UNL     1     -41.381  54.792 -52.768  1.00  0.00     0.073 A 
HETATM    2  C   UNL     1     -42.009  55.289 -51.629  1.00  0.00     0.093 A 
HETATM    3  S   UNL     1     -41.712  54.345 -50.253  1.00  0.00    -0.075 SA
HETATM    4  C   UNL     1     -40.869  53.180 -51.147  1.00  0.00    -0.008 A 
HETATM    5  C   UNL     1     -40.780  53.500 -52.490  1.00  0.00    -0.026 A 
HETATM    6  C   UNL     1     -40.141  52.544 -53.463  1.00  0.00     0.041 C 
HETATM    7  C   UNL     1     -40.052  51.118 -52.897  1.00  0.00     0.009 C 
HETATM    8  C   UNL     1     -39.463  51.126 -51.472  1.00  0.00    -0.014 C 
HETATM    9  C   UNL     1     -39.250  49.702 -50.964  1.00  0.00     0.010 C 
HETATM   10  C   UNL     1     -40.371  51.917 -50.506  1.00  0.00     0.051 C 
ENDROOT
BRANCH   2  11
HETATM   11  N   UNL     1     -42.801  56.431 -51.571  1.00  0.00    -0.319 N 
HETATM   12  C   UNL     1     -44.058  56.536 -51.019  1.00  0.00     0.248 C 
HETATM   13  O   UNL     1     -44.708  55.685 -50.415  1.00  0.00    -0.271 OA
HETATM   14  H   UNL     1     -42.397  57.222 -52.079  1.00  0.00     0.169 HD
BRANCH  12  15
HETATM   15  C   UNL     1     -44.701  57.912 -51.201  1.00  0.00     0.335 C 
BRANCH  15  16
HETATM   16  N   UNL     1     -44.169  58.572 -52.450  1.00  0.00    -0.063 N 
HETATM   17  H   UNL     1     -43.564  57.946 -52.993  1.00  0.00     0.278 HD
HETATM   18  H   UNL     1     -44.994  58.773 -53.041  1.00  0.00     0.278 HD
BRANCH  16  19
HETATM   19  C   UNL     1     -43.490  59.879 -52.232  1.00  0.00     0.271 C 
BRANCH  19  20
HETATM   20  C   UNL     1     -42.050  59.675 -51.860  1.00  0.00    -0.033 A 
HETATM   21  C   UNL     1     -41.136  59.190 -52.810  1.00  0.00     0.009 A 
HETATM   22  C   UNL     1     -39.804  58.969 -52.458  1.00  0.00     0.001 A 
HETATM   23  C   UNL     1     -39.375  59.218 -51.157  1.00  0.00     0.000 A 
HETATM   24  C   UNL     1     -40.275  59.689 -50.204  1.00  0.00     0.001 A 
HETATM   25  C   UNL     1     -41.608  59.914 -50.549  1.00  0.00     0.009 A 
ENDBRANCH  19  20
ENDBRANCH  16  19
ENDBRANCH  15  16
ENDBRANCH  12  15
ENDBRANCH   2  11
BRANCH   1  26
HETATM   26  C   UNL     1     -41.438  55.521 -54.050  1.00  0.00     0.259 C 
HETATM   27  N   UNL     1     -42.622  55.353 -54.731  1.00  0.00    -0.323 N 
HETATM   28  H   UNL     1     -43.234  54.626 -54.391  1.00  0.00     0.169 HD
HETATM   29  O   UNL     1     -40.449  56.129 -54.454  1.00  0.00    -0.267 OA
BRANCH  27  30
HETATM   30  C   UNL     1     -43.082  56.036 -55.872  1.00  0.00     0.035 A 
HETATM   31  C   UNL     1     -43.742  57.262 -55.840  1.00  0.00     0.032 A 
HETATM   32  C   UNL     1     -44.222  57.832 -57.027  1.00  0.00     0.039 A 
HETATM   33  C   UNL     1     -44.055  57.186 -58.255  1.00  0.00     0.068 A 
HETATM   34  C   UNL     1     -43.378  55.971 -58.291  1.00  0.00     0.039 A 
HETATM   35  C   UNL     1     -42.898  55.400 -57.107  1.00  0.00     0.032 A 
BRANCH  33  36
HETATM   36  O   UNL     1     -44.596  57.837 -59.329  1.00  0.00    -0.352 OA
BRANCH  36  37
HETATM   37  C   UNL     1     -45.416  57.065 -60.207  1.00  0.00     0.171 C 
HETATM   38  C   UNL     1     -46.773  56.883 -59.552  1.00  0.00     0.034 C 
ENDBRANCH  36  37
ENDBRANCH  33  36
ENDBRANCH  27  30
ENDBRANCH   1  26
TORSDOF 9
ENDMDL
MODEL 3
REMARK VINA RESULT:      -7.7      2.974      6.230
REMARK  9 active torsions:
REMARK  status: ('A' for Active; 'I' for Inactive)
REMARK    1  A    between atoms: C_2  and  O_3 
REMARK    2  A    between atoms: O_3  and  C_4 
REMARK    3  A    between atoms: C_7  and  N_8 
REMARK       I    between atoms: N_8  and  C_9 
REMARK    4  A    between atoms: C_9  and  C_10 
REMARK    5  A    between atoms: C_11  and  N_12 
REMARK       I    between atoms: N_12  and  C_13 
REMARK    6  A    between atoms: C_13  and  C_14 
REMARK    7  A    between atoms: C_14  and  N_15 
REMARK    8  A    between atoms: N_15  and  C_18 
REMARK    9  A    between atoms: C_18  and  C_19 
ROOT
HETATM    1  C   UNL     1     -44.357  59.997 -51.802  1.00  0.00     0.073 A 
HETATM    2  C   UNL     1     -45.323  60.111 -52.798  1.00  0.00     0.093 A 
HETATM    3  S   UNL     1     -46.308  61.478 -52.601  1.00  0.00    -0.075 SA
HETATM    4  C   UNL     1     -45.582  61.876 -51.124  1.00  0.00    -0.008 A 
HETATM    5  C   UNL     1     -44.573  60.998 -50.772  1.00  0.00    -0.026 A 
HETATM    6  C   UNL     1     -43.867  61.137 -49.449  1.00  0.00     0.041 C 
HETATM    7  C   UNL     1     -44.667  61.993 -48.455  1.00  0.00     0.009 C 
HETATM    8  C   UNL     1     -45.136  63.306 -49.111  1.00  0.00    -0.014 C 
HETATM    9  C   UNL     1     -45.813  64.214 -48.086  1.00  0.00     0.010 C 
HETATM   10  C   UNL     1     -46.085  63.022 -50.294  1.00  0.00     0.051 C 
ENDROOT
BRANCH   2  11
HETATM   11  N   UNL     1     -45.503  59.231 -53.859  1.00  0.00    -0.319 N 
HETATM   12  C   UNL     1     -44.849  59.254 -55.070  1.00  0.00     0.248 C 
HETATM   13  O   UNL     1     -43.941  59.996 -55.443  1.00  0.00    -0.271 OA
HETATM   14  H   UNL     1     -46.270  58.572 -53.704  1.00  0.00     0.169 HD
BRANCH  12  15
HETATM   15  C   UNL     1     -45.345  58.200 -56.063  1.00  0.00     0.335 C 
BRANCH  15  16
HETATM   16  N   UNL     1     -44.462  56.978 -56.004  1.00  0.00    -0.063 N 
HETATM   17  H   UNL     1     -44.812  56.217 -56.596  1.00  0.00     0.278 HD
HETATM   18  H   UNL     1     -43.550  57.264 -56.399  1.00  0.00     0.278 HD
BRANCH  16  19
HETATM   19  C   UNL     1     -44.176  56.471 -54.634  1.00  0.00     0.271 C 
BRANCH  19  20
HETATM   20  C   UNL     1     -42.922  55.648 -54.622  1.00  0.00    -0.033 A 
HETATM   21  C   UNL     1     -42.995  54.245 -54.662  1.00  0.00     0.009 A 
HETATM   22  C   UNL     1     -41.832  53.477 -54.618  1.00  0.00     0.001 A 
HETATM   23  C   UNL     1     -40.589  54.097 -54.524  1.00  0.00     0.000 A 
HETATM   24  C   UNL     1     -40.504  55.486 -54.472  1.00  0.00     0.001 A 
HETATM   25  C   UNL     1     -41.664  56.261 -54.518  1.00  0.00     0.009 A 
ENDBRANCH  19  20
ENDBRANCH  16  19
ENDBRANCH  15  16
ENDBRANCH  12  15
ENDBRANCH   2  11
BRANCH   1  26
HETATM   26  C   UNL     1     -43.341  58.928 -51.844  1.00  0.00     0.259 C 
HETATM   27  N   UNL     1     -43.586  57.895 -50.968  1.00  0.00    -0.323 N 
HETATM   28  H   UNL     1     -44.305  58.056 -50.277  1.00  0.00     0.169 HD
HETATM   29  O   UNL     1     -42.345  59.056 -52.554  1.00  0.00    -0.267 OA
BRANCH  27  30
HETATM   30  C   UNL     1     -42.939  56.649 -50.877  1.00  0.00     0.035 A 
HETATM   31  C   UNL     1     -41.570  56.489 -50.680  1.00  0.00     0.032 A 
HETATM   32  C   UNL     1     -41.008  55.205 -50.670  1.00  0.00     0.039 A 
HETATM   33  C   UNL     1     -41.800  54.071 -50.861  1.00  0.00     0.068 A 
HETATM   34  C   UNL     1     -43.172  54.228 -51.039  1.00  0.00     0.039 A 
HETATM   35  C   UNL     1     -43.735  55.509 -51.049  1.00  0.00     0.032 A 
BRANCH  33  36
HETATM   36  O   UNL     1     -41.122  52.884 -50.858  1.00  0.00    -0.352 OA
BRANCH  36  37
HETATM   37  C   UNL     1     -39.734  52.930 -51.195  1.00  0.00     0.171 C 
HETATM   38  C   UNL     1     -39.401  51.693 -52.007  1.00  0.00     0.034 C 
ENDBRANCH  36  37
ENDBRANCH  33  36
ENDBRANCH  27  30
ENDBRANCH   1  26
TORSDOF 9
ENDMDL
MODEL 4
REMARK VINA RESULT:      -7.6      2.325      2.693
REMARK  9 active torsions:
REMARK  status: ('A' for Active; 'I' for Inactive)
REMARK    1  A    between atoms: C_2  and  O_3 
REMARK    2  A    between atoms: O_3  and  C_4 
REMARK    3  A    between atoms: C_7  and  N_8 
REMARK       I    between atoms: N_8  and  C_9 
REMARK    4  A    between atoms: C_9  and  C_10 
REMARK    5  A    between atoms: C_11  and  N_12 
REMARK       I    between atoms: N_12  and  C_13 
REMARK    6  A    between atoms: C_13  and  C_14 
REMARK    7  A    between atoms: C_14  and  N_15 
REMARK    8  A    between atoms: N_15  and  C_18 
REMARK    9  A    between atoms: C_18  and  C_19 
ROOT
HETATM    1  C   UNL     1     -44.784  58.636 -55.239  1.00  0.00     0.073 A 
HETATM    2  C   UNL     1     -44.331  59.771 -54.571  1.00  0.00     0.093 A 
HETATM    3  S   UNL     1     -45.064  61.195 -55.128  1.00  0.00    -0.075 SA
HETATM    4  C   UNL     1     -45.888  60.374 -56.359  1.00  0.00    -0.008 A 
HETATM    5  C   UNL     1     -45.640  59.013 -56.350  1.00  0.00    -0.026 A 
HETATM    6  C   UNL     1     -46.215  58.125 -57.422  1.00  0.00     0.041 C 
HETATM    7  C   UNL     1     -46.661  58.925 -58.656  1.00  0.00     0.009 C 
HETATM    8  C   UNL     1     -47.523  60.135 -58.247  1.00  0.00    -0.014 C 
HETATM    9  C   UNL     1     -48.076  60.849 -59.479  1.00  0.00     0.010 C 
HETATM   10  C   UNL     1     -46.715  61.114 -57.370  1.00  0.00     0.051 C 
ENDROOT
BRANCH   2  11
HETATM   11  N   UNL     1     -43.386  59.790 -53.551  1.00  0.00    -0.319 N 
HETATM   12  C   UNL     1     -42.025  59.635 -53.685  1.00  0.00     0.248 C 
HETATM   13  O   UNL     1     -41.359  59.516 -54.712  1.00  0.00    -0.271 OA
HETATM   14  H   UNL     1     -43.807  59.842 -52.620  1.00  0.00     0.169 HD
BRANCH  12  15
HETATM   15  C   UNL     1     -41.270  59.612 -52.353  1.00  0.00     0.335 C 
BRANCH  15  16
HETATM   16  N   UNL     1     -41.982  58.716 -51.370  1.00  0.00    -0.063 N 
HETATM   17  H   UNL     1     -42.541  59.248 -50.694  1.00  0.00     0.278 HD
HETATM   18  H   UNL     1     -42.648  58.153 -51.926  1.00  0.00     0.278 HD
BRANCH  16  19
HETATM   19  C   UNL     1     -41.110  57.741 -50.659  1.00  0.00     0.271 C 
BRANCH  19  20
HETATM   20  C   UNL     1     -41.567  56.335 -50.914  1.00  0.00    -0.033 A 
HETATM   21  C   UNL     1     -42.843  56.091 -51.449  1.00  0.00     0.009 A 
HETATM   22  C   UNL     1     -43.282  54.784 -51.656  1.00  0.00     0.001 A 
HETATM   23  C   UNL     1     -42.461  53.710 -51.323  1.00  0.00     0.000 A 
HETATM   24  C   UNL     1     -41.198  53.938 -50.782  1.00  0.00     0.001 A 
HETATM   25  C   UNL     1     -40.751  55.244 -50.574  1.00  0.00     0.009 A 
ENDBRANCH  19  20
ENDBRANCH  16  19
ENDBRANCH  15  16
ENDBRANCH  12  15
ENDBRANCH   2  11
BRANCH   1  26
HETATM   26  C   UNL     1     -44.339  57.288 -54.840  1.00  0.00     0.259 C 
HETATM   27  N   UNL     1     -43.194  56.869 -55.481  1.00  0.00    -0.323 N 
HETATM   28  H   UNL     1     -42.893  57.426 -56.268  1.00  0.00     0.169 HD
HETATM   29  O   UNL     1     -45.024  56.619 -54.069  1.00  0.00    -0.267 OA
BRANCH  27  30
HETATM   30  C   UNL     1     -42.403  55.737 -55.212  1.00  0.00     0.035 A 
HETATM   31  C   UNL     1     -42.849  54.423 -55.320  1.00  0.00     0.032 A 
HETATM   32  C   UNL     1     -42.004  53.363 -54.965  1.00  0.00     0.039 A 
HETATM   33  C   UNL     1     -40.710  53.600 -54.494  1.00  0.00     0.068 A 
HETATM   34  C   UNL     1     -40.255  54.912 -54.404  1.00  0.00     0.039 A 
HETATM   35  C   UNL     1     -41.098  55.972 -54.758  1.00  0.00     0.032 A 
BRANCH  33  36
HETATM   36  O   UNL     1     -40.003  52.480 -54.156  1.00  0.00    -0.352 OA
BRANCH  36  37
HETATM   37  C   UNL     1     -40.686  51.229 -54.256  1.00  0.00     0.171 C 
HETATM   38  C   UNL     1     -39.646  50.126 -54.338  1.00  0.00     0.034 C 
ENDBRANCH  36  37
ENDBRANCH  33  36
ENDBRANCH  27  30
ENDBRANCH   1  26
TORSDOF 9
ENDMDL
MODEL 5
REMARK VINA RESULT:      -7.5      2.670      7.092
REMARK  9 active torsions:
REMARK  status: ('A' for Active; 'I' for Inactive)
REMARK    1  A    between atoms: C_2  and  O_3 
REMARK    2  A    between atoms: O_3  and  C_4 
REMARK    3  A    between atoms: C_7  and  N_8 
REMARK       I    between atoms: N_8  and  C_9 
REMARK    4  A    between atoms: C_9  and  C_10 
REMARK    5  A    between atoms: C_11  and  N_12 
REMARK       I    between atoms: N_12  and  C_13 
REMARK    6  A    between atoms: C_13  and  C_14 
REMARK    7  A    between atoms: C_14  and  N_15 
REMARK    8  A    between atoms: N_15  and  C_18 
REMARK    9  A    between atoms: C_18  and  C_19 
ROOT
HETATM    1  C   UNL     1     -41.194  55.489 -53.409  1.00  0.00     0.073 A 
HETATM    2  C   UNL     1     -41.400  55.890 -52.092  1.00  0.00     0.093 A 
HETATM    3  S   UNL     1     -40.889  54.729 -50.967  1.00  0.00    -0.075 SA
HETATM    4  C   UNL     1     -40.517  53.611 -52.182  1.00  0.00    -0.008 A 
HETATM    5  C   UNL     1     -40.749  54.107 -53.452  1.00  0.00    -0.026 A 
HETATM    6  C   UNL     1     -40.560  53.229 -54.662  1.00  0.00     0.041 C 
HETATM    7  C   UNL     1     -40.543  51.737 -54.295  1.00  0.00     0.009 C 
HETATM    8  C   UNL     1     -39.593  51.471 -53.111  1.00  0.00    -0.014 C 
HETATM    9  C   UNL     1     -39.475  49.973 -52.837  1.00  0.00     0.010 C 
HETATM   10  C   UNL     1     -40.067  52.218 -51.847  1.00  0.00     0.051 C 
ENDROOT
BRANCH   2  11
HETATM   11  N   UNL     1     -41.958  57.098 -51.689  1.00  0.00    -0.319 N 
HETATM   12  C   UNL     1     -41.297  58.162 -51.118  1.00  0.00     0.248 C 
HETATM   13  O   UNL     1     -40.093  58.299 -50.907  1.00  0.00    -0.271 OA
HETATM   14  H   UNL     1     -42.978  57.112 -51.770  1.00  0.00     0.169 HD
BRANCH  12  15
HETATM   15  C   UNL     1     -42.217  59.313 -50.703  1.00  0.00     0.335 C 
BRANCH  15  16
HETATM   16  N   UNL     1     -43.654  58.957 -50.993  1.00  0.00    -0.063 N 
HETATM   17  H   UNL     1     -43.753  58.003 -51.356  1.00  0.00     0.278 HD
HETATM   18  H   UNL     1     -44.144  58.979 -50.082  1.00  0.00     0.278 HD
BRANCH  16  19
HETATM   19  C   UNL     1     -44.376  59.917 -51.873  1.00  0.00     0.271 C 
BRANCH  19  20
HETATM   20  C   UNL     1     -44.744  59.272 -53.176  1.00  0.00    -0.033 A 
HETATM   21  C   UNL     1     -44.763  57.872 -53.292  1.00  0.00     0.009 A 
HETATM   22  C   UNL     1     -45.072  57.270 -54.512  1.00  0.00     0.001 A 
HETATM   23  C   UNL     1     -45.355  58.055 -55.627  1.00  0.00     0.000 A 
HETATM   24  C   UNL     1     -45.329  59.444 -55.527  1.00  0.00     0.001 A 
HETATM   25  C   UNL     1     -45.022  60.053 -54.309  1.00  0.00     0.009 A 
ENDBRANCH  19  20
ENDBRANCH  16  19
ENDBRANCH  15  16
ENDBRANCH  12  15
ENDBRANCH   2  11
BRANCH   1  26
HETATM   26  C   UNL     1     -41.485  56.395 -54.537  1.00  0.00     0.259 C 
HETATM   27  N   UNL     1     -41.855  55.743 -55.691  1.00  0.00    -0.323 N 
HETATM   28  H   UNL     1     -41.712  54.743 -55.705  1.00  0.00     0.169 HD
HETATM   29  O   UNL     1     -41.306  57.605 -54.413  1.00  0.00    -0.267 OA
BRANCH  27  30
HETATM   30  C   UNL     1     -42.373  56.289 -56.880  1.00  0.00     0.035 A 
HETATM   31  C   UNL     1     -42.221  57.619 -57.264  1.00  0.00     0.032 A 
HETATM   32  C   UNL     1     -42.832  58.085 -58.436  1.00  0.00     0.039 A 
HETATM   33  C   UNL     1     -43.602  57.235 -59.234  1.00  0.00     0.068 A 
HETATM   34  C   UNL     1     -43.738  55.901 -58.862  1.00  0.00     0.039 A 
HETATM   35  C   UNL     1     -43.129  55.433 -57.692  1.00  0.00     0.032 A 
BRANCH  33  36
HETATM   36  O   UNL     1     -44.164  57.824 -60.332  1.00  0.00    -0.352 OA
BRANCH  36  37
HETATM   37  C   UNL     1     -43.996  59.237 -60.466  1.00  0.00     0.171 C 
HETATM   38  C   UNL     1     -45.363  59.859 -60.685  1.00  0.00     0.034 C 
ENDBRANCH  36  37
ENDBRANCH  33  36
ENDBRANCH  27  30
ENDBRANCH   1  26
TORSDOF 9
ENDMDL
MODEL 6
REMARK VINA RESULT:      -7.5      3.871      7.670
REMARK  9 active torsions:
REMARK  status: ('A' for Active; 'I' for Inactive)
REMARK    1  A    between atoms: C_2  and  O_3 
REMARK    2  A    between atoms: O_3  and  C_4 
REMARK    3  A    between atoms: C_7  and  N_8 
REMARK       I    between atoms: N_8  and  C_9 
REMARK    4  A    between atoms: C_9  and  C_10 
REMARK    5  A    between atoms: C_11  and  N_12 
REMARK       I    between atoms: N_12  and  C_13 
REMARK    6  A    between atoms: C_13  and  C_14 
REMARK    7  A    between atoms: C_14  and  N_15 
REMARK    8  A    between atoms: N_15  and  C_18 
REMARK    9  A    between atoms: C_18  and  C_19 
ROOT
HETATM    1  C   UNL     1     -41.787  56.110 -52.977  1.00  0.00     0.073 A 
HETATM    2  C   UNL     1     -42.242  56.635 -51.770  1.00  0.00     0.093 A 
HETATM    3  S   UNL     1     -41.771  55.706 -50.433  1.00  0.00    -0.075 SA
HETATM    4  C   UNL     1     -41.079  54.513 -51.415  1.00  0.00    -0.008 A 
HETATM    5  C   UNL     1     -41.173  54.811 -52.762  1.00  0.00    -0.026 A 
HETATM    6  C   UNL     1     -40.692  53.829 -53.797  1.00  0.00     0.041 C 
HETATM    7  C   UNL     1     -40.546  52.411 -53.224  1.00  0.00     0.009 C 
HETATM    8  C   UNL     1     -39.765  52.430 -51.896  1.00  0.00    -0.014 C 
HETATM    9  C   UNL     1     -39.506  51.010 -51.398  1.00  0.00     0.010 C 
HETATM   10  C   UNL     1     -40.517  53.251 -50.827  1.00  0.00     0.051 C 
ENDROOT
BRANCH   2  11
HETATM   11  N   UNL     1     -43.000  57.791 -51.623  1.00  0.00    -0.319 N 
HETATM   12  C   UNL     1     -44.288  57.878 -51.145  1.00  0.00     0.248 C 
HETATM   13  O   UNL     1     -45.005  56.986 -50.694  1.00  0.00    -0.271 OA
HETATM   14  H   UNL     1     -42.537  58.622 -52.002  1.00  0.00     0.169 HD
BRANCH  12  15
HETATM   15  C   UNL     1     -44.875  59.291 -51.196  1.00  0.00     0.335 C 
BRANCH  15  16
HETATM   16  N   UNL     1     -45.019  59.843 -49.799  1.00  0.00    -0.063 N 
HETATM   17  H   UNL     1     -45.924  59.606 -49.379  1.00  0.00     0.278 HD
HETATM   18  H   UNL     1     -44.295  59.372 -49.229  1.00  0.00     0.278 HD
BRANCH  16  19
HETATM   19  C   UNL     1     -44.760  61.303 -49.669  1.00  0.00     0.271 C 
BRANCH  19  20
HETATM   20  C   UNL     1     -44.974  61.757 -48.255  1.00  0.00    -0.033 A 
HETATM   21  C   UNL     1     -44.933  63.125 -47.937  1.00  0.00     0.009 A 
HETATM   22  C   UNL     1     -45.099  63.547 -46.617  1.00  0.00     0.001 A 
HETATM   23  C   UNL     1     -45.297  62.612 -45.605  1.00  0.00     0.000 A 
HETATM   24  C   UNL     1     -45.328  61.253 -45.906  1.00  0.00     0.001 A 
HETATM   25  C   UNL     1     -45.165  60.824 -47.224  1.00  0.00     0.009 A 
ENDBRANCH  19  20
ENDBRANCH  16  19
ENDBRANCH  15  16
ENDBRANCH  12  15
ENDBRANCH   2  11
BRANCH   1  26
HETATM   26  C   UNL     1     -42.010  56.820 -54.251  1.00  0.00     0.259 C 
HETATM   27  N   UNL     1     -42.728  56.093 -55.173  1.00  0.00    -0.323 N 
HETATM   28  H   UNL     1     -42.861  55.113 -54.964  1.00  0.00     0.169 HD
HETATM   29  O   UNL     1     -41.497  57.921 -54.437  1.00  0.00    -0.267 OA
BRANCH  27  30
HETATM   30  C   UNL     1     -43.273  56.522 -56.397  1.00  0.00     0.035 A 
HETATM   31  C   UNL     1     -44.122  57.617 -56.537  1.00  0.00     0.032 A 
HETATM   32  C   UNL     1     -44.667  57.926 -57.791  1.00  0.00     0.039 A 
HETATM   33  C   UNL     1     -44.378  57.147 -58.914  1.00  0.00     0.068 A 
HETATM   34  C   UNL     1     -43.514  56.064 -58.779  1.00  0.00     0.039 A 
HETATM   35  C   UNL     1     -42.969  55.753 -57.528  1.00  0.00     0.032 A 
BRANCH  33  36
HETATM   36  O   UNL     1     -44.998  57.541 -60.066  1.00  0.00    -0.352 OA
BRANCH  36  37
HETATM   37  C   UNL     1     -46.421  57.669 -60.025  1.00  0.00     0.171 C 
HETATM   38  C   UNL     1     -47.028  56.302 -60.283  1.00  0.00     0.034 C 
ENDBRANCH  36  37
ENDBRANCH  33  36
ENDBRANCH  27  30
ENDBRANCH   1  26
TORSDOF 9
ENDMDL
MODEL 7
REMARK VINA RESULT:      -7.4      2.374      6.443
REMARK  9 active torsions:
REMARK  status: ('A' for Active; 'I' for Inactive)
REMARK    1  A    between atoms: C_2  and  O_3 
REMARK    2  A    between atoms: O_3  and  C_4 
REMARK    3  A    between atoms: C_7  and  N_8 
REMARK       I    between atoms: N_8  and  C_9 
REMARK    4  A    between atoms: C_9  and  C_10 
REMARK    5  A    between atoms: C_11  and  N_12 
REMARK       I    between atoms: N_12  and  C_13 
REMARK    6  A    between atoms: C_13  and  C_14 
REMARK    7  A    between atoms: C_14  and  N_15 
REMARK    8  A    between atoms: N_15  and  C_18 
REMARK    9  A    between atoms: C_18  and  C_19 
ROOT
HETATM    1  C   UNL     1     -43.033  58.789 -53.637  1.00  0.00     0.073 A 
HETATM    2  C   UNL     1     -42.672  59.828 -54.492  1.00  0.00     0.093 A 
HETATM    3  S   UNL     1     -42.988  61.357 -53.833  1.00  0.00    -0.075 SA
HETATM    4  C   UNL     1     -43.740  60.693 -52.469  1.00  0.00    -0.008 A 
HETATM    5  C   UNL     1     -43.741  59.310 -52.481  1.00  0.00    -0.026 A 
HETATM    6  C   UNL     1     -44.441  58.537 -51.394  1.00  0.00     0.041 C 
HETATM    7  C   UNL     1     -45.450  59.405 -50.627  1.00  0.00     0.009 C 
HETATM    8  C   UNL     1     -44.816  60.744 -50.202  1.00  0.00    -0.014 C 
HETATM    9  C   UNL     1     -45.775  61.545 -49.326  1.00  0.00     0.010 C 
HETATM   10  C   UNL     1     -44.391  61.567 -51.436  1.00  0.00     0.051 C 
ENDROOT
BRANCH   2  11
HETATM   11  N   UNL     1     -42.108  59.681 -55.754  1.00  0.00    -0.319 N 
HETATM   12  C   UNL     1     -42.772  59.397 -56.926  1.00  0.00     0.248 C 
HETATM   13  O   UNL     1     -43.981  59.280 -57.119  1.00  0.00    -0.271 OA
HETATM   14  H   UNL     1     -41.085  59.714 -55.739  1.00  0.00     0.169 HD
BRANCH  12  15
HETATM   15  C   UNL     1     -41.847  59.208 -58.132  1.00  0.00     0.335 C 
BRANCH  15  16
HETATM   16  N   UNL     1     -41.768  57.747 -58.500  1.00  0.00    -0.063 N 
HETATM   17  H   UNL     1     -40.868  57.329 -58.238  1.00  0.00     0.278 HD
HETATM   18  H   UNL     1     -42.492  57.270 -57.935  1.00  0.00     0.278 HD
BRANCH  16  19
HETATM   19  C   UNL     1     -42.083  57.437 -59.921  1.00  0.00     0.271 C 
BRANCH  19  20
HETATM   20  C   UNL     1     -43.438  56.803 -60.039  1.00  0.00    -0.033 A 
HETATM   21  C   UNL     1     -44.578  57.601 -60.227  1.00  0.00     0.009 A 
HETATM   22  C   UNL     1     -45.843  57.017 -60.305  1.00  0.00     0.001 A 
HETATM   23  C   UNL     1     -45.983  55.637 -60.186  1.00  0.00     0.000 A 
HETATM   24  C   UNL     1     -44.860  54.836 -59.990  1.00  0.00     0.001 A 
HETATM   25  C   UNL     1     -43.592  55.414 -59.913  1.00  0.00     0.009 A 
ENDBRANCH  19  20
ENDBRANCH  16  19
ENDBRANCH  15  16
ENDBRANCH  12  15
ENDBRANCH   2  11
BRANCH   1  26
HETATM   26  C   UNL     1     -42.753  57.383 -53.985  1.00  0.00     0.259 C 
HETATM   27  N   UNL     1     -41.579  56.902 -53.451  1.00  0.00    -0.323 N 
HETATM   28  H   UNL     1     -40.957  57.589 -53.048  1.00  0.00     0.169 HD
HETATM   29  O   UNL     1     -43.497  56.783 -54.759  1.00  0.00    -0.267 OA
BRANCH  27  30
HETATM   30  C   UNL     1     -41.105  55.578 -53.425  1.00  0.00     0.035 A 
HETATM   31  C   UNL     1     -40.596  54.904 -54.532  1.00  0.00     0.032 A 
HETATM   32  C   UNL     1     -40.210  53.562 -54.421  1.00  0.00     0.039 A 
HETATM   33  C   UNL     1     -40.330  52.876 -53.209  1.00  0.00     0.068 A 
HETATM   34  C   UNL     1     -40.820  53.553 -52.097  1.00  0.00     0.039 A 
HETATM   35  C   UNL     1     -41.207  54.894 -52.206  1.00  0.00     0.032 A 
BRANCH  33  36
HETATM   36  O   UNL     1     -39.945  51.565 -53.247  1.00  0.00    -0.352 OA
BRANCH  36  37
HETATM   37  C   UNL     1     -40.497  50.757 -54.288  1.00  0.00     0.171 C 
HETATM   38  C   UNL     1     -39.485  49.682 -54.641  1.00  0.00     0.034 C 
ENDBRANCH  36  37
ENDBRANCH  33  36
ENDBRANCH  27  30
ENDBRANCH   1  26
TORSDOF 9
ENDMDL
MODEL 8
REMARK VINA RESULT:      -7.4      2.453      7.015
REMARK  9 active torsions:
REMARK  status: ('A' for Active; 'I' for Inactive)
REMARK    1  A    between atoms: C_2  and  O_3 
REMARK    2  A    between atoms: O_3  and  C_4 
REMARK    3  A    between atoms: C_7  and  N_8 
REMARK       I    between atoms: N_8  and  C_9 
REMARK    4  A    between atoms: C_9  and  C_10 
REMARK    5  A    between atoms: C_11  and  N_12 
REMARK       I    between atoms: N_12  and  C_13 
REMARK    6  A    between atoms: C_13  and  C_14 
REMARK    7  A    between atoms: C_14  and  N_15 
REMARK    8  A    between atoms: N_15  and  C_18 
REMARK    9  A    between atoms: C_18  and  C_19 
ROOT
HETATM    1  C   UNL     1     -42.495  55.611 -53.513  1.00  0.00     0.073 A 
HETATM    2  C   UNL     1     -42.635  56.111 -52.221  1.00  0.00     0.093 A 
HETATM    3  S   UNL     1     -41.739  55.235 -51.079  1.00  0.00    -0.075 SA
HETATM    4  C   UNL     1     -41.259  54.089 -52.230  1.00  0.00    -0.008 A 
HETATM    5  C   UNL     1     -41.747  54.366 -53.494  1.00  0.00    -0.026 A 
HETATM    6  C   UNL     1     -41.499  53.414 -54.634  1.00  0.00     0.041 C 
HETATM    7  C   UNL     1     -41.091  52.017 -54.141  1.00  0.00     0.009 C 
HETATM    8  C   UNL     1     -39.973  52.110 -53.083  1.00  0.00    -0.014 C 
HETATM    9  C   UNL     1     -39.476  50.720 -52.695  1.00  0.00     0.010 C 
HETATM   10  C   UNL     1     -40.458  52.881 -51.837  1.00  0.00     0.051 C 
ENDROOT
BRANCH   2  11
HETATM   11  N   UNL     1     -43.410  57.206 -51.854  1.00  0.00    -0.319 N 
HETATM   12  C   UNL     1     -44.520  57.196 -51.040  1.00  0.00     0.248 C 
HETATM   13  O   UNL     1     -45.016  56.254 -50.423  1.00  0.00    -0.271 OA
HETATM   14  H   UNL     1     -43.133  58.067 -52.333  1.00  0.00     0.169 HD
BRANCH  12  15
HETATM   15  C   UNL     1     -45.203  58.559 -50.907  1.00  0.00     0.335 C 
BRANCH  15  16
HETATM   16  N   UNL     1     -44.301  59.522 -50.176  1.00  0.00    -0.063 N 
HETATM   17  H   UNL     1     -44.768  59.959 -49.374  1.00  0.00     0.278 HD
HETATM   18  H   UNL     1     -43.526  58.954 -49.794  1.00  0.00     0.278 HD
BRANCH  16  19
HETATM   19  C   UNL     1     -43.667  60.564 -51.030  1.00  0.00     0.271 C 
BRANCH  19  20
HETATM   20  C   UNL     1     -42.406  60.044 -51.655  1.00  0.00    -0.033 A 
HETATM   21  C   UNL     1     -42.302  59.934 -53.051  1.00  0.00     0.009 A 
HETATM   22  C   UNL     1     -41.142  59.420 -53.634  1.00  0.00     0.001 A 
HETATM   23  C   UNL     1     -40.084  59.003 -52.831  1.00  0.00     0.000 A 
HETATM   24  C   UNL     1     -40.179  59.098 -51.445  1.00  0.00     0.001 A 
HETATM   25  C   UNL     1     -41.335  59.613 -50.856  1.00  0.00     0.009 A 
ENDBRANCH  19  20
ENDBRANCH  16  19
ENDBRANCH  15  16
ENDBRANCH  12  15
ENDBRANCH   2  11
BRANCH   1  26
HETATM   26  C   UNL     1     -43.120  56.288 -54.665  1.00  0.00     0.259 C 
HETATM   27  N   UNL     1     -42.216  56.753 -55.593  1.00  0.00    -0.323 N 
HETATM   28  H   UNL     1     -41.246  56.751 -55.311  1.00  0.00     0.169 HD
HETATM   29  O   UNL     1     -44.336  56.467 -54.686  1.00  0.00    -0.267 OA
BRANCH  27  30
HETATM   30  C   UNL     1     -42.464  57.271 -56.877  1.00  0.00     0.035 A 
HETATM   31  C   UNL     1     -42.433  58.626 -57.197  1.00  0.00     0.032 A 
HETATM   32  C   UNL     1     -42.761  59.049 -58.491  1.00  0.00     0.039 A 
HETATM   33  C   UNL     1     -43.127  58.131 -59.478  1.00  0.00     0.068 A 
HETATM   34  C   UNL     1     -43.140  56.775 -59.166  1.00  0.00     0.039 A 
HETATM   35  C   UNL     1     -42.813  56.350 -57.874  1.00  0.00     0.032 A 
BRANCH  33  36
HETATM   36  O   UNL     1     -43.451  58.680 -60.688  1.00  0.00    -0.352 OA
BRANCH  36  37
HETATM   37  C   UNL     1     -43.285  60.093 -60.823  1.00  0.00     0.171 C 
HETATM   38  C   UNL     1     -42.079  60.347 -61.709  1.00  0.00     0.034 C 
ENDBRANCH  36  37
ENDBRANCH  33  36
ENDBRANCH  27  30
ENDBRANCH   1  26
TORSDOF 9
ENDMDL
MODEL 9
REMARK VINA RESULT:      -7.2      2.556      7.674
REMARK  9 active torsions:
REMARK  status: ('A' for Active; 'I' for Inactive)
REMARK    1  A    between atoms: C_2  and  O_3 
REMARK    2  A    between atoms: O_3  and  C_4 
REMARK    3  A    between atoms: C_7  and  N_8 
REMARK       I    between atoms: N_8  and  C_9 
REMARK    4  A    between atoms: C_9  and  C_10 
REMARK    5  A    between atoms: C_11  and  N_12 
REMARK       I    between atoms: N_12  and  C_13 
REMARK    6  A    between atoms: C_13  and  C_14 
REMARK    7  A    between atoms: C_14  and  N_15 
REMARK    8  A    between atoms: N_15  and  C_18 
REMARK    9  A    between atoms: C_18  and  C_19 
ROOT
HETATM    1  C   UNL     1     -41.401  55.707 -52.472  1.00  0.00     0.073 A 
HETATM    2  C   UNL     1     -41.785  56.195 -51.225  1.00  0.00     0.093 A 
HETATM    3  S   UNL     1     -41.349  55.160 -49.955  1.00  0.00    -0.075 SA
HETATM    4  C   UNL     1     -40.774  53.977 -51.021  1.00  0.00    -0.008 A 
HETATM    5  C   UNL     1     -40.880  54.357 -52.347  1.00  0.00    -0.026 A 
HETATM    6  C   UNL     1     -40.500  53.403 -53.448  1.00  0.00     0.041 C 
HETATM    7  C   UNL     1     -40.446  51.947 -52.958  1.00  0.00     0.009 C 
HETATM    8  C   UNL     1     -39.630  51.835 -51.655  1.00  0.00    -0.014 C 
HETATM    9  C   UNL     1     -39.464  50.374 -51.243  1.00  0.00     0.010 C 
HETATM   10  C   UNL     1     -40.291  52.646 -50.520  1.00  0.00     0.051 C 
ENDROOT
BRANCH   2  11
HETATM   11  N   UNL     1     -42.451  57.392 -50.992  1.00  0.00    -0.319 N 
HETATM   12  C   UNL     1     -43.718  57.728 -51.414  1.00  0.00     0.248 C 
HETATM   13  O   UNL     1     -44.539  57.037 -52.016  1.00  0.00    -0.271 OA
HETATM   14  H   UNL     1     -41.864  58.090 -50.528  1.00  0.00     0.169 HD
BRANCH  12  15
HETATM   15  C   UNL     1     -44.126  59.163 -51.071  1.00  0.00     0.335 C 
BRANCH  15  16
HETATM   16  N   UNL     1     -44.123  60.014 -52.317  1.00  0.00    -0.063 N 
HETATM   17  H   UNL     1     -44.897  59.781 -52.949  1.00  0.00     0.278 HD
HETATM   18  H   UNL     1     -44.282  60.986 -52.000  1.00  0.00     0.278 HD
BRANCH  16  19
HETATM   19  C   UNL     1     -42.836  60.031 -53.067  1.00  0.00     0.271 C 
BRANCH  19  20
HETATM   20  C   UNL     1     -43.035  60.573 -54.452  1.00  0.00    -0.033 A 
HETATM   21  C   UNL     1     -44.190  61.307 -54.765  1.00  0.00     0.009 A 
HETATM   22  C   UNL     1     -44.392  61.785 -56.061  1.00  0.00     0.001 A 
HETATM   23  C   UNL     1     -43.452  61.527 -57.054  1.00  0.00     0.000 A 
HETATM   24  C   UNL     1     -42.307  60.791 -56.758  1.00  0.00     0.001 A 
HETATM   25  C   UNL     1     -42.098  60.312 -55.464  1.00  0.00     0.009 A 
ENDBRANCH  19  20
ENDBRANCH  16  19
ENDBRANCH  15  16
ENDBRANCH  12  15
ENDBRANCH   2  11
BRANCH   1  26
HETATM   26  C   UNL     1     -41.605  56.502 -53.697  1.00  0.00     0.259 C 
HETATM   27  N   UNL     1     -42.637  56.049 -54.488  1.00  0.00    -0.323 N 
HETATM   28  H   UNL     1     -43.013  55.141 -54.255  1.00  0.00     0.169 HD
HETATM   29  O   UNL     1     -40.830  57.417 -53.971  1.00  0.00    -0.267 OA
BRANCH  27  30
HETATM   30  C   UNL     1     -43.217  56.666 -55.612  1.00  0.00     0.035 A 
HETATM   31  C   UNL     1     -42.662  56.654 -56.888  1.00  0.00     0.032 A 
HETATM   32  C   UNL     1     -43.282  57.355 -57.930  1.00  0.00     0.039 A 
HETATM   33  C   UNL     1     -44.458  58.078 -57.712  1.00  0.00     0.068 A 
HETATM   34  C   UNL     1     -45.026  58.074 -56.441  1.00  0.00     0.039 A 
HETATM   35  C   UNL     1     -44.407  57.375 -55.399  1.00  0.00     0.032 A 
BRANCH  33  36
HETATM   36  O   UNL     1     -44.942  58.739 -58.806  1.00  0.00    -0.352 OA
BRANCH  36  37
HETATM   37  C   UNL     1     -44.326  58.450 -60.063  1.00  0.00     0.171 C 
HETATM   38  C   UNL     1     -43.928  59.764 -60.709  1.00  0.00     0.034 C 
ENDBRANCH  36  37
ENDBRANCH  33  36
ENDBRANCH  27  30
ENDBRANCH   1  26
TORSDOF 9
ENDMDL
MODEL 10
REMARK VINA RESULT:      -7.1      3.345      7.787
REMARK  9 active torsions:
REMARK  status: ('A' for Active; 'I' for Inactive)
REMARK    1  A    between atoms: C_2  and  O_3 
REMARK    2  A    between atoms: O_3  and  C_4 
REMARK    3  A    between atoms: C_7  and  N_8 
REMARK       I    between atoms: N_8  and  C_9 
REMARK    4  A    between atoms: C_9  and  C_10 
REMARK    5  A    between atoms: C_11  and  N_12 
REMARK       I    between atoms: N_12  and  C_13 
REMARK    6  A    between atoms: C_13  and  C_14 
REMARK    7  A    between atoms: C_14  and  N_15 
REMARK    8  A    between atoms: N_15  and  C_18 
REMARK    9  A    between atoms: C_18  and  C_19 
ROOT
HETATM    1  C   UNL     1     -41.541  55.098 -53.063  1.00  0.00     0.073 A 
HETATM    2  C   UNL     1     -42.181  55.586 -51.927  1.00  0.00     0.093 A 
HETATM    3  S   UNL     1     -41.857  54.659 -50.545  1.00  0.00    -0.075 SA
HETATM    4  C   UNL     1     -40.983  53.511 -51.432  1.00  0.00    -0.008 A 
HETATM    5  C   UNL     1     -40.904  53.824 -52.777  1.00  0.00    -0.026 A 
HETATM    6  C   UNL     1     -40.241  52.879 -53.743  1.00  0.00     0.041 C 
HETATM    7  C   UNL     1     -40.111  51.460 -53.167  1.00  0.00     0.009 C 
HETATM    8  C   UNL     1     -39.522  51.495 -51.743  1.00  0.00    -0.014 C 
HETATM    9  C   UNL     1     -39.269  50.081 -51.226  1.00  0.00     0.010 C 
HETATM   10  C   UNL     1     -40.450  52.267 -50.782  1.00  0.00     0.051 C 
ENDROOT
BRANCH   2  11
HETATM   11  N   UNL     1     -43.004  56.705 -51.876  1.00  0.00    -0.319 N 
HETATM   12  C   UNL     1     -42.629  57.992 -51.563  1.00  0.00     0.248 C 
HETATM   13  O   UNL     1     -41.504  58.433 -51.332  1.00  0.00    -0.271 OA
HETATM   14  H   UNL     1     -43.993  56.478 -52.011  1.00  0.00     0.169 HD
BRANCH  12  15
HETATM   15  C   UNL     1     -43.796  58.980 -51.505  1.00  0.00     0.335 C 
BRANCH  15  16
HETATM   16  N   UNL     1     -43.773  59.732 -50.197  1.00  0.00    -0.063 N 
HETATM   17  H   UNL     1     -43.727  59.103 -49.388  1.00  0.00     0.278 HD
HETATM   18  H   UNL     1     -42.895  60.279 -50.196  1.00  0.00     0.278 HD
BRANCH  16  19
HETATM   19  C   UNL     1     -44.873  60.719 -50.017  1.00  0.00     0.271 C 
BRANCH  19  20
HETATM   20  C   UNL     1     -44.323  62.074 -49.681  1.00  0.00    -0.033 A 
HETATM   21  C   UNL     1     -43.268  62.616 -50.434  1.00  0.00     0.009 A 
HETATM   22  C   UNL     1     -42.732  63.861 -50.103  1.00  0.00     0.001 A 
HETATM   23  C   UNL     1     -43.236  64.571 -49.016  1.00  0.00     0.000 A 
HETATM   24  C   UNL     1     -44.275  64.039 -48.256  1.00  0.00     0.001 A 
HETATM   25  C   UNL     1     -44.816  62.794 -48.582  1.00  0.00     0.009 A 
ENDBRANCH  19  20
ENDBRANCH  16  19
ENDBRANCH  15  16
ENDBRANCH  12  15
ENDBRANCH   2  11
BRANCH   1  26
HETATM   26  C   UNL     1     -41.619  55.815 -54.350  1.00  0.00     0.259 C 
HETATM   27  N   UNL     1     -42.707  55.463 -55.117  1.00  0.00    -0.323 N 
HETATM   28  H   UNL     1     -43.217  54.644 -54.819  1.00  0.00     0.169 HD
HETATM   29  O   UNL     1     -40.714  56.577 -54.684  1.00  0.00    -0.267 OA
BRANCH  27  30
HETATM   30  C   UNL     1     -43.185  56.069 -56.293  1.00  0.00     0.035 A 
HETATM   31  C   UNL     1     -43.870  57.281 -56.329  1.00  0.00     0.032 A 
HETATM   32  C   UNL     1     -44.366  57.771 -57.544  1.00  0.00     0.039 A 
HETATM   33  C   UNL     1     -44.189  57.060 -58.733  1.00  0.00     0.068 A 
HETATM   34  C   UNL     1     -43.487  55.859 -58.703  1.00  0.00     0.039 A 
HETATM   35  C   UNL     1     -42.991  55.367 -57.490  1.00  0.00     0.032 A 
BRANCH  33  36
HETATM   36  O   UNL     1     -44.747  57.636 -59.840  1.00  0.00    -0.352 OA
BRANCH  36  37
HETATM   37  C   UNL     1     -46.148  57.911 -59.790  1.00  0.00     0.171 C 
HETATM   38  C   UNL     1     -46.896  56.612 -60.032  1.00  0.00     0.034 C 
ENDBRANCH  36  37
ENDBRANCH  33  36
ENDBRANCH  27  30
ENDBRANCH   1  26
TORSDOF 9
ENDMDL
