MODEL 1
REMARK VINA RESULT:      -8.6      0.000      0.000
REMARK  9 active torsions:
REMARK  status: ('A' for Active; 'I' for Inactive)
REMARK    1  A    between atoms: C_2  and  C_3 
REMARK    2  A    between atoms: C_6  and  N_7 
REMARK    3  A    between atoms: N_7  and  C_8 
REMARK    4  A    between atoms: C_12  and  C_13 
REMARK       I    between atoms: C_13  and  N_14 
REMARK    5  A    between atoms: N_14  and  C_15 
REMARK    6  A    between atoms: C_15  and  C_16 
REMARK    7  A    between atoms: C_16  and  C_17 
REMARK    8  A    between atoms: C_17  and  N_18 
REMARK    9  A    between atoms: N_22  and  C_23 
ROOT
HETATM    1  C   UNL     1     -42.774  56.502 -57.050  1.00  0.00     0.129 A 
HETATM    2  N   UNL     1     -42.936  55.735 -58.140  1.00  0.00    -0.231 NA
HETATM    3  C   UNL     1     -43.985  55.917 -58.954  1.00  0.00     0.070 A 
HETATM    4  C   UNL     1     -44.979  56.888 -58.728  1.00  0.00     0.009 A 
HETATM    5  C   UNL     1     -44.761  57.734 -57.611  1.00  0.00     0.048 A 
HETATM    6  C   UNL     1     -43.654  57.531 -56.776  1.00  0.00     0.068 A 
HETATM    7  C   UNL     1     -44.089  55.071 -60.050  1.00  0.00     0.032 A 
HETATM    8  C   UNL     1     -45.169  55.129 -60.929  1.00  0.00     0.002 A 
HETATM    9  C   UNL     1     -46.186  56.038 -60.698  1.00  0.00     0.001 A 
HETATM   10  C   UNL     1     -46.102  56.901 -59.605  1.00  0.00     0.015 A 
ENDROOT
BRANCH   5  11
HETATM   11  C   UNL     1     -45.673  58.823 -57.173  1.00  0.00     0.252 C 
HETATM   12  N   UNL     1     -45.127  59.994 -56.698  1.00  0.00    -0.357 N 
HETATM   13  H   UNL     1     -44.145  59.982 -56.432  1.00  0.00     0.162 HD
HETATM   14  O   UNL     1     -46.892  58.664 -57.221  1.00  0.00    -0.268 OA
BRANCH  12  15
HETATM   15  C   UNL     1     -45.947  61.069 -56.174  1.00  0.00     0.124 C 
BRANCH  15  16
HETATM   16  C   UNL     1     -45.593  61.493 -54.743  1.00  0.00     0.047 C 
BRANCH  16  17
HETATM   17  C   UNL     1     -45.677  60.435 -53.637  1.00  0.00     0.236 C 
BRANCH  17  18
HETATM   18  N   UNL     1     -44.350  60.053 -53.056  1.00  0.00    -0.068 N 
HETATM   19  H   UNL     1     -43.676  60.787 -53.364  1.00  0.00     0.280 HD
HETATM   20  C   UNL     1     -44.303  59.938 -51.540  1.00  0.00     0.254 C 
HETATM   21  C   UNL     1     -42.865  59.645 -51.057  1.00  0.00     0.150 C 
HETATM   22  N   UNL     1     -42.256  58.496 -51.755  1.00  0.00    -0.375 N 
HETATM   23  C   UNL     1     -42.324  58.563 -53.230  1.00  0.00     0.150 C 
HETATM   24  C   UNL     1     -43.778  58.785 -53.702  1.00  0.00     0.254 C 
BRANCH  22  25
HETATM   25  C   UNL     1     -42.293  57.220 -51.184  1.00  0.00     0.069 A 
HETATM   26  C   UNL     1     -43.457  56.445 -51.019  1.00  0.00     0.142 A 
HETATM   27  F   UNL     1     -44.641  56.895 -51.464  1.00  0.00    -0.204 F 
HETATM   28  C   UNL     1     -43.436  55.176 -50.437  1.00  0.00     0.044 A 
HETATM   29  C   UNL     1     -42.235  54.644 -49.982  1.00  0.00     0.003 A 
HETATM   30  C   UNL     1     -41.066  55.386 -50.107  1.00  0.00     0.002 A 
HETATM   31  C   UNL     1     -41.099  56.655 -50.697  1.00  0.00     0.032 A 
ENDBRANCH  22  25
ENDBRANCH  17  18
ENDBRANCH  16  17
ENDBRANCH  15  16
ENDBRANCH  12  15
ENDBRANCH   5  11
BRANCH   1  32
HETATM   32  N   UNL     1     -41.745  56.252 -56.120  1.00  0.00    -0.341 N 
HETATM   33  H   UNL     1     -40.884  56.714 -56.390  1.00  0.00     0.167 HD
BRANCH  32  34
HETATM   34  C   UNL     1     -41.509  55.101 -55.337  1.00  0.00     0.033 A 
HETATM   35  C   UNL     1     -42.287  54.760 -54.227  1.00  0.00     0.030 A 
HETATM   36  C   UNL     1     -41.964  53.661 -53.421  1.00  0.00     0.010 A 
HETATM   37  C   UNL     1     -40.829  52.886 -53.686  1.00  0.00    -0.055 A 
HETATM   38  C   UNL     1     -40.027  53.242 -54.777  1.00  0.00     0.010 A 
HETATM   39  C   UNL     1     -40.357  54.338 -55.582  1.00  0.00     0.030 A 
BRANCH  37  40
HETATM   40  C   UNL     1     -40.459  51.691 -52.826  1.00  0.00     0.010 C 
HETATM   41  C   UNL     1     -39.704  52.128 -51.568  1.00  0.00     0.015 C 
HETATM   42  C   UNL     1     -39.655  50.650 -53.609  1.00  0.00     0.015 C 
ENDBRANCH  37  40
ENDBRANCH  32  34
ENDBRANCH   1  32
TORSDOF 9
ENDMDL
MODEL 2
REMARK VINA RESULT:      -8.6      2.060      2.467
REMARK  9 active torsions:
REMARK  status: ('A' for Active; 'I' for Inactive)
REMARK    1  A    between atoms: C_2  and  C_3 
REMARK    2  A    between atoms: C_6  and  N_7 
REMARK    3  A    between atoms: N_7  and  C_8 
REMARK    4  A    between atoms: C_12  and  C_13 
REMARK       I    between atoms: C_13  and  N_14 
REMARK    5  A    between atoms: N_14  and  C_15 
REMARK    6  A    between atoms: C_15  and  C_16 
REMARK    7  A    between atoms: C_16  and  C_17 
REMARK    8  A    between atoms: C_17  and  N_18 
REMARK    9  A    between atoms: N_22  and  C_23 
ROOT
HETATM    1  C   UNL     1     -43.163  57.267 -56.578  1.00  0.00     0.129 A 
HETATM    2  N   UNL     1     -42.645  57.083 -57.803  1.00  0.00    -0.231 NA
HETATM    3  C   UNL     1     -42.498  58.114 -58.646  1.00  0.00     0.070 A 
HETATM    4  C   UNL     1     -42.879  59.432 -58.328  1.00  0.00     0.009 A 
HETATM    5  C   UNL     1     -43.363  59.624 -57.009  1.00  0.00     0.048 A 
HETATM    6  C   UNL     1     -43.503  58.533 -56.141  1.00  0.00     0.068 A 
HETATM    7  C   UNL     1     -41.971  57.836 -59.899  1.00  0.00     0.032 A 
HETATM    8  C   UNL     1     -41.830  58.819 -60.877  1.00  0.00     0.002 A 
HETATM    9  C   UNL     1     -42.247  60.112 -60.608  1.00  0.00     0.001 A 
HETATM   10  C   UNL     1     -42.777  60.416 -59.354  1.00  0.00     0.015 A 
ENDROOT
BRANCH   5  11
HETATM   11  C   UNL     1     -43.827  60.921 -56.450  1.00  0.00     0.252 C 
HETATM   12  N   UNL     1     -42.905  61.760 -55.867  1.00  0.00    -0.357 N 
HETATM   13  H   UNL     1     -42.001  61.366 -55.618  1.00  0.00     0.162 HD
HETATM   14  O   UNL     1     -45.020  61.221 -56.496  1.00  0.00    -0.268 OA
BRANCH  12  15
HETATM   15  C   UNL     1     -43.292  63.002 -55.225  1.00  0.00     0.124 C 
BRANCH  15  16
HETATM   16  C   UNL     1     -43.067  63.024 -53.707  1.00  0.00     0.047 C 
BRANCH  16  17
HETATM   17  C   UNL     1     -43.650  61.875 -52.877  1.00  0.00     0.236 C 
BRANCH  17  18
HETATM   18  N   UNL     1     -42.615  60.985 -52.258  1.00  0.00    -0.068 N 
HETATM   19  H   UNL     1     -41.758  61.568 -52.149  1.00  0.00     0.280 HD
HETATM   20  C   UNL     1     -42.985  60.386 -50.908  1.00  0.00     0.254 C 
HETATM   21  C   UNL     1     -41.803  59.579 -50.327  1.00  0.00     0.150 C 
HETATM   22  N   UNL     1     -41.266  58.592 -51.282  1.00  0.00    -0.375 N 
HETATM   23  C   UNL     1     -40.936  59.139 -52.616  1.00  0.00     0.150 C 
HETATM   24  C   UNL     1     -42.149  59.883 -53.217  1.00  0.00     0.254 C 
BRANCH  22  25
HETATM   25  C   UNL     1     -41.691  57.260 -51.241  1.00  0.00     0.069 A 
HETATM   26  C   UNL     1     -42.935  56.797 -51.713  1.00  0.00     0.142 A 
HETATM   27  F   UNL     1     -43.798  57.645 -52.295  1.00  0.00    -0.204 F 
HETATM   28  C   UNL     1     -43.310  55.455 -51.641  1.00  0.00     0.044 A 
HETATM   29  C   UNL     1     -42.446  54.524 -51.074  1.00  0.00     0.003 A 
HETATM   30  C   UNL     1     -41.218  54.944 -50.577  1.00  0.00     0.002 A 
HETATM   31  C   UNL     1     -40.850  56.292 -50.659  1.00  0.00     0.032 A 
ENDBRANCH  22  25
ENDBRANCH  17  18
ENDBRANCH  16  17
ENDBRANCH  15  16
ENDBRANCH  12  15
ENDBRANCH   5  11
BRANCH   1  32
HETATM   32  N   UNL     1     -43.434  56.181 -55.722  1.00  0.00    -0.341 N 
HETATM   33  H   UNL     1     -44.216  56.382 -55.109  1.00  0.00     0.167 HD
BRANCH  32  34
HETATM   34  C   UNL     1     -42.541  55.245 -55.157  1.00  0.00     0.033 A 
HETATM   35  C   UNL     1     -41.223  55.558 -54.814  1.00  0.00     0.030 A 
HETATM   36  C   UNL     1     -40.340  54.578 -54.343  1.00  0.00     0.010 A 
HETATM   37  C   UNL     1     -40.745  53.243 -54.232  1.00  0.00    -0.055 A 
HETATM   38  C   UNL     1     -42.054  52.916 -54.604  1.00  0.00     0.010 A 
HETATM   39  C   UNL     1     -42.933  53.901 -55.070  1.00  0.00     0.030 A 
BRANCH  37  40
HETATM   40  C   UNL     1     -39.805  52.163 -53.724  1.00  0.00     0.010 C 
HETATM   41  C   UNL     1     -40.163  50.797 -54.314  1.00  0.00     0.015 C 
HETATM   42  C   UNL     1     -39.774  52.105 -52.195  1.00  0.00     0.015 C 
ENDBRANCH  37  40
ENDBRANCH  32  34
ENDBRANCH   1  32
TORSDOF 9
ENDMDL
MODEL 3
REMARK VINA RESULT:      -8.2      2.297      7.037
REMARK  9 active torsions:
REMARK  status: ('A' for Active; 'I' for Inactive)
REMARK    1  A    between atoms: C_2  and  C_3 
REMARK    2  A    between atoms: C_6  and  N_7 
REMARK    3  A    between atoms: N_7  and  C_8 
REMARK    4  A    between atoms: C_12  and  C_13 
REMARK       I    between atoms: C_13  and  N_14 
REMARK    5  A    between atoms: N_14  and  C_15 
REMARK    6  A    between atoms: C_15  and  C_16 
REMARK    7  A    between atoms: C_16  and  C_17 
REMARK    8  A    between atoms: C_17  and  N_18 
REMARK    9  A    between atoms: N_22  and  C_23 
ROOT
HETATM    1  C   UNL     1     -42.816  54.635 -55.373  1.00  0.00     0.129 A 
HETATM    2  N   UNL     1     -41.969  53.605 -55.219  1.00  0.00    -0.231 NA
HETATM    3  C   UNL     1     -41.404  53.356 -54.029  1.00  0.00     0.070 A 
HETATM    4  C   UNL     1     -41.636  54.142 -52.884  1.00  0.00     0.009 A 
HETATM    5  C   UNL     1     -42.583  55.187 -53.045  1.00  0.00     0.048 A 
HETATM    6  C   UNL     1     -43.166  55.426 -54.296  1.00  0.00     0.068 A 
HETATM    7  C   UNL     1     -40.527  52.283 -53.958  1.00  0.00     0.032 A 
HETATM    8  C   UNL     1     -39.837  51.969 -52.789  1.00  0.00     0.002 A 
HETATM    9  C   UNL     1     -40.006  52.759 -51.665  1.00  0.00     0.001 A 
HETATM   10  C   UNL     1     -40.885  53.841 -51.712  1.00  0.00     0.015 A 
ENDROOT
BRANCH   5  11
HETATM   11  C   UNL     1     -42.984  56.146 -51.983  1.00  0.00     0.252 C 
HETATM   12  N   UNL     1     -44.313  56.234 -51.636  1.00  0.00    -0.357 N 
HETATM   13  H   UNL     1     -44.995  55.832 -52.276  1.00  0.00     0.162 HD
HETATM   14  O   UNL     1     -42.137  56.858 -51.442  1.00  0.00    -0.268 OA
BRANCH  12  15
HETATM   15  C   UNL     1     -44.795  57.204 -50.671  1.00  0.00     0.124 C 
BRANCH  15  16
HETATM   16  C   UNL     1     -45.298  58.514 -51.291  1.00  0.00     0.047 C 
BRANCH  16  17
HETATM   17  C   UNL     1     -44.332  59.703 -51.343  1.00  0.00     0.236 C 
BRANCH  17  18
HETATM   18  N   UNL     1     -44.256  60.368 -52.684  1.00  0.00    -0.068 N 
HETATM   19  H   UNL     1     -43.871  61.322 -52.513  1.00  0.00     0.280 HD
HETATM   20  C   UNL     1     -43.394  59.662 -53.720  1.00  0.00     0.254 C 
HETATM   21  C   UNL     1     -43.310  60.496 -55.019  1.00  0.00     0.150 C 
HETATM   22  N   UNL     1     -44.637  60.892 -55.526  1.00  0.00    -0.375 N 
HETATM   23  C   UNL     1     -45.510  61.544 -54.527  1.00  0.00     0.150 C 
HETATM   24  C   UNL     1     -45.644  60.668 -53.262  1.00  0.00     0.254 C 
BRANCH  22  25
HETATM   25  C   UNL     1     -45.275  60.134 -56.514  1.00  0.00     0.069 A 
HETATM   26  C   UNL     1     -45.716  58.806 -56.350  1.00  0.00     0.142 A 
HETATM   27  F   UNL     1     -45.580  58.187 -55.167  1.00  0.00    -0.204 F 
HETATM   28  C   UNL     1     -46.343  58.094 -57.374  1.00  0.00     0.044 A 
HETATM   29  C   UNL     1     -46.536  58.692 -58.615  1.00  0.00     0.003 A 
HETATM   30  C   UNL     1     -46.097  59.994 -58.823  1.00  0.00     0.002 A 
HETATM   31  C   UNL     1     -45.473  60.700 -57.787  1.00  0.00     0.032 A 
ENDBRANCH  22  25
ENDBRANCH  17  18
ENDBRANCH  16  17
ENDBRANCH  15  16
ENDBRANCH  12  15
ENDBRANCH   5  11
BRANCH   1  32
HETATM   32  N   UNL     1     -43.328  54.985 -56.639  1.00  0.00    -0.341 N 
HETATM   33  H   UNL     1     -43.522  54.162 -57.198  1.00  0.00     0.167 HD
BRANCH  32  34
HETATM   34  C   UNL     1     -43.045  56.115 -57.436  1.00  0.00     0.033 A 
HETATM   35  C   UNL     1     -42.469  57.283 -56.927  1.00  0.00     0.030 A 
HETATM   36  C   UNL     1     -42.290  58.417 -57.730  1.00  0.00     0.010 A 
HETATM   37  C   UNL     1     -42.715  58.425 -59.063  1.00  0.00    -0.055 A 
HETATM   38  C   UNL     1     -43.323  57.270 -59.570  1.00  0.00     0.010 A 
HETATM   39  C   UNL     1     -43.494  56.139 -58.764  1.00  0.00     0.030 A 
BRANCH  37  40
HETATM   40  C   UNL     1     -42.532  59.643 -59.952  1.00  0.00     0.010 C 
HETATM   41  C   UNL     1     -41.768  59.285 -61.229  1.00  0.00     0.015 C 
HETATM   42  C   UNL     1     -41.845  60.792 -59.211  1.00  0.00     0.015 C 
ENDBRANCH  37  40
ENDBRANCH  32  34
ENDBRANCH   1  32
TORSDOF 9
ENDMDL
MODEL 4
REMARK VINA RESULT:      -8.0      1.824      2.299
REMARK  9 active torsions:
REMARK  status: ('A' for Active; 'I' for Inactive)
REMARK    1  A    between atoms: C_2  and  C_3 
REMARK    2  A    between atoms: C_6  and  N_7 
REMARK    3  A    between atoms: N_7  and  C_8 
REMARK    4  A    between atoms: C_12  and  C_13 
REMARK       I    between atoms: C_13  and  N_14 
REMARK    5  A    between atoms: N_14  and  C_15 
REMARK    6  A    between atoms: C_15  and  C_16 
REMARK    7  A    between atoms: C_16  and  C_17 
REMARK    8  A    between atoms: C_17  and  N_18 
REMARK    9  A    between atoms: N_22  and  C_23 
ROOT
HETATM    1  C   UNL     1     -42.670  56.083 -56.095  1.00  0.00     0.129 A 
HETATM    2  N   UNL     1     -43.162  55.279 -57.050  1.00  0.00    -0.231 NA
HETATM    3  C   UNL     1     -43.508  55.771 -58.248  1.00  0.00     0.070 A 
HETATM    4  C   UNL     1     -43.401  57.134 -58.583  1.00  0.00     0.009 A 
HETATM    5  C   UNL     1     -42.819  57.961 -57.588  1.00  0.00     0.048 A 
HETATM    6  C   UNL     1     -42.458  57.425 -56.345  1.00  0.00     0.068 A 
HETATM    7  C   UNL     1     -44.024  54.875 -59.175  1.00  0.00     0.032 A 
HETATM    8  C   UNL     1     -44.473  55.285 -60.429  1.00  0.00     0.002 A 
HETATM    9  C   UNL     1     -44.428  56.628 -60.762  1.00  0.00     0.001 A 
HETATM   10  C   UNL     1     -43.911  57.546 -59.848  1.00  0.00     0.015 A 
ENDROOT
BRANCH   5  11
HETATM   11  C   UNL     1     -42.609  59.428 -57.712  1.00  0.00     0.252 C 
HETATM   12  N   UNL     1     -43.577  60.279 -57.229  1.00  0.00    -0.357 N 
HETATM   13  H   UNL     1     -44.495  59.887 -57.034  1.00  0.00     0.162 HD
HETATM   14  O   UNL     1     -41.594  59.862 -58.256  1.00  0.00    -0.268 OA
BRANCH  12  15
HETATM   15  C   UNL     1     -43.486  61.718 -57.388  1.00  0.00     0.124 C 
BRANCH  15  16
HETATM   16  C   UNL     1     -43.250  62.483 -56.080  1.00  0.00     0.047 C 
BRANCH  16  17
HETATM   17  C   UNL     1     -44.007  62.021 -54.829  1.00  0.00     0.236 C 
BRANCH  17  18
HETATM   18  N   UNL     1     -43.124  61.478 -53.747  1.00  0.00    -0.068 N 
HETATM   19  H   UNL     1     -42.320  62.137 -53.672  1.00  0.00     0.280 HD
HETATM   20  C   UNL     1     -43.775  61.329 -52.380  1.00  0.00     0.254 C 
HETATM   21  C   UNL     1     -42.740  60.864 -51.331  1.00  0.00     0.150 C 
HETATM   22  N   UNL     1     -41.993  59.668 -51.763  1.00  0.00    -0.375 N 
HETATM   23  C   UNL     1     -41.384  59.771 -53.106  1.00  0.00     0.150 C 
HETATM   24  C   UNL     1     -42.444  60.166 -54.158  1.00  0.00     0.254 C 
BRANCH  22  25
HETATM   25  C   UNL     1     -42.401  58.392 -51.357  1.00  0.00     0.069 A 
HETATM   26  C   UNL     1     -41.545  57.401 -50.837  1.00  0.00     0.142 A 
HETATM   27  F   UNL     1     -40.241  57.659 -50.654  1.00  0.00    -0.204 F 
HETATM   28  C   UNL     1     -42.007  56.141 -50.453  1.00  0.00     0.044 A 
HETATM   29  C   UNL     1     -43.353  55.824 -50.593  1.00  0.00     0.003 A 
HETATM   30  C   UNL     1     -44.227  56.768 -51.122  1.00  0.00     0.002 A 
HETATM   31  C   UNL     1     -43.754  58.030 -51.499  1.00  0.00     0.032 A 
ENDBRANCH  22  25
ENDBRANCH  17  18
ENDBRANCH  16  17
ENDBRANCH  15  16
ENDBRANCH  12  15
ENDBRANCH   5  11
BRANCH   1  32
HETATM   32  N   UNL     1     -42.411  55.608 -54.793  1.00  0.00    -0.341 N 
HETATM   33  H   UNL     1     -42.429  56.362 -54.116  1.00  0.00     0.167 HD
BRANCH  32  34
HETATM   34  C   UNL     1     -41.585  54.540 -54.381  1.00  0.00     0.033 A 
HETATM   35  C   UNL     1     -40.580  53.997 -55.186  1.00  0.00     0.030 A 
HETATM   36  C   UNL     1     -39.844  52.877 -54.778  1.00  0.00     0.010 A 
HETATM   37  C   UNL     1     -40.117  52.246 -53.559  1.00  0.00    -0.055 A 
HETATM   38  C   UNL     1     -41.144  52.765 -52.761  1.00  0.00     0.010 A 
HETATM   39  C   UNL     1     -41.872  53.887 -53.173  1.00  0.00     0.030 A 
BRANCH  37  40
HETATM   40  C   UNL     1     -39.333  51.031 -53.096  1.00  0.00     0.010 C 
HETATM   41  C   UNL     1     -39.668  49.802 -53.944  1.00  0.00     0.015 C 
HETATM   42  C   UNL     1     -39.552  50.743 -51.609  1.00  0.00     0.015 C 
ENDBRANCH  37  40
ENDBRANCH  32  34
ENDBRANCH   1  32
TORSDOF 9
ENDMDL
MODEL 5
REMARK VINA RESULT:      -7.9      2.358      7.173
REMARK  9 active torsions:
REMARK  status: ('A' for Active; 'I' for Inactive)
REMARK    1  A    between atoms: C_2  and  C_3 
REMARK    2  A    between atoms: C_6  and  N_7 
REMARK    3  A    between atoms: N_7  and  C_8 
REMARK    4  A    between atoms: C_12  and  C_13 
REMARK       I    between atoms: C_13  and  N_14 
REMARK    5  A    between atoms: N_14  and  C_15 
REMARK    6  A    between atoms: C_15  and  C_16 
REMARK    7  A    between atoms: C_16  and  C_17 
REMARK    8  A    between atoms: C_17  and  N_18 
REMARK    9  A    between atoms: N_22  and  C_23 
ROOT
HETATM    1  C   UNL     1     -41.399  55.343 -54.954  1.00  0.00     0.129 A 
HETATM    2  N   UNL     1     -40.954  54.089 -54.777  1.00  0.00    -0.231 NA
HETATM    3  C   UNL     1     -40.700  53.620 -53.547  1.00  0.00     0.070 A 
HETATM    4  C   UNL     1     -40.859  54.390 -52.379  1.00  0.00     0.009 A 
HETATM    5  C   UNL     1     -41.392  55.690 -52.575  1.00  0.00     0.048 A 
HETATM    6  C   UNL     1     -41.657  56.158 -53.869  1.00  0.00     0.068 A 
HETATM    7  C   UNL     1     -40.227  52.319 -53.451  1.00  0.00     0.032 A 
HETATM    8  C   UNL     1     -39.872  51.749 -52.230  1.00  0.00     0.002 A 
HETATM    9  C   UNL     1     -39.968  52.503 -51.074  1.00  0.00     0.001 A 
HETATM   10  C   UNL     1     -40.444  53.812 -51.144  1.00  0.00     0.015 A 
ENDROOT
BRANCH   5  11
HETATM   11  C   UNL     1     -41.642  56.682 -51.496  1.00  0.00     0.252 C 
HETATM   12  N   UNL     1     -40.935  57.863 -51.504  1.00  0.00    -0.357 N 
HETATM   13  H   UNL     1     -40.104  57.910 -52.090  1.00  0.00     0.162 HD
HETATM   14  O   UNL     1     -42.456  56.434 -50.606  1.00  0.00    -0.268 OA
BRANCH  12  15
HETATM   15  C   UNL     1     -41.060  58.843 -50.443  1.00  0.00     0.124 C 
BRANCH  15  16
HETATM   16  C   UNL     1     -41.878  60.083 -50.822  1.00  0.00     0.047 C 
BRANCH  16  17
HETATM   17  C   UNL     1     -43.383  59.909 -51.055  1.00  0.00     0.236 C 
BRANCH  17  18
HETATM   18  N   UNL     1     -43.903  60.639 -52.255  1.00  0.00    -0.068 N 
HETATM   19  H   UNL     1     -44.738  61.172 -51.931  1.00  0.00     0.280 HD
HETATM   20  C   UNL     1     -42.925  61.600 -52.916  1.00  0.00     0.254 C 
HETATM   21  C   UNL     1     -43.609  62.367 -54.070  1.00  0.00     0.150 C 
HETATM   22  N   UNL     1     -44.289  61.469 -55.023  1.00  0.00    -0.375 N 
HETATM   23  C   UNL     1     -45.215  60.498 -54.403  1.00  0.00     0.150 C 
HETATM   24  C   UNL     1     -44.500  59.688 -53.300  1.00  0.00     0.254 C 
BRANCH  22  25
HETATM   25  C   UNL     1     -43.644  61.059 -56.195  1.00  0.00     0.069 A 
HETATM   26  C   UNL     1     -42.397  60.406 -56.241  1.00  0.00     0.142 A 
HETATM   27  F   UNL     1     -41.754  60.090 -55.105  1.00  0.00    -0.204 F 
HETATM   28  C   UNL     1     -41.797  60.023 -57.441  1.00  0.00     0.044 A 
HETATM   29  C   UNL     1     -42.427  60.298 -58.650  1.00  0.00     0.003 A 
HETATM   30  C   UNL     1     -43.650  60.960 -58.648  1.00  0.00     0.002 A 
HETATM   31  C   UNL     1     -44.244  61.335 -57.438  1.00  0.00     0.032 A 
ENDBRANCH  22  25
ENDBRANCH  17  18
ENDBRANCH  16  17
ENDBRANCH  15  16
ENDBRANCH  12  15
ENDBRANCH   5  11
BRANCH   1  32
HETATM   32  N   UNL     1     -41.560  55.892 -56.242  1.00  0.00    -0.341 N 
HETATM   33  H   UNL     1     -40.691  56.280 -56.588  1.00  0.00     0.167 HD
BRANCH  32  34
HETATM   34  C   UNL     1     -42.689  56.525 -56.808  1.00  0.00     0.033 A 
HETATM   35  C   UNL     1     -43.708  57.097 -56.041  1.00  0.00     0.030 A 
HETATM   36  C   UNL     1     -44.856  57.632 -56.638  1.00  0.00     0.010 A 
HETATM   37  C   UNL     1     -45.033  57.580 -58.025  1.00  0.00    -0.055 A 
HETATM   38  C   UNL     1     -44.031  56.980 -58.797  1.00  0.00     0.010 A 
HETATM   39  C   UNL     1     -42.884  56.451 -58.195  1.00  0.00     0.030 A 
BRANCH  37  40
HETATM   40  C   UNL     1     -46.270  58.154 -58.694  1.00  0.00     0.010 C 
HETATM   41  C   UNL     1     -47.230  58.749 -57.662  1.00  0.00     0.015 C 
HETATM   42  C   UNL     1     -46.981  57.115 -59.565  1.00  0.00     0.015 C 
ENDBRANCH  37  40
ENDBRANCH  32  34
ENDBRANCH   1  32
TORSDOF 9
ENDMDL
MODEL 6
REMARK VINA RESULT:      -7.9      2.508      6.924
REMARK  9 active torsions:
REMARK  status: ('A' for Active; 'I' for Inactive)
REMARK    1  A    between atoms: C_2  and  C_3 
REMARK    2  A    between atoms: C_6  and  N_7 
REMARK    3  A    between atoms: N_7  and  C_8 
REMARK    4  A    between atoms: C_12  and  C_13 
REMARK       I    between atoms: C_13  and  N_14 
REMARK    5  A    between atoms: N_14  and  C_15 
REMARK    6  A    between atoms: C_15  and  C_16 
REMARK    7  A    between atoms: C_16  and  C_17 
REMARK    8  A    between atoms: C_17  and  N_18 
REMARK    9  A    between atoms: N_22  and  C_23 
ROOT
HETATM    1  C   UNL     1     -44.325  57.257 -53.046  1.00  0.00     0.129 A 
HETATM    2  N   UNL     1     -44.919  57.618 -51.898  1.00  0.00    -0.231 NA
HETATM    3  C   UNL     1     -44.861  58.885 -51.466  1.00  0.00     0.070 A 
HETATM    4  C   UNL     1     -44.177  59.906 -52.155  1.00  0.00     0.009 A 
HETATM    5  C   UNL     1     -43.610  59.525 -53.399  1.00  0.00     0.048 A 
HETATM    6  C   UNL     1     -43.688  58.196 -53.834  1.00  0.00     0.068 A 
HETATM    7  C   UNL     1     -45.487  59.172 -50.261  1.00  0.00     0.032 A 
HETATM    8  C   UNL     1     -45.439  60.441 -49.687  1.00  0.00     0.002 A 
HETATM    9  C   UNL     1     -44.728  61.447 -50.318  1.00  0.00     0.001 A 
HETATM   10  C   UNL     1     -44.093  61.183 -51.531  1.00  0.00     0.015 A 
ENDROOT
BRANCH   5  11
HETATM   11  C   UNL     1     -42.840  60.425 -54.297  1.00  0.00     0.252 C 
HETATM   12  N   UNL     1     -43.527  61.313 -55.093  1.00  0.00    -0.357 N 
HETATM   13  H   UNL     1     -44.524  61.156 -55.224  1.00  0.00     0.162 HD
HETATM   14  O   UNL     1     -41.611  60.357 -54.334  1.00  0.00    -0.268 OA
BRANCH  12  15
HETATM   15  C   UNL     1     -42.854  62.164 -56.056  1.00  0.00     0.124 C 
BRANCH  15  16
HETATM   16  C   UNL     1     -42.757  61.567 -57.466  1.00  0.00     0.047 C 
BRANCH  16  17
HETATM   17  C   UNL     1     -41.458  60.854 -57.858  1.00  0.00     0.236 C 
BRANCH  17  18
HETATM   18  N   UNL     1     -41.653  59.442 -58.321  1.00  0.00    -0.068 N 
HETATM   19  H   UNL     1     -40.699  59.028 -58.398  1.00  0.00     0.280 HD
HETATM   20  C   UNL     1     -42.505  58.565 -57.416  1.00  0.00     0.254 C 
HETATM   21  C   UNL     1     -42.543  57.113 -57.942  1.00  0.00     0.150 C 
HETATM   22  N   UNL     1     -42.922  57.035 -59.365  1.00  0.00    -0.375 N 
HETATM   23  C   UNL     1     -42.136  57.909 -60.262  1.00  0.00     0.150 C 
HETATM   24  C   UNL     1     -42.165  59.371 -59.764  1.00  0.00     0.254 C 
BRANCH  22  25
HETATM   25  C   UNL     1     -44.250  56.793 -59.734  1.00  0.00     0.069 A 
HETATM   26  C   UNL     1     -45.345  57.605 -59.379  1.00  0.00     0.142 A 
HETATM   27  F   UNL     1     -45.154  58.731 -58.673  1.00  0.00    -0.204 F 
HETATM   28  C   UNL     1     -46.652  57.312 -59.772  1.00  0.00     0.044 A 
HETATM   29  C   UNL     1     -46.909  56.174 -60.529  1.00  0.00     0.003 A 
HETATM   30  C   UNL     1     -45.857  55.336 -60.882  1.00  0.00     0.002 A 
HETATM   31  C   UNL     1     -44.550  55.642 -60.487  1.00  0.00     0.032 A 
ENDBRANCH  22  25
ENDBRANCH  17  18
ENDBRANCH  16  17
ENDBRANCH  15  16
ENDBRANCH  12  15
ENDBRANCH   5  11
BRANCH   1  32
HETATM   32  N   UNL     1     -44.274  55.910 -53.458  1.00  0.00    -0.341 N 
HETATM   33  H   UNL     1     -45.135  55.424 -53.234  1.00  0.00     0.167 HD
BRANCH  32  34
HETATM   34  C   UNL     1     -43.168  55.035 -53.517  1.00  0.00     0.033 A 
HETATM   35  C   UNL     1     -42.780  54.372 -54.685  1.00  0.00     0.030 A 
HETATM   36  C   UNL     1     -41.734  53.440 -54.681  1.00  0.00     0.010 A 
HETATM   37  C   UNL     1     -41.064  53.120 -53.494  1.00  0.00    -0.055 A 
HETATM   38  C   UNL     1     -41.469  53.756 -52.315  1.00  0.00     0.010 A 
HETATM   39  C   UNL     1     -42.512  54.690 -52.326  1.00  0.00     0.030 A 
BRANCH  37  40
HETATM   40  C   UNL     1     -39.928  52.113 -53.466  1.00  0.00     0.010 C 
HETATM   41  C   UNL     1     -40.264  50.878 -54.305  1.00  0.00     0.015 C 
HETATM   42  C   UNL     1     -39.554  51.715 -52.036  1.00  0.00     0.015 C 
ENDBRANCH  37  40
ENDBRANCH  32  34
ENDBRANCH   1  32
TORSDOF 9
ENDMDL
MODEL 7
REMARK VINA RESULT:      -7.6      2.450      6.510
REMARK  9 active torsions:
REMARK  status: ('A' for Active; 'I' for Inactive)
REMARK    1  A    between atoms: C_2  and  C_3 
REMARK    2  A    between atoms: C_6  and  N_7 
REMARK    3  A    between atoms: N_7  and  C_8 
REMARK    4  A    between atoms: C_12  and  C_13 
REMARK       I    between atoms: C_13  and  N_14 
REMARK    5  A    between atoms: N_14  and  C_15 
REMARK    6  A    between atoms: C_15  and  C_16 
REMARK    7  A    between atoms: C_16  and  C_17 
REMARK    8  A    between atoms: C_17  and  N_18 
REMARK    9  A    between atoms: N_22  and  C_23 
ROOT
HETATM    1  C   UNL     1     -42.147  56.497 -52.055  1.00  0.00     0.129 A 
HETATM    2  N   UNL     1     -43.170  56.946 -51.309  1.00  0.00    -0.231 NA
HETATM    3  C   UNL     1     -44.005  57.881 -51.784  1.00  0.00     0.070 A 
HETATM    4  C   UNL     1     -43.870  58.461 -53.060  1.00  0.00     0.009 A 
HETATM    5  C   UNL     1     -42.826  57.931 -53.862  1.00  0.00     0.048 A 
HETATM    6  C   UNL     1     -41.969  56.949 -53.348  1.00  0.00     0.068 A 
HETATM    7  C   UNL     1     -45.025  58.303 -50.943  1.00  0.00     0.032 A 
HETATM    8  C   UNL     1     -45.914  59.312 -51.308  1.00  0.00     0.002 A 
HETATM    9  C   UNL     1     -45.769  59.935 -52.536  1.00  0.00     0.001 A 
HETATM   10  C   UNL     1     -44.753  59.526 -53.399  1.00  0.00     0.015 A 
ENDROOT
BRANCH   5  11
HETATM   11  C   UNL     1     -42.490  58.387 -55.236  1.00  0.00     0.252 C 
HETATM   12  N   UNL     1     -42.164  59.709 -55.435  1.00  0.00    -0.357 N 
HETATM   13  H   UNL     1     -42.402  60.369 -54.698  1.00  0.00     0.162 HD
HETATM   14  O   UNL     1     -42.524  57.592 -56.176  1.00  0.00    -0.268 OA
BRANCH  12  15
HETATM   15  C   UNL     1     -41.906  60.249 -56.756  1.00  0.00     0.124 C 
BRANCH  15  16
HETATM   16  C   UNL     1     -42.694  61.524 -57.081  1.00  0.00     0.047 C 
BRANCH  16  17
HETATM   17  C   UNL     1     -44.198  61.537 -56.783  1.00  0.00     0.236 C 
BRANCH  17  18
HETATM   18  N   UNL     1     -45.017  60.734 -57.748  1.00  0.00    -0.068 N 
HETATM   19  H   UNL     1     -45.900  61.268 -57.893  1.00  0.00     0.280 HD
HETATM   20  C   UNL     1     -44.369  60.468 -59.099  1.00  0.00     0.254 C 
HETATM   21  C   UNL     1     -45.347  59.728 -60.038  1.00  0.00     0.150 C 
HETATM   22  N   UNL     1     -45.929  58.524 -59.415  1.00  0.00    -0.375 N 
HETATM   23  C   UNL     1     -46.531  58.747 -58.083  1.00  0.00     0.150 C 
HETATM   24  C   UNL     1     -45.518  59.422 -57.132  1.00  0.00     0.254 C 
BRANCH  22  25
HETATM   25  C   UNL     1     -45.366  57.264 -59.645  1.00  0.00     0.069 A 
HETATM   26  C   UNL     1     -46.092  56.112 -60.006  1.00  0.00     0.142 A 
HETATM   27  F   UNL     1     -47.418  56.179 -60.204  1.00  0.00    -0.204 F 
HETATM   28  C   UNL     1     -45.477  54.877 -60.218  1.00  0.00     0.044 A 
HETATM   29  C   UNL     1     -44.102  54.750 -60.056  1.00  0.00     0.003 A 
HETATM   30  C   UNL     1     -43.353  55.860 -59.679  1.00  0.00     0.002 A 
HETATM   31  C   UNL     1     -43.979  57.094 -59.474  1.00  0.00     0.032 A 
ENDBRANCH  22  25
ENDBRANCH  17  18
ENDBRANCH  16  17
ENDBRANCH  15  16
ENDBRANCH  12  15
ENDBRANCH   5  11
BRANCH   1  32
HETATM   32  N   UNL     1     -41.191  55.603 -51.533  1.00  0.00    -0.341 N 
HETATM   33  H   UNL     1     -40.467  56.096 -51.023  1.00  0.00     0.167 HD
BRANCH  32  34
HETATM   34  C   UNL     1     -40.731  54.378 -52.063  1.00  0.00     0.033 A 
HETATM   35  C   UNL     1     -40.924  54.003 -53.395  1.00  0.00     0.030 A 
HETATM   36  C   UNL     1     -40.536  52.740 -53.860  1.00  0.00     0.010 A 
HETATM   37  C   UNL     1     -39.969  51.800 -52.992  1.00  0.00    -0.055 A 
HETATM   38  C   UNL     1     -39.803  52.157 -51.648  1.00  0.00     0.010 A 
HETATM   39  C   UNL     1     -40.189  53.423 -51.191  1.00  0.00     0.030 A 
BRANCH  37  40
HETATM   40  C   UNL     1     -39.541  50.425 -53.473  1.00  0.00     0.010 C 
HETATM   41  C   UNL     1     -40.408  49.955 -54.643  1.00  0.00     0.015 C 
HETATM   42  C   UNL     1     -39.549  49.395 -52.340  1.00  0.00     0.015 C 
ENDBRANCH  37  40
ENDBRANCH  32  34
ENDBRANCH   1  32
TORSDOF 9
ENDMDL
MODEL 8
REMARK VINA RESULT:      -7.6      1.729      2.530
REMARK  9 active torsions:
REMARK  status: ('A' for Active; 'I' for Inactive)
REMARK    1  A    between atoms: C_2  and  C_3 
REMARK    2  A    between atoms: C_6  and  N_7 
REMARK    3  A    between atoms: N_7  and  C_8 
REMARK    4  A    between atoms: C_12  and  C_13 
REMARK       I    between atoms: C_13  and  N_14 
REMARK    5  A    between atoms: N_14  and  C_15 
REMARK    6  A    between atoms: C_15  and  C_16 
REMARK    7  A    between atoms: C_16  and  C_17 
REMARK    8  A    between atoms: C_17  and  N_18 
REMARK    9  A    between atoms: N_22  and  C_23 
ROOT
HETATM    1  C   UNL     1     -43.075  56.436 -57.820  1.00  0.00     0.129 A 
HETATM    2  N   UNL     1     -43.863  55.741 -58.656  1.00  0.00    -0.231 NA
HETATM    3  C   UNL     1     -44.851  56.347 -59.328  1.00  0.00     0.070 A 
HETATM    4  C   UNL     1     -45.143  57.719 -59.201  1.00  0.00     0.009 A 
HETATM    5  C   UNL     1     -44.263  58.454 -58.366  1.00  0.00     0.048 A 
HETATM    6  C   UNL     1     -43.232  57.801 -57.678  1.00  0.00     0.068 A 
HETATM    7  C   UNL     1     -45.631  55.555 -60.159  1.00  0.00     0.032 A 
HETATM    8  C   UNL     1     -46.722  56.066 -60.858  1.00  0.00     0.002 A 
HETATM    9  C   UNL     1     -47.063  57.399 -60.708  1.00  0.00     0.001 A 
HETATM   10  C   UNL     1     -46.292  58.216 -59.880  1.00  0.00     0.015 A 
ENDROOT
BRANCH   5  11
HETATM   11  C   UNL     1     -44.374  59.907 -58.076  1.00  0.00     0.252 C 
HETATM   12  N   UNL     1     -45.482  60.366 -57.400  1.00  0.00    -0.357 N 
HETATM   13  H   UNL     1     -46.289  59.748 -57.343  1.00  0.00     0.162 HD
HETATM   14  O   UNL     1     -43.495  60.682 -58.455  1.00  0.00    -0.268 OA
BRANCH  12  15
HETATM   15  C   UNL     1     -45.706  61.778 -57.154  1.00  0.00     0.124 C 
BRANCH  15  16
HETATM   16  C   UNL     1     -46.417  62.082 -55.830  1.00  0.00     0.047 C 
BRANCH  16  17
HETATM   17  C   UNL     1     -45.611  62.769 -54.722  1.00  0.00     0.236 C 
BRANCH  17  18
HETATM   18  N   UNL     1     -45.280  61.876 -53.565  1.00  0.00    -0.068 N 
HETATM   19  H   UNL     1     -45.870  62.201 -52.770  1.00  0.00     0.280 HD
HETATM   20  C   UNL     1     -45.522  60.391 -53.790  1.00  0.00     0.254 C 
HETATM   21  C   UNL     1     -45.246  59.590 -52.498  1.00  0.00     0.150 C 
HETATM   22  N   UNL     1     -43.925  59.891 -51.916  1.00  0.00    -0.375 N 
HETATM   23  C   UNL     1     -43.647  61.330 -51.723  1.00  0.00     0.150 C 
HETATM   24  C   UNL     1     -43.857  62.109 -53.041  1.00  0.00     0.254 C 
BRANCH  22  25
HETATM   25  C   UNL     1     -42.824  59.074 -52.195  1.00  0.00     0.069 A 
HETATM   26  C   UNL     1     -42.195  58.972 -53.451  1.00  0.00     0.142 A 
HETATM   27  F   UNL     1     -42.612  59.724 -54.482  1.00  0.00    -0.204 F 
HETATM   28  C   UNL     1     -41.101  58.135 -53.674  1.00  0.00     0.044 A 
HETATM   29  C   UNL     1     -40.605  57.352 -52.638  1.00  0.00     0.003 A 
HETATM   30  C   UNL     1     -41.211  57.408 -51.388  1.00  0.00     0.002 A 
HETATM   31  C   UNL     1     -42.305  58.255 -51.174  1.00  0.00     0.032 A 
ENDBRANCH  22  25
ENDBRANCH  17  18
ENDBRANCH  16  17
ENDBRANCH  15  16
ENDBRANCH  12  15
ENDBRANCH   5  11
BRANCH   1  32
HETATM   32  N   UNL     1     -42.108  55.797 -57.018  1.00  0.00    -0.341 N 
HETATM   33  H   UNL     1     -41.435  55.293 -57.584  1.00  0.00     0.167 HD
BRANCH  32  34
HETATM   34  C   UNL     1     -42.245  55.240 -55.728  1.00  0.00     0.033 A 
HETATM   35  C   UNL     1     -43.324  55.520 -54.886  1.00  0.00     0.030 A 
HETATM   36  C   UNL     1     -43.377  55.022 -53.578  1.00  0.00     0.010 A 
HETATM   37  C   UNL     1     -42.329  54.251 -53.062  1.00  0.00    -0.055 A 
HETATM   38  C   UNL     1     -41.229  53.994 -53.889  1.00  0.00     0.010 A 
HETATM   39  C   UNL     1     -41.185  54.491 -55.197  1.00  0.00     0.030 A 
BRANCH  37  40
HETATM   40  C   UNL     1     -42.364  53.701 -51.647  1.00  0.00     0.010 C 
HETATM   41  C   UNL     1     -43.387  54.449 -50.789  1.00  0.00     0.015 C 
HETATM   42  C   UNL     1     -40.982  53.724 -50.991  1.00  0.00     0.015 C 
ENDBRANCH  37  40
ENDBRANCH  32  34
ENDBRANCH   1  32
TORSDOF 9
ENDMDL
MODEL 9
REMARK VINA RESULT:      -7.5      4.567     10.535
REMARK  9 active torsions:
REMARK  status: ('A' for Active; 'I' for Inactive)
REMARK    1  A    between atoms: C_2  and  C_3 
REMARK    2  A    between atoms: C_6  and  N_7 
REMARK    3  A    between atoms: N_7  and  C_8 
REMARK    4  A    between atoms: C_12  and  C_13 
REMARK       I    between atoms: C_13  and  N_14 
REMARK    5  A    between atoms: N_14  and  C_15 
REMARK    6  A    between atoms: C_15  and  C_16 
REMARK    7  A    between atoms: C_16  and  C_17 
REMARK    8  A    between atoms: C_17  and  N_18 
REMARK    9  A    between atoms: N_22  and  C_23 
ROOT
HETATM    1  C   UNL     1     -47.468  63.566 -50.317  1.00  0.00     0.129 A 
HETATM    2  N   UNL     1     -47.099  63.892 -49.068  1.00  0.00    -0.231 NA
HETATM    3  C   UNL     1     -46.352  63.056 -48.334  1.00  0.00     0.070 A 
HETATM    4  C   UNL     1     -45.920  61.798 -48.797  1.00  0.00     0.009 A 
HETATM    5  C   UNL     1     -46.261  61.494 -50.140  1.00  0.00     0.048 A 
HETATM    6  C   UNL     1     -47.037  62.386 -50.892  1.00  0.00     0.068 A 
HETATM    7  C   UNL     1     -46.028  63.461 -47.047  1.00  0.00     0.032 A 
HETATM    8  C   UNL     1     -45.308  62.647 -46.175  1.00  0.00     0.002 A 
HETATM    9  C   UNL     1     -44.919  61.384 -46.587  1.00  0.00     0.001 A 
HETATM   10  C   UNL     1     -45.230  60.956 -47.878  1.00  0.00     0.015 A 
ENDROOT
BRANCH   5  11
HETATM   11  C   UNL     1     -45.920  60.229 -50.843  1.00  0.00     0.252 C 
HETATM   12  N   UNL     1     -45.096  60.282 -51.943  1.00  0.00    -0.357 N 
HETATM   13  H   UNL     1     -44.952  61.190 -52.381  1.00  0.00     0.162 HD
HETATM   14  O   UNL     1     -46.388  59.160 -50.450  1.00  0.00    -0.268 OA
BRANCH  12  15
HETATM   15  C   UNL     1     -44.786  59.105 -52.732  1.00  0.00     0.124 C 
BRANCH  15  16
HETATM   16  C   UNL     1     -43.338  58.617 -52.593  1.00  0.00     0.047 C 
BRANCH  16  17
HETATM   17  C   UNL     1     -42.729  58.561 -51.187  1.00  0.00     0.236 C 
BRANCH  17  18
HETATM   18  N   UNL     1     -42.645  57.179 -50.613  1.00  0.00    -0.068 N 
HETATM   19  H   UNL     1     -43.018  57.245 -49.642  1.00  0.00     0.280 HD
HETATM   20  C   UNL     1     -43.413  56.105 -51.369  1.00  0.00     0.254 C 
HETATM   21  C   UNL     1     -43.338  54.753 -50.625  1.00  0.00     0.150 C 
HETATM   22  N   UNL     1     -41.953  54.365 -50.293  1.00  0.00    -0.375 N 
HETATM   23  C   UNL     1     -41.171  55.407 -49.593  1.00  0.00     0.150 C 
HETATM   24  C   UNL     1     -41.196  56.734 -50.384  1.00  0.00     0.254 C 
BRANCH  22  25
HETATM   25  C   UNL     1     -41.238  53.503 -51.131  1.00  0.00     0.069 A 
HETATM   26  C   UNL     1     -40.414  52.451 -50.687  1.00  0.00     0.142 A 
HETATM   27  F   UNL     1     -40.304  52.180 -49.377  1.00  0.00    -0.204 F 
HETATM   28  C   UNL     1     -39.717  51.623 -51.569  1.00  0.00     0.044 A 
HETATM   29  C   UNL     1     -39.813  51.835 -52.940  1.00  0.00     0.003 A 
HETATM   30  C   UNL     1     -40.600  52.878 -53.417  1.00  0.00     0.002 A 
HETATM   31  C   UNL     1     -41.298  53.698 -52.523  1.00  0.00     0.032 A 
ENDBRANCH  22  25
ENDBRANCH  17  18
ENDBRANCH  16  17
ENDBRANCH  15  16
ENDBRANCH  12  15
ENDBRANCH   5  11
BRANCH   1  32
HETATM   32  N   UNL     1     -48.348  64.377 -51.061  1.00  0.00    -0.341 N 
HETATM   33  H   UNL     1     -48.459  65.289 -50.633  1.00  0.00     0.167 HD
BRANCH  32  34
HETATM   34  C   UNL     1     -49.478  64.004 -51.822  1.00  0.00     0.033 A 
HETATM   35  C   UNL     1     -49.683  64.425 -53.139  1.00  0.00     0.030 A 
HETATM   36  C   UNL     1     -50.861  64.111 -53.829  1.00  0.00     0.010 A 
HETATM   37  C   UNL     1     -51.886  63.390 -53.205  1.00  0.00    -0.055 A 
HETATM   38  C   UNL     1     -51.701  62.994 -51.876  1.00  0.00     0.010 A 
HETATM   39  C   UNL     1     -50.519  63.307 -51.193  1.00  0.00     0.030 A 
BRANCH  37  40
HETATM   40  C   UNL     1     -53.172  63.039 -53.933  1.00  0.00     0.010 C 
HETATM   41  C   UNL     1     -53.013  61.751 -54.744  1.00  0.00     0.015 C 
HETATM   42  C   UNL     1     -53.656  64.186 -54.822  1.00  0.00     0.015 C 
ENDBRANCH  37  40
ENDBRANCH  32  34
ENDBRANCH   1  32
TORSDOF 9
ENDMDL
MODEL 10
REMARK VINA RESULT:      -7.4      2.105      3.182
REMARK  9 active torsions:
REMARK  status: ('A' for Active; 'I' for Inactive)
REMARK    1  A    between atoms: C_2  and  C_3 
REMARK    2  A    between atoms: C_6  and  N_7 
REMARK    3  A    between atoms: N_7  and  C_8 
REMARK    4  A    between atoms: C_12  and  C_13 
REMARK       I    between atoms: C_13  and  N_14 
REMARK    5  A    between atoms: N_14  and  C_15 
REMARK    6  A    between atoms: C_15  and  C_16 
REMARK    7  A    between atoms: C_16  and  C_17 
REMARK    8  A    between atoms: C_17  and  N_18 
REMARK    9  A    between atoms: N_22  and  C_23 
ROOT
HETATM    1  C   UNL     1     -43.984  56.753 -55.006  1.00  0.00     0.129 A 
HETATM    2  N   UNL     1     -43.499  56.080 -56.062  1.00  0.00    -0.231 NA
HETATM    3  C   UNL     1     -43.437  56.655 -57.270  1.00  0.00     0.070 A 
HETATM    4  C   UNL     1     -43.878  57.969 -57.524  1.00  0.00     0.009 A 
HETATM    5  C   UNL     1     -44.326  58.690 -56.388  1.00  0.00     0.048 A 
HETATM    6  C   UNL     1     -44.377  58.071 -55.132  1.00  0.00     0.068 A 
HETATM    7  C   UNL     1     -42.939  55.886 -58.312  1.00  0.00     0.032 A 
HETATM    8  C   UNL     1     -42.885  56.360 -59.622  1.00  0.00     0.002 A 
HETATM    9  C   UNL     1     -43.362  57.628 -59.907  1.00  0.00     0.001 A 
HETATM   10  C   UNL     1     -43.865  58.421 -58.875  1.00  0.00     0.015 A 
ENDROOT
BRANCH   5  11
HETATM   11  C   UNL     1     -44.841  60.084 -56.411  1.00  0.00     0.252 C 
HETATM   12  N   UNL     1     -46.193  60.295 -56.260  1.00  0.00    -0.357 N 
HETATM   13  H   UNL     1     -46.811  59.496 -56.387  1.00  0.00     0.162 HD
HETATM   14  O   UNL     1     -44.066  61.026 -56.580  1.00  0.00    -0.268 OA
BRANCH  12  15
HETATM   15  C   UNL     1     -46.783  61.616 -56.355  1.00  0.00     0.124 C 
BRANCH  15  16
HETATM   16  C   UNL     1     -47.016  62.301 -55.003  1.00  0.00     0.047 C 
BRANCH  16  17
HETATM   17  C   UNL     1     -45.899  63.189 -54.443  1.00  0.00     0.236 C 
BRANCH  17  18
HETATM   18  N   UNL     1     -45.317  62.695 -53.153  1.00  0.00    -0.068 N 
HETATM   19  H   UNL     1     -45.801  63.223 -52.396  1.00  0.00     0.280 HD
HETATM   20  C   UNL     1     -45.464  61.203 -52.893  1.00  0.00     0.254 C 
HETATM   21  C   UNL     1     -44.924  60.837 -51.492  1.00  0.00     0.150 C 
HETATM   22  N   UNL     1     -43.558  61.344 -51.262  1.00  0.00    -0.375 N 
HETATM   23  C   UNL     1     -43.377  62.784 -51.546  1.00  0.00     0.150 C 
HETATM   24  C   UNL     1     -43.855  63.123 -52.975  1.00  0.00     0.254 C 
BRANCH  22  25
HETATM   25  C   UNL     1     -42.449  60.520 -51.479  1.00  0.00     0.069 A 
HETATM   26  C   UNL     1     -42.008  60.081 -52.743  1.00  0.00     0.142 A 
HETATM   27  F   UNL     1     -42.633  60.488 -53.859  1.00  0.00    -0.204 F 
HETATM   28  C   UNL     1     -40.895  59.253 -52.901  1.00  0.00     0.044 A 
HETATM   29  C   UNL     1     -40.190  58.820 -51.783  1.00  0.00     0.003 A 
HETATM   30  C   UNL     1     -40.606  59.214 -50.517  1.00  0.00     0.002 A 
HETATM   31  C   UNL     1     -41.720  60.049 -50.371  1.00  0.00     0.032 A 
ENDBRANCH  22  25
ENDBRANCH  17  18
ENDBRANCH  16  17
ENDBRANCH  15  16
ENDBRANCH  12  15
ENDBRANCH   5  11
BRANCH   1  32
HETATM   32  N   UNL     1     -44.167  56.129 -53.755  1.00  0.00    -0.341 N 
HETATM   33  H   UNL     1     -44.910  56.573 -53.228  1.00  0.00     0.167 HD
BRANCH  32  34
HETATM   34  C   UNL     1     -43.212  55.514 -52.917  1.00  0.00     0.033 A 
HETATM   35  C   UNL     1     -42.710  56.117 -51.760  1.00  0.00     0.030 A 
HETATM   36  C   UNL     1     -41.695  55.515 -51.006  1.00  0.00     0.010 A 
HETATM   37  C   UNL     1     -41.129  54.300 -51.407  1.00  0.00    -0.055 A 
HETATM   38  C   UNL     1     -41.604  53.706 -52.582  1.00  0.00     0.010 A 
HETATM   39  C   UNL     1     -42.622  54.311 -53.330  1.00  0.00     0.030 A 
BRANCH  37  40
HETATM   40  C   UNL     1     -40.027  53.629 -50.606  1.00  0.00     0.010 C 
HETATM   41  C   UNL     1     -40.245  52.116 -50.527  1.00  0.00     0.015 C 
HETATM   42  C   UNL     1     -39.890  54.234 -49.206  1.00  0.00     0.015 C 
ENDBRANCH  37  40
ENDBRANCH  32  34
ENDBRANCH   1  32
TORSDOF 9
ENDMDL
