MODEL 1
REMARK VINA RESULT:      -7.1      0.000      0.000
REMARK  6 active torsions:
REMARK  status: ('A' for Active; 'I' for Inactive)
REMARK    1  A    between atoms: C_2  and  O_3 
REMARK    2  A    between atoms: O_3  and  C_4 
REMARK    3  A    between atoms: C_4  and  C_5 
REMARK    4  A    between atoms: C_10  and  C_11 
REMARK    5  A    between atoms: C_11  and  N_12 
REMARK    6  A    between atoms: C_11  and  C_16 
ROOT
HETATM    1  C   UNL     1     -41.892  55.437 -55.446  1.00  0.00     0.118 A 
HETATM    2  N   UNL     1     -41.111  54.337 -55.702  1.00  0.00    -0.350 N 
HETATM    3  H   UNL     1     -40.835  54.039 -56.630  1.00  0.00     0.166 HD
HETATM    4  C   UNL     1     -40.783  53.689 -54.541  1.00  0.00     0.043 A 
HETATM    5  C   UNL     1     -41.336  54.411 -53.483  1.00  0.00     0.002 A 
HETATM    6  C   UNL     1     -42.036  55.541 -54.056  1.00  0.00     0.022 A 
HETATM    7  C   UNL     1     -40.032  52.520 -54.366  1.00  0.00     0.030 A 
HETATM    8  C   UNL     1     -39.832  52.063 -53.064  1.00  0.00     0.002 A 
HETATM    9  C   UNL     1     -40.359  52.755 -51.982  1.00  0.00     0.001 A 
HETATM   10  C   UNL     1     -41.106  53.925 -52.175  1.00  0.00     0.014 A 
ENDROOT
BRANCH   6  11
HETATM   11  C   UNL     1     -42.816  56.624 -53.359  1.00  0.00     0.252 C 
BRANCH  11  12
HETATM   12  N   UNL     1     -43.898  56.142 -52.477  1.00  0.00    -0.067 N 
HETATM   13  H   UNL     1     -43.517  55.563 -51.728  1.00  0.00     0.275 HD
HETATM   14  H   UNL     1     -44.366  56.943 -52.040  1.00  0.00     0.275 HD
HETATM   15  H   UNL     1     -44.584  55.604 -53.015  1.00  0.00     0.275 HD
ENDBRANCH  11  12
BRANCH  11  16
HETATM   16  C   UNL     1     -41.837  57.492 -52.596  1.00  0.00    -0.024 A 
HETATM   17  C   UNL     1     -41.891  57.512 -51.189  1.00  0.00     0.009 A 
HETATM   18  C   UNL     1     -40.971  58.252 -50.446  1.00  0.00     0.001 A 
HETATM   19  C   UNL     1     -39.979  58.983 -51.091  1.00  0.00     0.000 A 
HETATM   20  C   UNL     1     -39.908  58.980 -52.480  1.00  0.00     0.001 A 
HETATM   21  C   UNL     1     -40.826  58.239 -53.229  1.00  0.00     0.009 A 
ENDBRANCH  11  16
ENDBRANCH   6  11
BRANCH   1  22
HETATM   22  C   UNL     1     -42.435  56.286 -56.485  1.00  0.00     0.310 C 
HETATM   23  O   UNL     1     -42.269  57.497 -56.538  1.00  0.00    -0.258 OA
BRANCH  22  24
HETATM   24  O   UNL     1     -43.173  55.541 -57.348  1.00  0.00    -0.317 OA
BRANCH  24  25
HETATM   25  C   UNL     1     -43.154  55.964 -58.721  1.00  0.00     0.175 C 
HETATM   26  C   UNL     1     -44.021  55.044 -59.561  1.00  0.00     0.034 C 
ENDBRANCH  24  25
ENDBRANCH  22  24
ENDBRANCH   1  22
TORSDOF 6
ENDMDL
MODEL 2
REMARK VINA RESULT:      -7.0      1.279      1.693
REMARK  6 active torsions:
REMARK  status: ('A' for Active; 'I' for Inactive)
REMARK    1  A    between atoms: C_2  and  O_3 
REMARK    2  A    between atoms: O_3  and  C_4 
REMARK    3  A    between atoms: C_4  and  C_5 
REMARK    4  A    between atoms: C_10  and  C_11 
REMARK    5  A    between atoms: C_11  and  N_12 
REMARK    6  A    between atoms: C_11  and  C_16 
ROOT
HETATM    1  C   UNL     1     -41.971  54.221 -54.628  1.00  0.00     0.118 A 
HETATM    2  N   UNL     1     -41.113  53.150 -54.672  1.00  0.00    -0.350 N 
HETATM    3  H   UNL     1     -40.862  52.656 -55.520  1.00  0.00     0.166 HD
HETATM    4  C   UNL     1     -40.668  52.826 -53.418  1.00  0.00     0.043 A 
HETATM    5  C   UNL     1     -41.224  53.742 -52.524  1.00  0.00     0.002 A 
HETATM    6  C   UNL     1     -42.048  54.647 -53.296  1.00  0.00     0.022 A 
HETATM    7  C   UNL     1     -39.810  51.791 -53.026  1.00  0.00     0.030 A 
HETATM    8  C   UNL     1     -39.502  51.679 -51.671  1.00  0.00     0.002 A 
HETATM    9  C   UNL     1     -40.028  52.573 -50.748  1.00  0.00     0.001 A 
HETATM   10  C   UNL     1     -40.883  53.605 -51.158  1.00  0.00     0.014 A 
ENDROOT
BRANCH   6  11
HETATM   11  C   UNL     1     -42.881  55.808 -52.819  1.00  0.00     0.252 C 
BRANCH  11  12
HETATM   12  N   UNL     1     -43.834  55.489 -51.738  1.00  0.00    -0.067 N 
HETATM   13  H   UNL     1     -44.780  55.393 -52.112  1.00  0.00     0.275 HD
HETATM   14  H   UNL     1     -43.580  54.593 -51.311  1.00  0.00     0.275 HD
HETATM   15  H   UNL     1     -43.819  56.221 -51.022  1.00  0.00     0.275 HD
ENDBRANCH  11  12
BRANCH  11  16
HETATM   16  C   UNL     1     -41.942  56.923 -52.407  1.00  0.00    -0.024 A 
HETATM   17  C   UNL     1     -41.795  57.224 -51.039  1.00  0.00     0.009 A 
HETATM   18  C   UNL     1     -40.897  58.203 -50.612  1.00  0.00     0.001 A 
HETATM   19  C   UNL     1     -40.127  58.897 -51.539  1.00  0.00     0.000 A 
HETATM   20  C   UNL     1     -40.257  58.617 -52.896  1.00  0.00     0.001 A 
HETATM   21  C   UNL     1     -41.153  57.637 -53.329  1.00  0.00     0.009 A 
ENDBRANCH  11  16
ENDBRANCH   6  11
BRANCH   1  22
HETATM   22  C   UNL     1     -42.641  54.752 -55.796  1.00  0.00     0.310 C 
HETATM   23  O   UNL     1     -43.532  54.171 -56.399  1.00  0.00    -0.258 OA
BRANCH  22  24
HETATM   24  O   UNL     1     -42.103  55.955 -56.126  1.00  0.00    -0.317 OA
BRANCH  24  25
HETATM   25  C   UNL     1     -42.946  56.834 -56.888  1.00  0.00     0.175 C 
HETATM   26  C   UNL     1     -43.774  57.697 -55.954  1.00  0.00     0.034 C 
ENDBRANCH  24  25
ENDBRANCH  22  24
ENDBRANCH   1  22
TORSDOF 6
ENDMDL
MODEL 3
REMARK VINA RESULT:      -6.7      3.329      5.081
REMARK  6 active torsions:
REMARK  status: ('A' for Active; 'I' for Inactive)
REMARK    1  A    between atoms: C_2  and  O_3 
REMARK    2  A    between atoms: O_3  and  C_4 
REMARK    3  A    between atoms: C_4  and  C_5 
REMARK    4  A    between atoms: C_10  and  C_11 
REMARK    5  A    between atoms: C_11  and  N_12 
REMARK    6  A    between atoms: C_11  and  C_16 
ROOT
HETATM    1  C   UNL     1     -40.558  53.795 -51.419  1.00  0.00     0.118 A 
HETATM    2  N   UNL     1     -40.430  52.546 -50.862  1.00  0.00    -0.350 N 
HETATM    3  H   UNL     1     -40.540  52.350 -49.874  1.00  0.00     0.166 HD
HETATM    4  C   UNL     1     -40.109  51.616 -51.814  1.00  0.00     0.043 A 
HETATM    5  C   UNL     1     -40.063  52.271 -53.045  1.00  0.00     0.002 A 
HETATM    6  C   UNL     1     -40.365  53.664 -52.800  1.00  0.00     0.022 A 
HETATM    7  C   UNL     1     -39.864  50.246 -51.661  1.00  0.00     0.030 A 
HETATM    8  C   UNL     1     -39.561  49.507 -52.803  1.00  0.00     0.002 A 
HETATM    9  C   UNL     1     -39.511  50.117 -54.049  1.00  0.00     0.001 A 
HETATM   10  C   UNL     1     -39.761  51.489 -54.185  1.00  0.00     0.014 A 
ENDROOT
BRANCH   6  11
HETATM   11  C   UNL     1     -40.432  54.805 -53.781  1.00  0.00     0.252 C 
BRANCH  11  12
HETATM   12  N   UNL     1     -39.888  54.507 -55.120  1.00  0.00    -0.067 N 
HETATM   13  H   UNL     1     -39.694  55.373 -55.627  1.00  0.00     0.275 HD
HETATM   14  H   UNL     1     -39.002  54.000 -55.025  1.00  0.00     0.275 HD
HETATM   15  H   UNL     1     -40.548  53.935 -55.655  1.00  0.00     0.275 HD
ENDBRANCH  11  12
BRANCH  11  16
HETATM   16  C   UNL     1     -41.873  55.266 -53.868  1.00  0.00    -0.024 A 
HETATM   17  C   UNL     1     -42.168  56.630 -53.681  1.00  0.00     0.009 A 
HETATM   18  C   UNL     1     -43.473  57.107 -53.811  1.00  0.00     0.001 A 
HETATM   19  C   UNL     1     -44.507  56.233 -54.133  1.00  0.00     0.000 A 
HETATM   20  C   UNL     1     -44.239  54.881 -54.321  1.00  0.00     0.001 A 
HETATM   21  C   UNL     1     -42.933  54.399 -54.194  1.00  0.00     0.009 A 
ENDBRANCH  11  16
ENDBRANCH   6  11
BRANCH   1  22
HETATM   22  C   UNL     1     -40.841  54.986 -50.645  1.00  0.00     0.310 C 
HETATM   23  O   UNL     1     -40.139  55.987 -50.648  1.00  0.00    -0.258 OA
BRANCH  22  24
HETATM   24  O   UNL     1     -41.964  54.797 -49.906  1.00  0.00    -0.317 OA
BRANCH  24  25
HETATM   25  C   UNL     1     -43.178  55.329 -50.458  1.00  0.00     0.175 C 
HETATM   26  C   UNL     1     -44.210  54.226 -50.604  1.00  0.00     0.034 C 
ENDBRANCH  24  25
ENDBRANCH  22  24
ENDBRANCH   1  22
TORSDOF 6
ENDMDL
MODEL 4
REMARK VINA RESULT:      -6.5      2.324      5.865
REMARK  6 active torsions:
REMARK  status: ('A' for Active; 'I' for Inactive)
REMARK    1  A    between atoms: C_2  and  O_3 
REMARK    2  A    between atoms: O_3  and  C_4 
REMARK    3  A    between atoms: C_4  and  C_5 
REMARK    4  A    between atoms: C_10  and  C_11 
REMARK    5  A    between atoms: C_11  and  N_12 
REMARK    6  A    between atoms: C_11  and  C_16 
ROOT
HETATM    1  C   UNL     1     -42.571  57.765 -53.431  1.00  0.00     0.118 A 
HETATM    2  N   UNL     1     -42.149  58.724 -54.319  1.00  0.00    -0.350 N 
HETATM    3  H   UNL     1     -41.788  59.631 -54.048  1.00  0.00     0.166 HD
HETATM    4  C   UNL     1     -42.307  58.299 -55.611  1.00  0.00     0.043 A 
HETATM    5  C   UNL     1     -42.815  57.000 -55.568  1.00  0.00     0.002 A 
HETATM    6  C   UNL     1     -42.972  56.648 -54.174  1.00  0.00     0.022 A 
HETATM    7  C   UNL     1     -42.029  58.978 -56.804  1.00  0.00     0.030 A 
HETATM    8  C   UNL     1     -42.274  58.314 -58.004  1.00  0.00     0.002 A 
HETATM    9  C   UNL     1     -42.773  57.018 -58.008  1.00  0.00     0.001 A 
HETATM   10  C   UNL     1     -43.044  56.351 -56.805  1.00  0.00     0.014 A 
ENDROOT
BRANCH   6  11
HETATM   11  C   UNL     1     -43.495  55.369 -53.574  1.00  0.00     0.252 C 
BRANCH  11  12
HETATM   12  N   UNL     1     -44.602  54.738 -54.320  1.00  0.00    -0.067 N 
HETATM   13  H   UNL     1     -44.507  53.721 -54.307  1.00  0.00     0.275 HD
HETATM   14  H   UNL     1     -45.494  54.970 -53.871  1.00  0.00     0.275 HD
HETATM   15  H   UNL     1     -44.616  55.072 -55.288  1.00  0.00     0.275 HD
ENDBRANCH  11  12
BRANCH  11  16
HETATM   16  C   UNL     1     -42.331  54.413 -53.415  1.00  0.00    -0.024 A 
HETATM   17  C   UNL     1     -41.949  53.610 -54.506  1.00  0.00     0.009 A 
HETATM   18  C   UNL     1     -40.846  52.760 -54.421  1.00  0.00     0.001 A 
HETATM   19  C   UNL     1     -40.102  52.696 -53.248  1.00  0.00     0.000 A 
HETATM   20  C   UNL     1     -40.462  53.479 -52.155  1.00  0.00     0.001 A 
HETATM   21  C   UNL     1     -41.564  54.334 -52.236  1.00  0.00     0.009 A 
ENDBRANCH  11  16
ENDBRANCH   6  11
BRANCH   1  22
HETATM   22  C   UNL     1     -42.573  57.956 -51.996  1.00  0.00     0.310 C 
HETATM   23  O   UNL     1     -43.576  58.187 -51.336  1.00  0.00    -0.258 OA
BRANCH  22  24
HETATM   24  O   UNL     1     -41.303  57.876 -51.521  1.00  0.00    -0.317 OA
BRANCH  24  25
HETATM   25  C   UNL     1     -40.909  58.907 -50.602  1.00  0.00     0.175 C 
HETATM   26  C   UNL     1     -39.452  59.272 -50.825  1.00  0.00     0.034 C 
ENDBRANCH  24  25
ENDBRANCH  22  24
ENDBRANCH   1  22
TORSDOF 6
ENDMDL
MODEL 5
REMARK VINA RESULT:      -6.4      2.778      5.254
REMARK  6 active torsions:
REMARK  status: ('A' for Active; 'I' for Inactive)
REMARK    1  A    between atoms: C_2  and  O_3 
REMARK    2  A    between atoms: O_3  and  C_4 
REMARK    3  A    between atoms: C_4  and  C_5 
REMARK    4  A    between atoms: C_10  and  C_11 
REMARK    5  A    between atoms: C_11  and  N_12 
REMARK    6  A    between atoms: C_11  and  C_16 
ROOT
HETATM    1  C   UNL     1     -42.481  57.959 -52.768  1.00  0.00     0.118 A 
HETATM    2  N   UNL     1     -42.299  58.085 -54.124  1.00  0.00    -0.350 N 
HETATM    3  H   UNL     1     -42.030  58.947 -54.584  1.00  0.00     0.166 HD
HETATM    4  C   UNL     1     -42.556  56.903 -54.764  1.00  0.00     0.043 A 
HETATM    5  C   UNL     1     -42.880  55.957 -53.791  1.00  0.00     0.002 A 
HETATM    6  C   UNL     1     -42.819  56.625 -52.509  1.00  0.00     0.022 A 
HETATM    7  C   UNL     1     -42.516  56.615 -56.134  1.00  0.00     0.030 A 
HETATM    8  C   UNL     1     -42.816  55.315 -56.536  1.00  0.00     0.002 A 
HETATM    9  C   UNL     1     -43.137  54.340 -55.600  1.00  0.00     0.001 A 
HETATM   10  C   UNL     1     -43.170  54.645 -54.232  1.00  0.00     0.014 A 
ENDROOT
BRANCH   6  11
HETATM   11  C   UNL     1     -43.093  56.067 -51.137  1.00  0.00     0.252 C 
BRANCH  11  12
HETATM   12  N   UNL     1     -44.403  55.404 -50.984  1.00  0.00    -0.067 N 
HETATM   13  H   UNL     1     -44.508  55.034 -50.038  1.00  0.00     0.275 HD
HETATM   14  H   UNL     1     -45.152  56.088 -51.133  1.00  0.00     0.275 HD
HETATM   15  H   UNL     1     -44.500  54.645 -51.665  1.00  0.00     0.275 HD
ENDBRANCH  11  12
BRANCH  11  16
HETATM   16  C   UNL     1     -41.962  55.126 -50.777  1.00  0.00    -0.024 A 
HETATM   17  C   UNL     1     -40.881  55.614 -50.018  1.00  0.00     0.009 A 
HETATM   18  C   UNL     1     -39.847  54.768 -49.614  1.00  0.00     0.001 A 
HETATM   19  C   UNL     1     -39.873  53.420 -49.957  1.00  0.00     0.000 A 
HETATM   20  C   UNL     1     -40.931  52.916 -50.708  1.00  0.00     0.001 A 
HETATM   21  C   UNL     1     -41.969  53.759 -51.113  1.00  0.00     0.009 A 
ENDBRANCH  11  16
ENDBRANCH   6  11
BRANCH   1  22
HETATM   22  C   UNL     1     -42.333  59.060 -51.840  1.00  0.00     0.310 C 
HETATM   23  O   UNL     1     -43.257  59.554 -51.209  1.00  0.00    -0.258 OA
BRANCH  22  24
HETATM   24  O   UNL     1     -41.038  59.469 -51.815  1.00  0.00    -0.317 OA
BRANCH  24  25
HETATM   25  C   UNL     1     -40.439  59.582 -50.514  1.00  0.00     0.175 C 
HETATM   26  C   UNL     1     -38.932  59.443 -50.622  1.00  0.00     0.034 C 
ENDBRANCH  24  25
ENDBRANCH  22  24
ENDBRANCH   1  22
TORSDOF 6
ENDMDL
MODEL 6
REMARK VINA RESULT:      -6.4      2.806      4.382
REMARK  6 active torsions:
REMARK  status: ('A' for Active; 'I' for Inactive)
REMARK    1  A    between atoms: C_2  and  O_3 
REMARK    2  A    between atoms: O_3  and  C_4 
REMARK    3  A    between atoms: C_4  and  C_5 
REMARK    4  A    between atoms: C_10  and  C_11 
REMARK    5  A    between atoms: C_11  and  N_12 
REMARK    6  A    between atoms: C_11  and  C_16 
ROOT
HETATM    1  C   UNL     1     -42.141  54.906 -51.678  1.00  0.00     0.118 A 
HETATM    2  N   UNL     1     -41.326  54.020 -51.017  1.00  0.00    -0.350 N 
HETATM    3  H   UNL     1     -41.163  54.035 -50.017  1.00  0.00     0.166 HD
HETATM    4  C   UNL     1     -40.748  53.140 -51.891  1.00  0.00     0.043 A 
HETATM    5  C   UNL     1     -41.231  53.433 -53.167  1.00  0.00     0.002 A 
HETATM    6  C   UNL     1     -42.136  54.555 -53.034  1.00  0.00     0.022 A 
HETATM    7  C   UNL     1     -39.839  52.106 -51.631  1.00  0.00     0.030 A 
HETATM    8  C   UNL     1     -39.402  51.337 -52.708  1.00  0.00     0.002 A 
HETATM    9  C   UNL     1     -39.862  51.590 -53.993  1.00  0.00     0.001 A 
HETATM   10  C   UNL     1     -40.774  52.627 -54.236  1.00  0.00     0.014 A 
ENDROOT
BRANCH   6  11
HETATM   11  C   UNL     1     -42.914  55.275 -54.104  1.00  0.00     0.252 C 
BRANCH  11  12
HETATM   12  N   UNL     1     -44.382  55.174 -53.980  1.00  0.00    -0.067 N 
HETATM   13  H   UNL     1     -44.777  54.701 -54.794  1.00  0.00     0.275 HD
HETATM   14  H   UNL     1     -44.618  54.616 -53.154  1.00  0.00     0.275 HD
HETATM   15  H   UNL     1     -44.796  56.106 -53.887  1.00  0.00     0.275 HD
ENDBRANCH  11  12
BRANCH  11  16
HETATM   16  C   UNL     1     -42.466  56.722 -54.119  1.00  0.00    -0.024 A 
HETATM   17  C   UNL     1     -43.434  57.737 -54.239  1.00  0.00     0.009 A 
HETATM   18  C   UNL     1     -43.071  59.084 -54.198  1.00  0.00     0.001 A 
HETATM   19  C   UNL     1     -41.737  59.443 -54.034  1.00  0.00     0.000 A 
HETATM   20  C   UNL     1     -40.763  58.456 -53.915  1.00  0.00     0.001 A 
HETATM   21  C   UNL     1     -41.122  57.106 -53.953  1.00  0.00     0.009 A 
ENDBRANCH  11  16
ENDBRANCH   6  11
BRANCH   1  22
HETATM   22  C   UNL     1     -42.843  55.986 -51.018  1.00  0.00     0.310 C 
HETATM   23  O   UNL     1     -44.061  56.084 -50.970  1.00  0.00    -0.258 OA
BRANCH  22  24
HETATM   24  O   UNL     1     -41.948  56.871 -50.508  1.00  0.00    -0.317 OA
BRANCH  24  25
HETATM   25  C   UNL     1     -42.282  58.261 -50.658  1.00  0.00     0.175 C 
HETATM   26  C   UNL     1     -41.079  59.123 -50.319  1.00  0.00     0.034 C 
ENDBRANCH  24  25
ENDBRANCH  22  24
ENDBRANCH   1  22
TORSDOF 6
ENDMDL
MODEL 7
REMARK VINA RESULT:      -6.3     15.226     17.429
REMARK  6 active torsions:
REMARK  status: ('A' for Active; 'I' for Inactive)
REMARK    1  A    between atoms: C_2  and  O_3 
REMARK    2  A    between atoms: O_3  and  C_4 
REMARK    3  A    between atoms: C_4  and  C_5 
REMARK    4  A    between atoms: C_10  and  C_11 
REMARK    5  A    between atoms: C_11  and  N_12 
REMARK    6  A    between atoms: C_11  and  C_16 
ROOT
HETATM    1  C   UNL     1     -34.745  41.016 -54.173  1.00  0.00     0.118 A 
HETATM    2  N   UNL     1     -33.380  40.909 -54.288  1.00  0.00    -0.350 N 
HETATM    3  H   UNL     1     -32.720  41.376 -53.678  1.00  0.00     0.166 HD
HETATM    4  C   UNL     1     -33.039  40.111 -55.347  1.00  0.00     0.043 A 
HETATM    5  C   UNL     1     -34.222  39.647 -55.924  1.00  0.00     0.002 A 
HETATM    6  C   UNL     1     -35.318  40.212 -55.166  1.00  0.00     0.022 A 
HETATM    7  C   UNL     1     -31.766  39.771 -55.821  1.00  0.00     0.030 A 
HETATM    8  C   UNL     1     -31.687  38.925 -56.925  1.00  0.00     0.002 A 
HETATM    9  C   UNL     1     -32.839  38.434 -57.526  1.00  0.00     0.001 A 
HETATM   10  C   UNL     1     -34.106  38.783 -57.038  1.00  0.00     0.014 A 
ENDROOT
BRANCH   6  11
HETATM   11  C   UNL     1     -36.800  40.044 -55.377  1.00  0.00     0.252 C 
BRANCH  11  12
HETATM   12  N   UNL     1     -37.651  40.731 -54.386  1.00  0.00    -0.067 N 
HETATM   13  H   UNL     1     -37.076  41.207 -53.689  1.00  0.00     0.275 HD
HETATM   14  H   UNL     1     -38.217  41.444 -54.857  1.00  0.00     0.275 HD
HETATM   15  H   UNL     1     -38.271  40.061 -53.923  1.00  0.00     0.275 HD
ENDBRANCH  11  12
BRANCH  11  16
HETATM   16  C   UNL     1     -37.130  40.494 -56.785  1.00  0.00    -0.024 A 
HETATM   17  C   UNL     1     -36.736  41.780 -57.202  1.00  0.00     0.009 A 
HETATM   18  C   UNL     1     -36.968  42.213 -58.508  1.00  0.00     0.001 A 
HETATM   19  C   UNL     1     -37.592  41.372 -59.423  1.00  0.00     0.000 A 
HETATM   20  C   UNL     1     -37.991  40.097 -59.032  1.00  0.00     0.001 A 
HETATM   21  C   UNL     1     -37.759  39.658 -57.726  1.00  0.00     0.009 A 
ENDBRANCH  11  16
ENDBRANCH   6  11
BRANCH   1  22
HETATM   22  C   UNL     1     -35.397  41.839 -53.176  1.00  0.00     0.310 C 
HETATM   23  O   UNL     1     -35.800  42.975 -53.381  1.00  0.00    -0.258 OA
BRANCH  22  24
HETATM   24  O   UNL     1     -35.451  41.171 -51.994  1.00  0.00    -0.317 OA
BRANCH  24  25
HETATM   25  C   UNL     1     -34.606  41.675 -50.947  1.00  0.00     0.175 C 
HETATM   26  C   UNL     1     -33.571  40.633 -50.568  1.00  0.00     0.034 C 
ENDBRANCH  24  25
ENDBRANCH  22  24
ENDBRANCH   1  22
TORSDOF 6
ENDMDL
MODEL 8
REMARK VINA RESULT:      -6.2      2.226      4.890
REMARK  6 active torsions:
REMARK  status: ('A' for Active; 'I' for Inactive)
REMARK    1  A    between atoms: C_2  and  O_3 
REMARK    2  A    between atoms: O_3  and  C_4 
REMARK    3  A    between atoms: C_4  and  C_5 
REMARK    4  A    between atoms: C_10  and  C_11 
REMARK    5  A    between atoms: C_11  and  N_12 
REMARK    6  A    between atoms: C_11  and  C_16 
ROOT
HETATM    1  C   UNL     1     -42.159  55.820 -52.200  1.00  0.00     0.118 A 
HETATM    2  N   UNL     1     -41.131  55.065 -51.692  1.00  0.00    -0.350 N 
HETATM    3  H   UNL     1     -40.612  55.300 -50.855  1.00  0.00     0.166 HD
HETATM    4  C   UNL     1     -40.889  53.973 -52.483  1.00  0.00     0.043 A 
HETATM    5  C   UNL     1     -41.816  53.993 -53.525  1.00  0.00     0.002 A 
HETATM    6  C   UNL     1     -42.643  55.166 -53.340  1.00  0.00     0.022 A 
HETATM    7  C   UNL     1     -39.916  52.976 -52.336  1.00  0.00     0.030 A 
HETATM    8  C   UNL     1     -39.882  51.955 -53.283  1.00  0.00     0.002 A 
HETATM    9  C   UNL     1     -40.791  51.931 -54.333  1.00  0.00     0.001 A 
HETATM   10  C   UNL     1     -41.760  52.936 -54.464  1.00  0.00     0.014 A 
ENDROOT
BRANCH   6  11
HETATM   11  C   UNL     1     -43.782  55.664 -54.190  1.00  0.00     0.252 C 
BRANCH  11  12
HETATM   12  N   UNL     1     -44.759  56.517 -53.484  1.00  0.00    -0.067 N 
HETATM   13  H   UNL     1     -45.414  56.934 -54.147  1.00  0.00     0.275 HD
HETATM   14  H   UNL     1     -45.304  55.946 -52.831  1.00  0.00     0.275 HD
HETATM   15  H   UNL     1     -44.276  57.256 -52.964  1.00  0.00     0.275 HD
ENDBRANCH  11  12
BRANCH  11  16
HETATM   16  C   UNL     1     -43.197  56.382 -55.388  1.00  0.00    -0.024 A 
HETATM   17  C   UNL     1     -43.123  55.708 -56.622  1.00  0.00     0.009 A 
HETATM   18  C   UNL     1     -42.645  56.351 -57.765  1.00  0.00     0.001 A 
HETATM   19  C   UNL     1     -42.236  57.679 -57.699  1.00  0.00     0.000 A 
HETATM   20  C   UNL     1     -42.300  58.365 -56.490  1.00  0.00     0.001 A 
HETATM   21  C   UNL     1     -42.779  57.726 -55.344  1.00  0.00     0.009 A 
ENDBRANCH  11  16
ENDBRANCH   6  11
BRANCH   1  22
HETATM   22  C   UNL     1     -42.602  57.063 -51.605  1.00  0.00     0.310 C 
HETATM   23  O   UNL     1     -43.627  57.182 -50.947  1.00  0.00    -0.258 OA
BRANCH  22  24
HETATM   24  O   UNL     1     -41.735  58.059 -51.921  1.00  0.00    -0.317 OA
BRANCH  24  25
HETATM   25  C   UNL     1     -40.714  58.337 -50.949  1.00  0.00     0.175 C 
HETATM   26  C   UNL     1     -41.034  59.627 -50.215  1.00  0.00     0.034 C 
ENDBRANCH  24  25
ENDBRANCH  22  24
ENDBRANCH   1  22
TORSDOF 6
ENDMDL
MODEL 9
REMARK VINA RESULT:      -6.2      2.246      3.142
REMARK  6 active torsions:
REMARK  status: ('A' for Active; 'I' for Inactive)
REMARK    1  A    between atoms: C_2  and  O_3 
REMARK    2  A    between atoms: O_3  and  C_4 
REMARK    3  A    between atoms: C_4  and  C_5 
REMARK    4  A    between atoms: C_10  and  C_11 
REMARK    5  A    between atoms: C_11  and  N_12 
REMARK    6  A    between atoms: C_11  and  C_16 
ROOT
HETATM    1  C   UNL     1     -41.217  57.213 -53.824  1.00  0.00     0.118 A 
HETATM    2  N   UNL     1     -40.995  56.235 -54.762  1.00  0.00    -0.350 N 
HETATM    3  H   UNL     1     -40.969  56.400 -55.761  1.00  0.00     0.166 HD
HETATM    4  C   UNL     1     -40.844  55.011 -54.167  1.00  0.00     0.043 A 
HETATM    5  C   UNL     1     -40.931  55.198 -52.787  1.00  0.00     0.002 A 
HETATM    6  C   UNL     1     -41.155  56.610 -52.561  1.00  0.00     0.022 A 
HETATM    7  C   UNL     1     -40.631  53.761 -54.762  1.00  0.00     0.030 A 
HETATM    8  C   UNL     1     -40.500  52.655 -53.925  1.00  0.00     0.002 A 
HETATM    9  C   UNL     1     -40.573  52.797 -52.546  1.00  0.00     0.001 A 
HETATM   10  C   UNL     1     -40.784  54.056 -51.966  1.00  0.00     0.014 A 
ENDROOT
BRANCH   6  11
HETATM   11  C   UNL     1     -41.336  57.342 -51.257  1.00  0.00     0.252 C 
BRANCH  11  12
HETATM   12  N   UNL     1     -40.331  58.388 -50.985  1.00  0.00    -0.067 N 
HETATM   13  H   UNL     1     -39.388  58.022 -51.126  1.00  0.00     0.275 HD
HETATM   14  H   UNL     1     -40.460  59.166 -51.639  1.00  0.00     0.275 HD
HETATM   15  H   UNL     1     -40.427  58.734 -50.026  1.00  0.00     0.275 HD
ENDBRANCH  11  12
BRANCH  11  16
HETATM   16  C   UNL     1     -42.739  57.914 -51.230  1.00  0.00    -0.024 A 
HETATM   17  C   UNL     1     -43.838  57.036 -51.279  1.00  0.00     0.009 A 
HETATM   18  C   UNL     1     -45.146  57.517 -51.197  1.00  0.00     0.001 A 
HETATM   19  C   UNL     1     -45.381  58.881 -51.061  1.00  0.00     0.000 A 
HETATM   20  C   UNL     1     -44.309  59.768 -51.012  1.00  0.00     0.001 A 
HETATM   21  C   UNL     1     -42.998  59.291 -51.092  1.00  0.00     0.009 A 
ENDBRANCH  11  16
ENDBRANCH   6  11
BRANCH   1  22
HETATM   22  C   UNL     1     -41.467  58.598 -54.162  1.00  0.00     0.310 C 
HETATM   23  O   UNL     1     -40.749  59.527 -53.821  1.00  0.00    -0.258 OA
BRANCH  22  24
HETATM   24  O   UNL     1     -42.621  58.697 -54.870  1.00  0.00    -0.317 OA
BRANCH  24  25
HETATM   25  C   UNL     1     -42.543  59.429 -56.104  1.00  0.00     0.175 C 
HETATM   26  C   UNL     1     -42.405  58.468 -57.271  1.00  0.00     0.034 C 
ENDBRANCH  24  25
ENDBRANCH  22  24
ENDBRANCH   1  22
TORSDOF 6
ENDMDL
MODEL 10
REMARK VINA RESULT:      -6.1      2.724      5.853
REMARK  6 active torsions:
REMARK  status: ('A' for Active; 'I' for Inactive)
REMARK    1  A    between atoms: C_2  and  O_3 
REMARK    2  A    between atoms: O_3  and  C_4 
REMARK    3  A    between atoms: C_4  and  C_5 
REMARK    4  A    between atoms: C_10  and  C_11 
REMARK    5  A    between atoms: C_11  and  N_12 
REMARK    6  A    between atoms: C_11  and  C_16 
ROOT
HETATM    1  C   UNL     1     -43.287  58.192 -51.667  1.00  0.00     0.118 A 
HETATM    2  N   UNL     1     -42.650  58.808 -50.618  1.00  0.00    -0.350 N 
HETATM    3  H   UNL     1     -43.113  59.102 -49.765  1.00  0.00     0.166 HD
HETATM    4  C   UNL     1     -41.322  58.993 -50.891  1.00  0.00     0.043 A 
HETATM    5  C   UNL     1     -41.069  58.444 -52.148  1.00  0.00     0.002 A 
HETATM    6  C   UNL     1     -42.322  57.916 -52.644  1.00  0.00     0.022 A 
HETATM    7  C   UNL     1     -40.336  59.603 -50.105  1.00  0.00     0.030 A 
HETATM    8  C   UNL     1     -39.040  59.659 -50.614  1.00  0.00     0.002 A 
HETATM    9  C   UNL     1     -38.743  59.118 -51.858  1.00  0.00     0.001 A 
HETATM   10  C   UNL     1     -39.741  58.509 -52.631  1.00  0.00     0.014 A 
ENDROOT
BRANCH   6  11
HETATM   11  C   UNL     1     -42.608  57.232 -53.955  1.00  0.00     0.252 C 
BRANCH  11  12
HETATM   12  N   UNL     1     -42.222  58.001 -55.155  1.00  0.00    -0.067 N 
HETATM   13  H   UNL     1     -42.961  58.659 -55.411  1.00  0.00     0.275 HD
HETATM   14  H   UNL     1     -41.379  58.547 -54.955  1.00  0.00     0.275 HD
HETATM   15  H   UNL     1     -42.037  57.369 -55.939  1.00  0.00     0.275 HD
ENDBRANCH  11  12
BRANCH  11  16
HETATM   16  C   UNL     1     -41.934  55.876 -53.937  1.00  0.00    -0.024 A 
HETATM   17  C   UNL     1     -40.933  55.596 -54.886  1.00  0.00     0.009 A 
HETATM   18  C   UNL     1     -40.245  54.381 -54.867  1.00  0.00     0.001 A 
HETATM   19  C   UNL     1     -40.541  53.426 -53.900  1.00  0.00     0.000 A 
HETATM   20  C   UNL     1     -41.528  53.681 -52.953  1.00  0.00     0.001 A 
HETATM   21  C   UNL     1     -42.217  54.896 -52.966  1.00  0.00     0.009 A 
ENDBRANCH  11  16
ENDBRANCH   6  11
BRANCH   1  22
HETATM   22  C   UNL     1     -44.708  57.915 -51.684  1.00  0.00     0.310 C 
HETATM   23  O   UNL     1     -45.275  57.194 -50.876  1.00  0.00    -0.258 OA
BRANCH  22  24
HETATM   24  O   UNL     1     -45.285  58.543 -52.741  1.00  0.00    -0.317 OA
BRANCH  24  25
HETATM   25  C   UNL     1     -45.352  59.975 -52.663  1.00  0.00     0.175 C 
HETATM   26  C   UNL     1     -46.490  60.393 -51.751  1.00  0.00     0.034 C 
ENDBRANCH  24  25
ENDBRANCH  22  24
ENDBRANCH   1  22
TORSDOF 6
ENDMDL
