MODEL 1
REMARK VINA RESULT:      -7.4      0.000      0.000
REMARK  3 active torsions:
REMARK  status: ('A' for Active; 'I' for Inactive)
REMARK    1  A    between atoms: C_2  and  C_3 
REMARK    2  A    between atoms: C_3  and  C_4 
REMARK    3  A    between atoms: C_24  and  N_25 
ROOT
HETATM    1  C   UNL     1     -41.026  54.085 -52.742  1.00  0.00     0.067 A 
HETATM    2  N   UNL     1     -40.967  53.193 -53.746  1.00  0.00    -0.177 NA
HETATM    3  N   UNL     1     -41.948  53.563 -54.589  1.00  0.00    -0.256 N 
HETATM    4  H   UNL     1     -42.108  53.014 -55.427  1.00  0.00     0.191 HD
HETATM    5  C   UNL     1     -42.634  54.646 -54.149  1.00  0.00     0.176 A 
HETATM    6  C   UNL     1     -42.052  55.040 -52.970  1.00  0.00     0.049 A 
HETATM    7  C   UNL     1     -42.618  56.207 -52.235  1.00  0.00     0.144 A 
HETATM    8  C   UNL     1     -42.928  55.845 -50.757  1.00  0.00     0.246 A 
HETATM    9  O   UNL     1     -43.743  55.037 -50.340  1.00  0.00    -0.271 OA
HETATM   10  N   UNL     1     -42.109  56.638 -49.960  1.00  0.00    -0.325 N 
HETATM   11  C   UNL     1     -41.290  57.455 -50.725  1.00  0.00     0.043 A 
HETATM   12  C   UNL     1     -41.521  57.248 -52.095  1.00  0.00     0.003 A 
HETATM   13  C   UNL     1     -40.359  58.350 -50.244  1.00  0.00     0.030 A 
HETATM   14  C   UNL     1     -39.624  59.072 -51.179  1.00  0.00     0.003 A 
HETATM   15  C   UNL     1     -39.837  58.886 -52.557  1.00  0.00     0.007 A 
HETATM   16  C   UNL     1     -40.796  57.977 -53.040  1.00  0.00    -0.051 A 
HETATM   17  C   UNL     1     -40.981  57.814 -54.519  1.00  0.00     0.049 C 
HETATM   18  C   UNL     1     -43.887  56.713 -52.911  1.00  0.00     0.081 A 
HETATM   19  C   UNL     1     -44.696  57.767 -52.172  1.00  0.00     0.021 C 
HETATM   20  N   UNL     1     -45.367  58.640 -51.559  1.00  0.00    -0.096 N 
HETATM   21  C   UNL     1     -44.356  56.206 -54.083  1.00  0.00     0.140 A 
HETATM   22  O   UNL     1     -43.688  55.171 -54.762  1.00  0.00    -0.279 OA
HETATM   23  H   UNL     1     -42.132  56.605 -48.951  1.00  0.00     0.169 HD
ENDROOT
BRANCH  21  24
HETATM   24  N   UNL     1     -45.504  56.610 -54.727  1.00  0.00    -0.282 NA
HETATM   25  H   UNL     1     -45.665  57.614 -54.753  1.00  0.00     0.126 HD
HETATM   26  H   UNL     1     -46.320  56.094 -54.403  1.00  0.00     0.126 HD
ENDBRANCH  21  24
BRANCH   1  27
HETATM   27  C   UNL     1     -40.125  53.949 -51.552  1.00  0.00     0.061 C 
BRANCH  27  28
HETATM   28  C   UNL     1     -40.629  52.978 -50.480  1.00  0.00     0.002 C 
HETATM   29  C   UNL     1     -40.454  53.558 -49.085  1.00  0.00     0.005 C 
ENDBRANCH  27  28
ENDBRANCH   1  27
TORSDOF 3
ENDMDL
MODEL 2
REMARK VINA RESULT:      -7.0      1.846      2.300
REMARK  3 active torsions:
REMARK  status: ('A' for Active; 'I' for Inactive)
REMARK    1  A    between atoms: C_2  and  C_3 
REMARK    2  A    between atoms: C_3  and  C_4 
REMARK    3  A    between atoms: C_24  and  N_25 
ROOT
HETATM    1  C   UNL     1     -43.386  55.328 -52.824  1.00  0.00     0.067 A 
HETATM    2  N   UNL     1     -43.682  54.392 -53.743  1.00  0.00    -0.177 NA
HETATM    3  N   UNL     1     -44.281  55.070 -54.739  1.00  0.00    -0.256 N 
HETATM    4  H   UNL     1     -44.615  54.558 -55.549  1.00  0.00     0.191 HD
HETATM    5  C   UNL     1     -44.388  56.395 -54.478  1.00  0.00     0.176 A 
HETATM    6  C   UNL     1     -43.793  56.616 -53.261  1.00  0.00     0.049 A 
HETATM    7  C   UNL     1     -43.780  57.996 -52.699  1.00  0.00     0.144 A 
HETATM    8  C   UNL     1     -44.355  58.022 -51.256  1.00  0.00     0.246 A 
HETATM    9  O   UNL     1     -45.492  57.759 -50.899  1.00  0.00    -0.271 OA
HETATM   10  N   UNL     1     -43.326  58.428 -50.412  1.00  0.00    -0.325 N 
HETATM   11  C   UNL     1     -42.150  58.650 -51.114  1.00  0.00     0.043 A 
HETATM   12  C   UNL     1     -42.332  58.401 -52.484  1.00  0.00     0.003 A 
HETATM   13  C   UNL     1     -40.946  59.051 -50.573  1.00  0.00     0.030 A 
HETATM   14  C   UNL     1     -39.875  59.208 -51.447  1.00  0.00     0.003 A 
HETATM   15  C   UNL     1     -40.032  58.968 -52.824  1.00  0.00     0.007 A 
HETATM   16  C   UNL     1     -41.266  58.568 -53.368  1.00  0.00    -0.051 A 
HETATM   17  C   UNL     1     -41.377  58.321 -54.843  1.00  0.00     0.049 C 
HETATM   18  C   UNL     1     -44.579  58.951 -53.580  1.00  0.00     0.081 A 
HETATM   19  C   UNL     1     -44.833  60.349 -53.038  1.00  0.00     0.021 C 
HETATM   20  N   UNL     1     -45.044  61.507 -52.590  1.00  0.00    -0.096 N 
HETATM   21  C   UNL     1     -45.132  58.579 -54.765  1.00  0.00     0.140 A 
HETATM   22  O   UNL     1     -44.996  57.272 -55.268  1.00  0.00    -0.279 OA
HETATM   23  H   UNL     1     -43.449  58.542 -49.416  1.00  0.00     0.169 HD
ENDROOT
BRANCH  21  24
HETATM   24  N   UNL     1     -45.878  59.391 -55.590  1.00  0.00    -0.282 NA
HETATM   25  H   UNL     1     -46.449  60.090 -55.121  1.00  0.00     0.126 HD
HETATM   26  H   UNL     1     -46.405  58.853 -56.274  1.00  0.00     0.126 HD
ENDBRANCH  21  24
BRANCH   1  27
HETATM   27  C   UNL     1     -42.772  54.938 -51.513  1.00  0.00     0.061 C 
BRANCH  27  28
HETATM   28  C   UNL     1     -41.245  55.040 -51.471  1.00  0.00     0.002 C 
HETATM   29  C   UNL     1     -40.754  55.366 -50.068  1.00  0.00     0.005 C 
ENDBRANCH  27  28
ENDBRANCH   1  27
TORSDOF 3
ENDMDL
MODEL 3
REMARK VINA RESULT:      -7.0      2.420      4.084
REMARK  3 active torsions:
REMARK  status: ('A' for Active; 'I' for Inactive)
REMARK    1  A    between atoms: C_2  and  C_3 
REMARK    2  A    between atoms: C_3  and  C_4 
REMARK    3  A    between atoms: C_24  and  N_25 
ROOT
HETATM    1  C   UNL     1     -42.195  55.583 -52.474  1.00  0.00     0.067 A 
HETATM    2  N   UNL     1     -42.675  54.454 -51.925  1.00  0.00    -0.177 NA
HETATM    3  N   UNL     1     -43.760  54.846 -51.233  1.00  0.00    -0.256 N 
HETATM    4  H   UNL     1     -44.286  54.154 -50.711  1.00  0.00     0.191 HD
HETATM    5  C   UNL     1     -43.976  56.182 -51.312  1.00  0.00     0.176 A 
HETATM    6  C   UNL     1     -43.004  56.699 -52.133  1.00  0.00     0.049 A 
HETATM    7  C   UNL     1     -42.975  58.167 -52.387  1.00  0.00     0.144 A 
HETATM    8  C   UNL     1     -41.573  58.764 -52.082  1.00  0.00     0.246 A 
HETATM    9  O   UNL     1     -41.003  58.820 -51.005  1.00  0.00    -0.271 OA
HETATM   10  N   UNL     1     -41.069  59.259 -53.280  1.00  0.00    -0.325 N 
HETATM   11  C   UNL     1     -41.949  59.045 -54.331  1.00  0.00     0.043 A 
HETATM   12  C   UNL     1     -43.105  58.384 -53.885  1.00  0.00     0.003 A 
HETATM   13  C   UNL     1     -41.746  59.406 -55.646  1.00  0.00     0.030 A 
HETATM   14  C   UNL     1     -42.749  59.090 -56.557  1.00  0.00     0.003 A 
HETATM   15  C   UNL     1     -43.918  58.432 -56.136  1.00  0.00     0.007 A 
HETATM   16  C   UNL     1     -44.122  58.075 -54.791  1.00  0.00    -0.051 A 
HETATM   17  C   UNL     1     -45.385  57.370 -54.396  1.00  0.00     0.049 C 
HETATM   18  C   UNL     1     -44.026  58.887 -51.550  1.00  0.00     0.081 A 
HETATM   19  C   UNL     1     -43.988  60.406 -51.542  1.00  0.00     0.021 C 
HETATM   20  N   UNL     1     -43.957  61.666 -51.535  1.00  0.00    -0.096 N 
HETATM   21  C   UNL     1     -44.921  58.233 -50.761  1.00  0.00     0.140 A 
HETATM   22  O   UNL     1     -44.940  56.829 -50.670  1.00  0.00    -0.279 OA
HETATM   23  H   UNL     1     -40.172  59.718 -53.347  1.00  0.00     0.169 HD
ENDROOT
BRANCH  21  24
HETATM   24  N   UNL     1     -45.876  58.831 -49.971  1.00  0.00    -0.282 NA
HETATM   25  H   UNL     1     -45.617  59.729 -49.570  1.00  0.00     0.126 HD
HETATM   26  H   UNL     1     -46.248  58.188 -49.275  1.00  0.00     0.126 HD
ENDBRANCH  21  24
BRANCH   1  27
HETATM   27  C   UNL     1     -40.922  55.561 -53.265  1.00  0.00     0.061 C 
BRANCH  27  28
HETATM   28  C   UNL     1     -41.107  55.296 -54.761  1.00  0.00     0.002 C 
HETATM   29  C   UNL     1     -40.240  54.136 -55.228  1.00  0.00     0.005 C 
ENDBRANCH  27  28
ENDBRANCH   1  27
TORSDOF 3
ENDMDL
MODEL 4
REMARK VINA RESULT:      -6.9      2.265      5.232
REMARK  3 active torsions:
REMARK  status: ('A' for Active; 'I' for Inactive)
REMARK    1  A    between atoms: C_2  and  C_3 
REMARK    2  A    between atoms: C_3  and  C_4 
REMARK    3  A    between atoms: C_24  and  N_25 
ROOT
HETATM    1  C   UNL     1     -44.205  58.574 -53.595  1.00  0.00     0.067 A 
HETATM    2  N   UNL     1     -44.310  59.902 -53.775  1.00  0.00    -0.177 NA
HETATM    3  N   UNL     1     -43.458  60.435 -52.880  1.00  0.00    -0.256 N 
HETATM    4  H   UNL     1     -43.379  61.445 -52.818  1.00  0.00     0.191 HD
HETATM    5  C   UNL     1     -42.830  59.495 -52.133  1.00  0.00     0.176 A 
HETATM    6  C   UNL     1     -43.258  58.271 -52.582  1.00  0.00     0.049 A 
HETATM    7  C   UNL     1     -42.748  57.036 -51.921  1.00  0.00     0.144 A 
HETATM    8  C   UNL     1     -43.915  56.118 -51.465  1.00  0.00     0.246 A 
HETATM    9  O   UNL     1     -44.770  56.355 -50.627  1.00  0.00    -0.271 OA
HETATM   10  N   UNL     1     -43.806  54.931 -52.181  1.00  0.00    -0.325 N 
HETATM   11  C   UNL     1     -42.734  54.962 -53.060  1.00  0.00     0.043 A 
HETATM   12  C   UNL     1     -42.058  56.191 -52.978  1.00  0.00     0.003 A 
HETATM   13  C   UNL     1     -42.359  53.952 -53.920  1.00  0.00     0.030 A 
HETATM   14  C   UNL     1     -41.254  54.184 -54.735  1.00  0.00     0.003 A 
HETATM   15  C   UNL     1     -40.559  55.404 -54.669  1.00  0.00     0.007 A 
HETATM   16  C   UNL     1     -40.942  56.426 -53.783  1.00  0.00    -0.051 A 
HETATM   17  C   UNL     1     -40.168  57.710 -53.756  1.00  0.00     0.049 C 
HETATM   18  C   UNL     1     -41.875  57.382 -50.719  1.00  0.00     0.081 A 
HETATM   19  C   UNL     1     -41.445  56.235 -49.819  1.00  0.00     0.021 C 
HETATM   20  N   UNL     1     -41.089  55.285 -49.071  1.00  0.00    -0.096 N 
HETATM   21  C   UNL     1     -41.546  58.659 -50.384  1.00  0.00     0.140 A 
HETATM   22  O   UNL     1     -41.991  59.760 -51.139  1.00  0.00    -0.279 OA
HETATM   23  H   UNL     1     -44.441  54.155 -52.054  1.00  0.00     0.169 HD
ENDROOT
BRANCH  21  24
HETATM   24  N   UNL     1     -40.781  59.030 -49.302  1.00  0.00    -0.282 NA
HETATM   25  H   UNL     1     -41.276  59.513 -48.556  1.00  0.00     0.126 HD
HETATM   26  H   UNL     1     -39.935  59.519 -49.587  1.00  0.00     0.126 HD
ENDBRANCH  21  24
BRANCH   1  27
HETATM   27  C   UNL     1     -45.077  57.632 -54.370  1.00  0.00     0.061 C 
BRANCH  27  28
HETATM   28  C   UNL     1     -44.889  57.693 -55.888  1.00  0.00     0.002 C 
HETATM   29  C   UNL     1     -43.527  57.153 -56.297  1.00  0.00     0.005 C 
ENDBRANCH  27  28
ENDBRANCH   1  27
TORSDOF 3
ENDMDL
MODEL 5
REMARK VINA RESULT:      -6.9      2.464      5.042
REMARK  3 active torsions:
REMARK  status: ('A' for Active; 'I' for Inactive)
REMARK    1  A    between atoms: C_2  and  C_3 
REMARK    2  A    between atoms: C_3  and  C_4 
REMARK    3  A    between atoms: C_24  and  N_25 
ROOT
HETATM    1  C   UNL     1     -41.353  59.094 -50.643  1.00  0.00     0.067 A 
HETATM    2  N   UNL     1     -41.692  59.998 -49.707  1.00  0.00    -0.177 NA
HETATM    3  N   UNL     1     -42.918  60.419 -50.069  1.00  0.00    -0.256 N 
HETATM    4  H   UNL     1     -43.377  61.130 -49.510  1.00  0.00     0.191 HD
HETATM    5  C   UNL     1     -43.360  59.827 -51.204  1.00  0.00     0.176 A 
HETATM    6  C   UNL     1     -42.393  58.935 -51.597  1.00  0.00     0.049 A 
HETATM    7  C   UNL     1     -42.597  58.146 -52.845  1.00  0.00     0.144 A 
HETATM    8  C   UNL     1     -41.386  58.291 -53.807  1.00  0.00     0.246 A 
HETATM    9  O   UNL     1     -40.994  59.301 -54.369  1.00  0.00    -0.271 OA
HETATM   10  N   UNL     1     -40.816  57.029 -53.942  1.00  0.00    -0.325 N 
HETATM   11  C   UNL     1     -41.483  56.084 -53.177  1.00  0.00     0.043 A 
HETATM   12  C   UNL     1     -42.551  56.672 -52.479  1.00  0.00     0.003 A 
HETATM   13  C   UNL     1     -41.165  54.746 -53.080  1.00  0.00     0.030 A 
HETATM   14  C   UNL     1     -41.954  53.961 -52.245  1.00  0.00     0.003 A 
HETATM   15  C   UNL     1     -43.031  54.524 -51.538  1.00  0.00     0.007 A 
HETATM   16  C   UNL     1     -43.354  55.888 -51.649  1.00  0.00    -0.051 A 
HETATM   17  C   UNL     1     -44.511  56.440 -50.869  1.00  0.00     0.049 C 
HETATM   18  C   UNL     1     -43.870  58.580 -53.562  1.00  0.00     0.081 A 
HETATM   19  C   UNL     1     -44.112  58.014 -54.953  1.00  0.00     0.021 C 
HETATM   20  N   UNL     1     -44.313  57.546 -56.105  1.00  0.00    -0.096 N 
HETATM   21  C   UNL     1     -44.733  59.499 -53.052  1.00  0.00     0.140 A 
HETATM   22  O   UNL     1     -44.508  60.113 -51.806  1.00  0.00    -0.279 OA
HETATM   23  H   UNL     1     -40.017  56.851 -54.534  1.00  0.00     0.169 HD
ENDROOT
BRANCH  21  24
HETATM   24  N   UNL     1     -45.884  59.942 -53.663  1.00  0.00    -0.282 NA
HETATM   25  H   UNL     1     -46.706  59.358 -53.530  1.00  0.00     0.126 HD
HETATM   26  H   UNL     1     -45.727  60.174 -54.641  1.00  0.00     0.126 HD
ENDBRANCH  21  24
BRANCH   1  27
HETATM   27  C   UNL     1     -39.998  58.453 -50.624  1.00  0.00     0.061 C 
BRANCH  27  28
HETATM   28  C   UNL     1     -38.849  59.383 -51.022  1.00  0.00     0.002 C 
HETATM   29  C   UNL     1     -38.109  59.900 -49.798  1.00  0.00     0.005 C 
ENDBRANCH  27  28
ENDBRANCH   1  27
TORSDOF 3
ENDMDL
MODEL 6
REMARK VINA RESULT:      -6.8      2.340      4.524
REMARK  3 active torsions:
REMARK  status: ('A' for Active; 'I' for Inactive)
REMARK    1  A    between atoms: C_2  and  C_3 
REMARK    2  A    between atoms: C_3  and  C_4 
REMARK    3  A    between atoms: C_24  and  N_25 
ROOT
HETATM    1  C   UNL     1     -40.868  58.655 -53.285  1.00  0.00     0.067 A 
HETATM    2  N   UNL     1     -40.912  59.920 -53.737  1.00  0.00    -0.177 NA
HETATM    3  N   UNL     1     -41.782  59.885 -54.763  1.00  0.00    -0.256 N 
HETATM    4  H   UNL     1     -41.965  60.739 -55.280  1.00  0.00     0.191 HD
HETATM    5  C   UNL     1     -42.280  58.644 -54.984  1.00  0.00     0.176 A 
HETATM    6  C   UNL     1     -41.741  57.818 -54.030  1.00  0.00     0.049 A 
HETATM    7  C   UNL     1     -42.093  56.370 -54.041  1.00  0.00     0.144 A 
HETATM    8  C   UNL     1     -40.820  55.480 -54.043  1.00  0.00     0.246 A 
HETATM    9  O   UNL     1     -39.965  55.400 -54.910  1.00  0.00    -0.271 OA
HETATM   10  N   UNL     1     -40.828  54.750 -52.859  1.00  0.00    -0.325 N 
HETATM   11  C   UNL     1     -41.929  55.062 -52.075  1.00  0.00     0.043 A 
HETATM   12  C   UNL     1     -42.727  56.033 -52.702  1.00  0.00     0.003 A 
HETATM   13  C   UNL     1     -42.226  54.524 -50.841  1.00  0.00     0.030 A 
HETATM   14  C   UNL     1     -43.377  54.980 -50.206  1.00  0.00     0.003 A 
HETATM   15  C   UNL     1     -44.195  55.948 -50.813  1.00  0.00     0.007 A 
HETATM   16  C   UNL     1     -43.890  56.486 -52.077  1.00  0.00    -0.051 A 
HETATM   17  C   UNL     1     -44.795  57.520 -52.678  1.00  0.00     0.049 C 
HETATM   18  C   UNL     1     -42.954  56.027 -55.252  1.00  0.00     0.081 A 
HETATM   19  C   UNL     1     -43.226  54.555 -55.517  1.00  0.00     0.021 C 
HETATM   20  N   UNL     1     -43.452  53.335 -55.738  1.00  0.00    -0.096 N 
HETATM   21  C   UNL     1     -43.403  56.963 -56.131  1.00  0.00     0.140 A 
HETATM   22  O   UNL     1     -43.106  58.329 -55.974  1.00  0.00    -0.279 OA
HETATM   23  H   UNL     1     -40.110  54.078 -52.626  1.00  0.00     0.169 HD
ENDROOT
BRANCH  21  24
HETATM   24  N   UNL     1     -44.164  56.709 -57.250  1.00  0.00    -0.282 NA
HETATM   25  H   UNL     1     -45.169  56.818 -57.133  1.00  0.00     0.126 HD
HETATM   26  H   UNL     1     -43.917  55.822 -57.682  1.00  0.00     0.126 HD
ENDBRANCH  21  24
BRANCH   1  27
HETATM   27  C   UNL     1     -39.931  58.276 -52.179  1.00  0.00     0.061 C 
BRANCH  27  28
HETATM   28  C   UNL     1     -40.586  58.164 -50.799  1.00  0.00     0.002 C 
HETATM   29  C   UNL     1     -40.793  59.535 -50.174  1.00  0.00     0.005 C 
ENDBRANCH  27  28
ENDBRANCH   1  27
TORSDOF 3
ENDMDL
MODEL 7
REMARK VINA RESULT:      -6.8      3.143      5.412
REMARK  3 active torsions:
REMARK  status: ('A' for Active; 'I' for Inactive)
REMARK    1  A    between atoms: C_2  and  C_3 
REMARK    2  A    between atoms: C_3  and  C_4 
REMARK    3  A    between atoms: C_24  and  N_25 
ROOT
HETATM    1  C   UNL     1     -42.563  57.621 -57.166  1.00  0.00     0.067 A 
HETATM    2  N   UNL     1     -41.905  58.421 -58.023  1.00  0.00    -0.177 NA
HETATM    3  N   UNL     1     -41.776  59.589 -57.367  1.00  0.00    -0.256 N 
HETATM    4  H   UNL     1     -41.318  60.365 -57.833  1.00  0.00     0.191 HD
HETATM    5  C   UNL     1     -42.340  59.562 -56.136  1.00  0.00     0.176 A 
HETATM    6  C   UNL     1     -42.836  58.295 -55.947  1.00  0.00     0.049 A 
HETATM    7  C   UNL     1     -43.542  57.974 -54.674  1.00  0.00     0.144 A 
HETATM    8  C   UNL     1     -44.943  57.361 -54.947  1.00  0.00     0.246 A 
HETATM    9  O   UNL     1     -45.901  57.894 -55.482  1.00  0.00    -0.271 OA
HETATM   10  N   UNL     1     -44.928  56.065 -54.443  1.00  0.00    -0.325 N 
HETATM   11  C   UNL     1     -43.694  55.745 -53.896  1.00  0.00     0.043 A 
HETATM   12  C   UNL     1     -42.804  56.826 -54.007  1.00  0.00     0.003 A 
HETATM   13  C   UNL     1     -43.348  54.539 -53.324  1.00  0.00     0.030 A 
HETATM   14  C   UNL     1     -42.049  54.411 -52.840  1.00  0.00     0.003 A 
HETATM   15  C   UNL     1     -41.140  55.479 -52.937  1.00  0.00     0.007 A 
HETATM   16  C   UNL     1     -41.504  56.709 -53.514  1.00  0.00    -0.051 A 
HETATM   17  C   UNL     1     -40.494  57.815 -53.596  1.00  0.00     0.049 C 
HETATM   18  C   UNL     1     -43.692  59.218 -53.806  1.00  0.00     0.081 A 
HETATM   19  C   UNL     1     -44.568  59.101 -52.569  1.00  0.00     0.021 C 
HETATM   20  N   UNL     1     -45.295  59.004 -51.544  1.00  0.00    -0.096 N 
HETATM   21  C   UNL     1     -43.154  60.423 -54.136  1.00  0.00     0.140 A 
HETATM   22  O   UNL     1     -42.406  60.602 -55.314  1.00  0.00    -0.279 OA
HETATM   23  H   UNL     1     -45.732  55.455 -54.480  1.00  0.00     0.169 HD
ENDROOT
BRANCH  21  24
HETATM   24  N   UNL     1     -43.275  61.581 -53.402  1.00  0.00    -0.282 NA
HETATM   25  H   UNL     1     -43.435  61.456 -52.405  1.00  0.00     0.126 HD
HETATM   26  H   UNL     1     -43.936  62.229 -53.823  1.00  0.00     0.126 HD
ENDBRANCH  21  24
BRANCH   1  27
HETATM   27  C   UNL     1     -42.970  56.238 -57.578  1.00  0.00     0.061 C 
BRANCH  27  28
HETATM   28  C   UNL     1     -42.944  55.991 -59.089  1.00  0.00     0.002 C 
HETATM   29  C   UNL     1     -44.040  55.023 -59.509  1.00  0.00     0.005 C 
ENDBRANCH  27  28
ENDBRANCH   1  27
TORSDOF 3
ENDMDL
MODEL 8
REMARK VINA RESULT:      -6.7      2.437      5.053
REMARK  3 active torsions:
REMARK  status: ('A' for Active; 'I' for Inactive)
REMARK    1  A    between atoms: C_2  and  C_3 
REMARK    2  A    between atoms: C_3  and  C_4 
REMARK    3  A    between atoms: C_24  and  N_25 
ROOT
HETATM    1  C   UNL     1     -43.553  56.279 -54.324  1.00  0.00     0.067 A 
HETATM    2  N   UNL     1     -43.936  54.991 -54.309  1.00  0.00    -0.177 NA
HETATM    3  N   UNL     1     -43.627  54.558 -53.073  1.00  0.00    -0.256 N 
HETATM    4  H   UNL     1     -43.812  53.590 -52.831  1.00  0.00     0.191 HD
HETATM    5  C   UNL     1     -43.050  55.519 -52.311  1.00  0.00     0.176 A 
HETATM    6  C   UNL     1     -43.010  56.664 -53.069  1.00  0.00     0.049 A 
HETATM    7  C   UNL     1     -42.398  57.894 -52.493  1.00  0.00     0.144 A 
HETATM    8  C   UNL     1     -41.306  58.474 -53.433  1.00  0.00     0.246 A 
HETATM    9  O   UNL     1     -40.249  57.959 -53.758  1.00  0.00    -0.271 OA
HETATM   10  N   UNL     1     -41.741  59.731 -53.840  1.00  0.00    -0.325 N 
HETATM   11  C   UNL     1     -42.983  60.039 -53.305  1.00  0.00     0.043 A 
HETATM   12  C   UNL     1     -43.453  58.988 -52.500  1.00  0.00     0.003 A 
HETATM   13  C   UNL     1     -43.694  61.200 -53.520  1.00  0.00     0.030 A 
HETATM   14  C   UNL     1     -44.935  61.314 -52.899  1.00  0.00     0.003 A 
HETATM   15  C   UNL     1     -45.426  60.277 -52.086  1.00  0.00     0.007 A 
HETATM   16  C   UNL     1     -44.690  59.099 -51.864  1.00  0.00    -0.051 A 
HETATM   17  C   UNL     1     -45.263  58.023 -50.991  1.00  0.00     0.049 C 
HETATM   18  C   UNL     1     -41.791  57.611 -51.123  1.00  0.00     0.081 A 
HETATM   19  C   UNL     1     -40.952  58.712 -50.494  1.00  0.00     0.021 C 
HETATM   20  N   UNL     1     -40.255  59.624 -49.972  1.00  0.00    -0.096 N 
HETATM   21  C   UNL     1     -41.899  56.408 -50.498  1.00  0.00     0.140 A 
HETATM   22  O   UNL     1     -42.594  55.332 -51.079  1.00  0.00    -0.279 OA
HETATM   23  H   UNL     1     -41.197  60.328 -54.447  1.00  0.00     0.169 HD
ENDROOT
BRANCH  21  24
HETATM   24  N   UNL     1     -41.354  56.091 -49.274  1.00  0.00    -0.282 NA
HETATM   25  H   UNL     1     -41.718  56.615 -48.481  1.00  0.00     0.126 HD
HETATM   26  H   UNL     1     -40.338  56.086 -49.302  1.00  0.00     0.126 HD
ENDBRANCH  21  24
BRANCH   1  27
HETATM   27  C   UNL     1     -43.664  57.090 -55.579  1.00  0.00     0.061 C 
BRANCH  27  28
HETATM   28  C   UNL     1     -44.945  57.922 -55.688  1.00  0.00     0.002 C 
HETATM   29  C   UNL     1     -44.710  59.196 -56.486  1.00  0.00     0.005 C 
ENDBRANCH  27  28
ENDBRANCH   1  27
TORSDOF 3
ENDMDL
MODEL 9
REMARK VINA RESULT:      -6.6      5.823      8.633
REMARK  3 active torsions:
REMARK  status: ('A' for Active; 'I' for Inactive)
REMARK    1  A    between atoms: C_2  and  C_3 
REMARK    2  A    between atoms: C_3  and  C_4 
REMARK    3  A    between atoms: C_24  and  N_25 
ROOT
HETATM    1  C   UNL     1     -43.474  56.222 -58.980  1.00  0.00     0.067 A 
HETATM    2  N   UNL     1     -42.990  55.309 -58.121  1.00  0.00    -0.177 NA
HETATM    3  N   UNL     1     -42.487  56.032 -57.104  1.00  0.00    -0.256 N 
HETATM    4  H   UNL     1     -42.043  55.548 -56.330  1.00  0.00     0.191 HD
HETATM    5  C   UNL     1     -42.623  57.367 -57.293  1.00  0.00     0.176 A 
HETATM    6  C   UNL     1     -43.287  57.539 -58.483  1.00  0.00     0.049 A 
HETATM    7  C   UNL     1     -43.560  58.921 -58.968  1.00  0.00     0.144 A 
HETATM    8  C   UNL     1     -43.045  59.121 -60.420  1.00  0.00     0.246 A 
HETATM    9  O   UNL     1     -41.892  59.082 -60.817  1.00  0.00    -0.271 OA
HETATM   10  N   UNL     1     -44.156  59.379 -61.217  1.00  0.00    -0.325 N 
HETATM   11  C   UNL     1     -45.330  59.354 -60.478  1.00  0.00     0.043 A 
HETATM   12  C   UNL     1     -45.063  59.073 -59.128  1.00  0.00     0.003 A 
HETATM   13  C   UNL     1     -46.602  59.561 -60.969  1.00  0.00     0.030 A 
HETATM   14  C   UNL     1     -47.656  59.482 -60.063  1.00  0.00     0.003 A 
HETATM   15  C   UNL     1     -47.415  59.205 -58.706  1.00  0.00     0.007 A 
HETATM   16  C   UNL     1     -46.114  59.004 -58.212  1.00  0.00    -0.051 A 
HETATM   17  C   UNL     1     -45.913  58.707 -56.756  1.00  0.00     0.049 C 
HETATM   18  C   UNL     1     -42.914  59.957 -58.054  1.00  0.00     0.081 A 
HETATM   19  C   UNL     1     -42.927  61.403 -58.524  1.00  0.00     0.021 C 
HETATM   20  N   UNL     1     -42.938  62.602 -58.913  1.00  0.00    -0.096 N 
HETATM   21  C   UNL     1     -42.267  59.631 -56.904  1.00  0.00     0.140 A 
HETATM   22  O   UNL     1     -42.155  58.297 -56.470  1.00  0.00    -0.279 OA
HETATM   23  H   UNL     1     -44.087  59.563 -62.208  1.00  0.00     0.169 HD
ENDROOT
BRANCH  21  24
HETATM   24  N   UNL     1     -41.650  60.520 -56.053  1.00  0.00    -0.282 NA
HETATM   25  H   UNL     1     -40.660  60.681 -56.226  1.00  0.00     0.126 HD
HETATM   26  H   UNL     1     -41.844  60.306 -55.077  1.00  0.00     0.126 HD
ENDBRANCH  21  24
BRANCH   1  27
HETATM   27  C   UNL     1     -44.051  55.796 -60.296  1.00  0.00     0.061 C 
BRANCH  27  28
HETATM   28  C   UNL     1     -45.367  55.020 -60.193  1.00  0.00     0.002 C 
HETATM   29  C   UNL     1     -46.559  55.909 -60.514  1.00  0.00     0.005 C 
ENDBRANCH  27  28
ENDBRANCH   1  27
TORSDOF 3
ENDMDL
MODEL 10
REMARK VINA RESULT:      -6.4      2.416      5.535
REMARK  3 active torsions:
REMARK  status: ('A' for Active; 'I' for Inactive)
REMARK    1  A    between atoms: C_2  and  C_3 
REMARK    2  A    between atoms: C_3  and  C_4 
REMARK    3  A    between atoms: C_24  and  N_25 
ROOT
HETATM    1  C   UNL     1     -42.521  59.993 -51.362  1.00  0.00     0.067 A 
HETATM    2  N   UNL     1     -41.587  60.669 -50.670  1.00  0.00    -0.177 NA
HETATM    3  N   UNL     1     -40.852  59.715 -50.068  1.00  0.00    -0.256 N 
HETATM    4  H   UNL     1     -40.085  59.994 -49.465  1.00  0.00     0.191 HD
HETATM    5  C   UNL     1     -41.295  58.464 -50.343  1.00  0.00     0.176 A 
HETATM    6  C   UNL     1     -42.356  58.592 -51.204  1.00  0.00     0.049 A 
HETATM    7  C   UNL     1     -43.068  57.367 -51.665  1.00  0.00     0.144 A 
HETATM    8  C   UNL     1     -44.597  57.475 -51.414  1.00  0.00     0.246 A 
HETATM    9  O   UNL     1     -45.175  57.551 -50.341  1.00  0.00    -0.271 OA
HETATM   10  N   UNL     1     -45.220  57.450 -52.657  1.00  0.00    -0.325 N 
HETATM   11  C   UNL     1     -44.296  57.361 -53.688  1.00  0.00     0.043 A 
HETATM   12  C   UNL     1     -42.987  57.321 -53.181  1.00  0.00     0.003 A 
HETATM   13  C   UNL     1     -44.585  57.325 -55.036  1.00  0.00     0.030 A 
HETATM   14  C   UNL     1     -43.511  57.246 -55.917  1.00  0.00     0.003 A 
HETATM   15  C   UNL     1     -42.191  57.201 -55.435  1.00  0.00     0.007 A 
HETATM   16  C   UNL     1     -41.905  57.229 -54.059  1.00  0.00    -0.051 A 
HETATM   17  C   UNL     1     -40.478  57.183 -53.599  1.00  0.00     0.049 C 
HETATM   18  C   UNL     1     -42.526  56.125 -50.966  1.00  0.00     0.081 A 
HETATM   19  C   UNL     1     -43.282  54.823 -51.174  1.00  0.00     0.021 C 
HETATM   20  N   UNL     1     -43.910  53.743 -51.346  1.00  0.00    -0.096 N 
HETATM   21  C   UNL     1     -41.466  56.157 -50.114  1.00  0.00     0.140 A 
HETATM   22  O   UNL     1     -40.785  57.354 -49.824  1.00  0.00    -0.279 OA
HETATM   23  H   UNL     1     -46.223  57.490 -52.767  1.00  0.00     0.169 HD
ENDROOT
BRANCH  21  24
HETATM   24  N   UNL     1     -40.948  55.074 -49.441  1.00  0.00    -0.282 NA
HETATM   25  H   UNL     1     -41.620  54.360 -49.172  1.00  0.00     0.126 HD
HETATM   26  H   UNL     1     -40.353  55.359 -48.666  1.00  0.00     0.126 HD
ENDBRANCH  21  24
BRANCH   1  27
HETATM   27  C   UNL     1     -43.591  60.729 -52.110  1.00  0.00     0.061 C 
BRANCH  27  28
HETATM   28  C   UNL     1     -43.274  60.987 -53.585  1.00  0.00     0.002 C 
HETATM   29  C   UNL     1     -44.541  60.996 -54.428  1.00  0.00     0.005 C 
ENDBRANCH  27  28
ENDBRANCH   1  27
TORSDOF 3
ENDMDL
