MODEL 1
REMARK VINA RESULT:      -7.6      0.000      0.000
REMARK  9 active torsions:
REMARK  status: ('A' for Active; 'I' for Inactive)
REMARK    1  A    between atoms: C_5  and  O_6 
REMARK    2  A    between atoms: O_6  and  C_7 
REMARK    3  A    between atoms: C_7  and  C_8 
REMARK    4  A    between atoms: N_9  and  C_10 
REMARK    5  A    between atoms: C_10  and  C_11 
REMARK    6  A    between atoms: C_11  and  C_12 
REMARK    7  A    between atoms: C_18  and  S_19 
REMARK    8  A    between atoms: S_19  and  C_20 
REMARK    9  A    between atoms: C_20  and  C_21 
REMARK       I    between atoms: C_21  and  N_22 
ROOT
HETATM    1  C   UNL     1     -43.009  57.623 -54.606  1.00  0.00     0.155 A 
HETATM    2  N   UNL     1     -42.572  56.495 -55.275  1.00  0.00    -0.309 N 
HETATM    3  C   UNL     1     -43.220  56.526 -56.482  1.00  0.00     0.192 A 
HETATM    4  N   UNL     1     -44.020  57.564 -56.534  1.00  0.00    -0.123 NA
HETATM    5  N   UNL     1     -43.882  58.258 -55.367  1.00  0.00    -0.132 NA
ENDROOT
BRANCH   1   6
HETATM    6  C   UNL     1     -42.628  58.042 -53.228  1.00  0.00     0.256 C 
BRANCH   6   7
HETATM    7  O   UNL     1     -43.479  57.363 -52.311  1.00  0.00    -0.344 OA
BRANCH   7   8
HETATM    8  C   UNL     1     -42.865  56.551 -51.396  1.00  0.00     0.069 A 
HETATM    9  C   UNL     1     -41.578  56.950 -51.032  1.00  0.00     0.037 A 
HETATM   10  C   UNL     1     -40.844  56.221 -50.094  1.00  0.00     0.009 A 
HETATM   11  C   UNL     1     -41.386  55.069 -49.517  1.00  0.00    -0.062 A 
HETATM   12  C   UNL     1     -40.629  54.300 -48.475  1.00  0.00     0.048 C 
HETATM   13  C   UNL     1     -42.674  54.667 -49.887  1.00  0.00     0.009 A 
HETATM   14  C   UNL     1     -43.409  55.400 -50.826  1.00  0.00     0.037 A 
ENDBRANCH   7   8
ENDBRANCH   6   7
ENDBRANCH   1   6
BRANCH   2  15
HETATM   15  C   UNL     1     -41.620  55.505 -54.804  1.00  0.00     0.137 C 
BRANCH  15  16
HETATM   16  C   UNL     1     -42.293  54.240 -54.268  1.00  0.00     0.059 C 
BRANCH  16  17
HETATM   17  C   UNL     1     -41.289  53.239 -53.753  1.00  0.00    -0.057 A 
HETATM   18  C   UNL     1     -40.979  52.090 -54.492  1.00  0.00     0.007 A 
HETATM   19  C   UNL     1     -40.053  51.167 -54.002  1.00  0.00     0.001 A 
HETATM   20  C   UNL     1     -39.433  51.381 -52.772  1.00  0.00     0.000 A 
HETATM   21  C   UNL     1     -39.740  52.519 -52.028  1.00  0.00     0.001 A 
HETATM   22  C   UNL     1     -40.666  53.442 -52.514  1.00  0.00     0.007 A 
ENDBRANCH  16  17
ENDBRANCH  15  16
ENDBRANCH   2  15
BRANCH   3  23
HETATM   23  S   UNL     1     -43.006  55.377 -57.756  1.00  0.00    -0.081 SA
BRANCH  23  24
HETATM   24  C   UNL     1     -43.123  56.453 -59.217  1.00  0.00     0.185 C 
BRANCH  24  25
HETATM   25  C   UNL     1     -44.393  56.166 -60.001  1.00  0.00     0.226 C 
HETATM   26  N   UNL     1     -45.560  56.498 -59.344  1.00  0.00    -0.365 N 
HETATM   27  C   UNL     1     -46.835  56.384 -60.003  1.00  0.00     0.149 C 
HETATM   28  H   UNL     1     -45.482  57.191 -58.597  1.00  0.00     0.161 HD
HETATM   29  O   UNL     1     -44.372  55.668 -61.125  1.00  0.00    -0.273 OA
ENDBRANCH  24  25
ENDBRANCH  23  24
ENDBRANCH   3  23
TORSDOF 9
ENDMDL
MODEL 2
REMARK VINA RESULT:      -7.4      2.418      7.107
REMARK  9 active torsions:
REMARK  status: ('A' for Active; 'I' for Inactive)
REMARK    1  A    between atoms: C_5  and  O_6 
REMARK    2  A    between atoms: O_6  and  C_7 
REMARK    3  A    between atoms: C_7  and  C_8 
REMARK    4  A    between atoms: N_9  and  C_10 
REMARK    5  A    between atoms: C_10  and  C_11 
REMARK    6  A    between atoms: C_11  and  C_12 
REMARK    7  A    between atoms: C_18  and  S_19 
REMARK    8  A    between atoms: S_19  and  C_20 
REMARK    9  A    between atoms: C_20  and  C_21 
REMARK       I    between atoms: C_21  and  N_22 
ROOT
HETATM    1  C   UNL     1     -42.713  56.115 -54.931  1.00  0.00     0.155 A 
HETATM    2  N   UNL     1     -42.540  55.481 -53.715  1.00  0.00    -0.309 N 
HETATM    3  C   UNL     1     -42.807  56.441 -52.774  1.00  0.00     0.192 A 
HETATM    4  N   UNL     1     -43.080  57.581 -53.363  1.00  0.00    -0.123 NA
HETATM    5  N   UNL     1     -43.034  57.377 -54.711  1.00  0.00    -0.132 NA
ENDROOT
BRANCH   1   6
HETATM    6  C   UNL     1     -42.513  55.517 -56.280  1.00  0.00     0.256 C 
BRANCH   6   7
HETATM    7  O   UNL     1     -42.559  56.569 -57.239  1.00  0.00    -0.344 OA
BRANCH   7   8
HETATM    8  C   UNL     1     -43.626  56.568 -58.095  1.00  0.00     0.069 A 
HETATM    9  C   UNL     1     -43.667  55.485 -58.975  1.00  0.00     0.037 A 
HETATM   10  C   UNL     1     -44.712  55.351 -59.891  1.00  0.00     0.009 A 
HETATM   11  C   UNL     1     -45.725  56.311 -59.949  1.00  0.00    -0.062 A 
HETATM   12  C   UNL     1     -46.878  56.159 -60.897  1.00  0.00     0.048 C 
HETATM   13  C   UNL     1     -45.681  57.399 -59.070  1.00  0.00     0.009 A 
HETATM   14  C   UNL     1     -44.633  57.531 -58.151  1.00  0.00     0.037 A 
ENDBRANCH   7   8
ENDBRANCH   6   7
ENDBRANCH   1   6
BRANCH   2  15
HETATM   15  C   UNL     1     -42.172  54.095 -53.489  1.00  0.00     0.137 C 
BRANCH  15  16
HETATM   16  C   UNL     1     -40.658  53.882 -53.430  1.00  0.00     0.059 C 
BRANCH  16  17
HETATM   17  C   UNL     1     -40.296  52.428 -53.265  1.00  0.00    -0.057 A 
HETATM   18  C   UNL     1     -39.813  51.944 -52.043  1.00  0.00     0.007 A 
HETATM   19  C   UNL     1     -39.474  50.596 -51.903  1.00  0.00     0.001 A 
HETATM   20  C   UNL     1     -39.612  49.724 -52.982  1.00  0.00     0.000 A 
HETATM   21  C   UNL     1     -40.087  50.198 -54.203  1.00  0.00     0.001 A 
HETATM   22  C   UNL     1     -40.424  51.544 -54.345  1.00  0.00     0.007 A 
ENDBRANCH  16  17
ENDBRANCH  15  16
ENDBRANCH   2  15
BRANCH   3  23
HETATM   23  S   UNL     1     -42.799  56.187 -51.064  1.00  0.00    -0.081 SA
BRANCH  23  24
HETATM   24  C   UNL     1     -41.099  56.680 -50.647  1.00  0.00     0.185 C 
BRANCH  24  25
HETATM   25  C   UNL     1     -40.940  58.190 -50.717  1.00  0.00     0.226 C 
HETATM   26  N   UNL     1     -42.098  58.901 -50.473  1.00  0.00    -0.365 N 
HETATM   27  C   UNL     1     -42.077  60.338 -50.398  1.00  0.00     0.149 C 
HETATM   28  H   UNL     1     -42.828  58.417 -49.947  1.00  0.00     0.161 HD
HETATM   29  O   UNL     1     -39.865  58.725 -50.980  1.00  0.00    -0.273 OA
ENDBRANCH  24  25
ENDBRANCH  23  24
ENDBRANCH   3  23
TORSDOF 9
ENDMDL
MODEL 3
REMARK VINA RESULT:      -7.3      2.947      6.015
REMARK  9 active torsions:
REMARK  status: ('A' for Active; 'I' for Inactive)
REMARK    1  A    between atoms: C_5  and  O_6 
REMARK    2  A    between atoms: O_6  and  C_7 
REMARK    3  A    between atoms: C_7  and  C_8 
REMARK    4  A    between atoms: N_9  and  C_10 
REMARK    5  A    between atoms: C_10  and  C_11 
REMARK    6  A    between atoms: C_11  and  C_12 
REMARK    7  A    between atoms: C_18  and  S_19 
REMARK    8  A    between atoms: S_19  and  C_20 
REMARK    9  A    between atoms: C_20  and  C_21 
REMARK       I    between atoms: C_21  and  N_22 
ROOT
HETATM    1  C   UNL     1     -43.505  56.137 -52.091  1.00  0.00     0.155 A 
HETATM    2  N   UNL     1     -43.840  56.761 -53.278  1.00  0.00    -0.309 N 
HETATM    3  C   UNL     1     -44.223  58.027 -52.916  1.00  0.00     0.192 A 
HETATM    4  N   UNL     1     -44.167  58.155 -51.612  1.00  0.00    -0.123 NA
HETATM    5  N   UNL     1     -43.708  56.979 -51.095  1.00  0.00    -0.132 NA
ENDROOT
BRANCH   1   6
HETATM    6  C   UNL     1     -43.052  54.728 -51.926  1.00  0.00     0.256 C 
BRANCH   6   7
HETATM    7  O   UNL     1     -41.642  54.693 -52.127  1.00  0.00    -0.344 OA
BRANCH   7   8
HETATM    8  C   UNL     1     -41.141  53.574 -52.734  1.00  0.00     0.069 A 
HETATM    9  C   UNL     1     -40.210  52.865 -51.973  1.00  0.00     0.037 A 
HETATM   10  C   UNL     1     -39.632  51.693 -52.466  1.00  0.00     0.009 A 
HETATM   11  C   UNL     1     -39.968  51.223 -53.738  1.00  0.00    -0.062 A 
HETATM   12  C   UNL     1     -39.390  49.943 -54.265  1.00  0.00     0.048 C 
HETATM   13  C   UNL     1     -40.898  51.938 -54.502  1.00  0.00     0.009 A 
HETATM   14  C   UNL     1     -41.477  53.111 -54.006  1.00  0.00     0.037 A 
ENDBRANCH   7   8
ENDBRANCH   6   7
ENDBRANCH   1   6
BRANCH   2  15
HETATM   15  C   UNL     1     -43.781  56.200 -54.616  1.00  0.00     0.137 C 
BRANCH  15  16
HETATM   16  C   UNL     1     -42.453  56.477 -55.321  1.00  0.00     0.059 C 
BRANCH  16  17
HETATM   17  C   UNL     1     -42.617  56.584 -56.816  1.00  0.00    -0.057 A 
HETATM   18  C   UNL     1     -42.346  57.786 -57.482  1.00  0.00     0.007 A 
HETATM   19  C   UNL     1     -42.509  57.876 -58.866  1.00  0.00     0.001 A 
HETATM   20  C   UNL     1     -42.946  56.771 -59.594  1.00  0.00     0.000 A 
HETATM   21  C   UNL     1     -43.223  55.573 -58.938  1.00  0.00     0.001 A 
HETATM   22  C   UNL     1     -43.063  55.481 -57.556  1.00  0.00     0.007 A 
ENDBRANCH  16  17
ENDBRANCH  15  16
ENDBRANCH   2  15
BRANCH   3  23
HETATM   23  S   UNL     1     -44.695  59.275 -54.015  1.00  0.00    -0.081 SA
BRANCH  23  24
HETATM   24  C   UNL     1     -43.411  60.522 -53.696  1.00  0.00     0.185 C 
BRANCH  24  25
HETATM   25  C   UNL     1     -42.024  59.945 -53.929  1.00  0.00     0.226 C 
HETATM   26  N   UNL     1     -41.391  59.497 -52.787  1.00  0.00    -0.365 N 
HETATM   27  C   UNL     1     -40.118  58.828 -52.866  1.00  0.00     0.149 C 
HETATM   28  H   UNL     1     -41.990  59.266 -51.993  1.00  0.00     0.161 HD
HETATM   29  O   UNL     1     -41.513  59.895 -55.046  1.00  0.00    -0.273 OA
ENDBRANCH  24  25
ENDBRANCH  23  24
ENDBRANCH   3  23
TORSDOF 9
ENDMDL
MODEL 4
REMARK VINA RESULT:      -7.3      1.135      1.714
REMARK  9 active torsions:
REMARK  status: ('A' for Active; 'I' for Inactive)
REMARK    1  A    between atoms: C_5  and  O_6 
REMARK    2  A    between atoms: O_6  and  C_7 
REMARK    3  A    between atoms: C_7  and  C_8 
REMARK    4  A    between atoms: N_9  and  C_10 
REMARK    5  A    between atoms: C_10  and  C_11 
REMARK    6  A    between atoms: C_11  and  C_12 
REMARK    7  A    between atoms: C_18  and  S_19 
REMARK    8  A    between atoms: S_19  and  C_20 
REMARK    9  A    between atoms: C_20  and  C_21 
REMARK       I    between atoms: C_21  and  N_22 
ROOT
HETATM    1  C   UNL     1     -42.817  57.504 -54.761  1.00  0.00     0.155 A 
HETATM    2  N   UNL     1     -42.494  56.396 -55.521  1.00  0.00    -0.309 N 
HETATM    3  C   UNL     1     -43.230  56.530 -56.671  1.00  0.00     0.192 A 
HETATM    4  N   UNL     1     -43.972  57.609 -56.604  1.00  0.00    -0.123 NA
HETATM    5  N   UNL     1     -43.708  58.226 -55.416  1.00  0.00    -0.132 NA
ENDROOT
BRANCH   1   6
HETATM    6  C   UNL     1     -42.310  57.824 -53.397  1.00  0.00     0.256 C 
BRANCH   6   7
HETATM    7  O   UNL     1     -43.218  57.271 -52.450  1.00  0.00    -0.344 OA
BRANCH   7   8
HETATM    8  C   UNL     1     -42.674  56.479 -51.475  1.00  0.00     0.069 A 
HETATM    9  C   UNL     1     -41.397  56.858 -51.059  1.00  0.00     0.037 A 
HETATM   10  C   UNL     1     -40.734  56.147 -50.057  1.00  0.00     0.009 A 
HETATM   11  C   UNL     1     -41.337  55.032 -49.468  1.00  0.00    -0.062 A 
HETATM   12  C   UNL     1     -40.656  54.284 -48.359  1.00  0.00     0.048 C 
HETATM   13  C   UNL     1     -42.615  54.650 -49.889  1.00  0.00     0.009 A 
HETATM   14  C   UNL     1     -43.279  55.365 -50.892  1.00  0.00     0.037 A 
ENDBRANCH   7   8
ENDBRANCH   6   7
ENDBRANCH   1   6
BRANCH   2  15
HETATM   15  C   UNL     1     -41.566  55.333 -55.180  1.00  0.00     0.137 C 
BRANCH  15  16
HETATM   16  C   UNL     1     -42.258  54.107 -54.583  1.00  0.00     0.059 C 
BRANCH  16  17
HETATM   17  C   UNL     1     -41.282  53.181 -53.903  1.00  0.00    -0.057 A 
HETATM   18  C   UNL     1     -40.730  53.510 -52.659  1.00  0.00     0.007 A 
HETATM   19  C   UNL     1     -39.820  52.648 -52.041  1.00  0.00     0.001 A 
HETATM   20  C   UNL     1     -39.454  51.455 -52.662  1.00  0.00     0.000 A 
HETATM   21  C   UNL     1     -39.995  51.122 -53.902  1.00  0.00     0.001 A 
HETATM   22  C   UNL     1     -40.902  51.982 -54.522  1.00  0.00     0.007 A 
ENDBRANCH  16  17
ENDBRANCH  15  16
ENDBRANCH   2  15
BRANCH   3  23
HETATM   23  S   UNL     1     -43.176  55.447 -58.017  1.00  0.00    -0.081 SA
BRANCH  23  24
HETATM   24  C   UNL     1     -43.863  56.495 -59.334  1.00  0.00     0.185 C 
BRANCH  24  25
HETATM   25  C   UNL     1     -42.756  57.224 -60.080  1.00  0.00     0.226 C 
HETATM   26  N   UNL     1     -42.994  58.568 -60.288  1.00  0.00    -0.365 N 
HETATM   27  C   UNL     1     -41.990  59.409 -60.884  1.00  0.00     0.149 C 
HETATM   28  H   UNL     1     -43.664  59.015 -59.660  1.00  0.00     0.161 HD
HETATM   29  O   UNL     1     -41.741  56.652 -60.470  1.00  0.00    -0.273 OA
ENDBRANCH  24  25
ENDBRANCH  23  24
ENDBRANCH   3  23
TORSDOF 9
ENDMDL
MODEL 5
REMARK VINA RESULT:      -7.3      3.738      6.880
REMARK  9 active torsions:
REMARK  status: ('A' for Active; 'I' for Inactive)
REMARK    1  A    between atoms: C_5  and  O_6 
REMARK    2  A    between atoms: O_6  and  C_7 
REMARK    3  A    between atoms: C_7  and  C_8 
REMARK    4  A    between atoms: N_9  and  C_10 
REMARK    5  A    between atoms: C_10  and  C_11 
REMARK    6  A    between atoms: C_11  and  C_12 
REMARK    7  A    between atoms: C_18  and  S_19 
REMARK    8  A    between atoms: S_19  and  C_20 
REMARK    9  A    between atoms: C_20  and  C_21 
REMARK       I    between atoms: C_21  and  N_22 
ROOT
HETATM    1  C   UNL     1     -42.233  59.831 -53.774  1.00  0.00     0.155 A 
HETATM    2  N   UNL     1     -42.289  59.785 -52.393  1.00  0.00    -0.309 N 
HETATM    3  C   UNL     1     -42.812  60.996 -52.020  1.00  0.00     0.192 A 
HETATM    4  N   UNL     1     -43.021  61.738 -53.081  1.00  0.00    -0.123 NA
HETATM    5  N   UNL     1     -42.671  61.008 -54.179  1.00  0.00    -0.132 NA
ENDROOT
BRANCH   1   6
HETATM    6  C   UNL     1     -41.709  58.768 -54.677  1.00  0.00     0.256 C 
BRANCH   6   7
HETATM    7  O   UNL     1     -42.734  57.795 -54.852  1.00  0.00    -0.344 OA
BRANCH   7   8
HETATM    8  C   UNL     1     -42.349  56.484 -54.775  1.00  0.00     0.069 A 
HETATM    9  C   UNL     1     -41.024  56.287 -54.386  1.00  0.00     0.037 A 
HETATM   10  C   UNL     1     -40.506  54.997 -54.249  1.00  0.00     0.009 A 
HETATM   11  C   UNL     1     -41.307  53.884 -54.517  1.00  0.00    -0.062 A 
HETATM   12  C   UNL     1     -40.780  52.492 -54.333  1.00  0.00     0.048 C 
HETATM   13  C   UNL     1     -42.635  54.084 -54.912  1.00  0.00     0.009 A 
HETATM   14  C   UNL     1     -43.153  55.377 -55.046  1.00  0.00     0.037 A 
ENDBRANCH   7   8
ENDBRANCH   6   7
ENDBRANCH   1   6
BRANCH   2  15
HETATM   15  C   UNL     1     -41.893  58.686 -51.531  1.00  0.00     0.137 C 
BRANCH  15  16
HETATM   16  C   UNL     1     -43.018  57.677 -51.296  1.00  0.00     0.059 C 
BRANCH  16  17
HETATM   17  C   UNL     1     -42.493  56.277 -51.104  1.00  0.00    -0.057 A 
HETATM   18  C   UNL     1     -41.174  56.057 -50.685  1.00  0.00     0.007 A 
HETATM   19  C   UNL     1     -40.696  54.756 -50.517  1.00  0.00     0.001 A 
HETATM   20  C   UNL     1     -41.528  53.666 -50.768  1.00  0.00     0.000 A 
HETATM   21  C   UNL     1     -42.839  53.876 -51.190  1.00  0.00     0.001 A 
HETATM   22  C   UNL     1     -43.319  55.174 -51.361  1.00  0.00     0.007 A 
ENDBRANCH  16  17
ENDBRANCH  15  16
ENDBRANCH   2  15
BRANCH   3  23
HETATM   23  S   UNL     1     -43.159  61.470 -50.395  1.00  0.00    -0.081 SA
BRANCH  23  24
HETATM   24  C   UNL     1     -44.774  60.675 -50.138  1.00  0.00     0.185 C 
BRANCH  24  25
HETATM   25  C   UNL     1     -45.378  61.091 -48.806  1.00  0.00     0.226 C 
HETATM   26  N   UNL     1     -44.583  60.827 -47.709  1.00  0.00    -0.365 N 
HETATM   27  C   UNL     1     -44.976  61.262 -46.394  1.00  0.00     0.149 C 
HETATM   28  H   UNL     1     -43.583  60.719 -47.885  1.00  0.00     0.161 HD
HETATM   29  O   UNL     1     -46.488  61.610 -48.724  1.00  0.00    -0.273 OA
ENDBRANCH  24  25
ENDBRANCH  23  24
ENDBRANCH   3  23
TORSDOF 9
ENDMDL
MODEL 6
REMARK VINA RESULT:      -7.2      2.110      7.151
REMARK  9 active torsions:
REMARK  status: ('A' for Active; 'I' for Inactive)
REMARK    1  A    between atoms: C_5  and  O_6 
REMARK    2  A    between atoms: O_6  and  C_7 
REMARK    3  A    between atoms: C_7  and  C_8 
REMARK    4  A    between atoms: N_9  and  C_10 
REMARK    5  A    between atoms: C_10  and  C_11 
REMARK    6  A    between atoms: C_11  and  C_12 
REMARK    7  A    between atoms: C_18  and  S_19 
REMARK    8  A    between atoms: S_19  and  C_20 
REMARK    9  A    between atoms: C_20  and  C_21 
REMARK       I    between atoms: C_21  and  N_22 
ROOT
HETATM    1  C   UNL     1     -42.569  56.383 -56.165  1.00  0.00     0.155 A 
HETATM    2  N   UNL     1     -42.205  55.920 -54.915  1.00  0.00    -0.309 N 
HETATM    3  C   UNL     1     -41.922  57.048 -54.188  1.00  0.00     0.192 A 
HETATM    4  N   UNL     1     -42.062  58.111 -54.942  1.00  0.00    -0.123 NA
HETATM    5  N   UNL     1     -42.477  57.700 -56.175  1.00  0.00    -0.132 NA
ENDROOT
BRANCH   1   6
HETATM    6  C   UNL     1     -42.944  55.553 -57.344  1.00  0.00     0.256 C 
BRANCH   6   7
HETATM    7  O   UNL     1     -42.990  56.405 -58.484  1.00  0.00    -0.344 OA
BRANCH   7   8
HETATM    8  C   UNL     1     -44.123  56.341 -59.248  1.00  0.00     0.069 A 
HETATM    9  C   UNL     1     -45.098  57.286 -58.925  1.00  0.00     0.037 A 
HETATM   10  C   UNL     1     -46.298  57.343 -59.638  1.00  0.00     0.009 A 
HETATM   11  C   UNL     1     -46.544  56.442 -60.677  1.00  0.00    -0.062 A 
HETATM   12  C   UNL     1     -47.808  56.518 -61.481  1.00  0.00     0.048 C 
HETATM   13  C   UNL     1     -45.567  55.492 -60.996  1.00  0.00     0.009 A 
HETATM   14  C   UNL     1     -44.365  55.437 -60.282  1.00  0.00     0.037 A 
ENDBRANCH   7   8
ENDBRANCH   6   7
ENDBRANCH   1   6
BRANCH   2  15
HETATM   15  C   UNL     1     -42.150  54.539 -54.468  1.00  0.00     0.137 C 
BRANCH  15  16
HETATM   16  C   UNL     1     -40.837  53.846 -54.833  1.00  0.00     0.059 C 
BRANCH  16  17
HETATM   17  C   UNL     1     -40.394  52.873 -53.769  1.00  0.00    -0.057 A 
HETATM   18  C   UNL     1     -40.298  53.271 -52.430  1.00  0.00     0.007 A 
HETATM   19  C   UNL     1     -39.880  52.364 -51.454  1.00  0.00     0.001 A 
HETATM   20  C   UNL     1     -39.552  51.056 -51.808  1.00  0.00     0.000 A 
HETATM   21  C   UNL     1     -39.640  50.654 -53.139  1.00  0.00     0.001 A 
HETATM   22  C   UNL     1     -40.055  51.558 -54.116  1.00  0.00     0.007 A 
ENDBRANCH  16  17
ENDBRANCH  15  16
ENDBRANCH   2  15
BRANCH   3  23
HETATM   23  S   UNL     1     -41.465  57.068 -52.521  1.00  0.00    -0.081 SA
BRANCH  23  24
HETATM   24  C   UNL     1     -42.940  57.816 -51.766  1.00  0.00     0.185 C 
BRANCH  24  25
HETATM   25  C   UNL     1     -43.835  56.751 -51.153  1.00  0.00     0.226 C 
HETATM   26  N   UNL     1     -43.298  55.479 -51.156  1.00  0.00    -0.365 N 
HETATM   27  C   UNL     1     -43.983  54.388 -50.513  1.00  0.00     0.149 C 
HETATM   28  H   UNL     1     -42.281  55.413 -51.227  1.00  0.00     0.161 HD
HETATM   29  O   UNL     1     -44.948  57.009 -50.702  1.00  0.00    -0.273 OA
ENDBRANCH  24  25
ENDBRANCH  23  24
ENDBRANCH   3  23
TORSDOF 9
ENDMDL
MODEL 7
REMARK VINA RESULT:      -7.2      2.594      7.402
REMARK  9 active torsions:
REMARK  status: ('A' for Active; 'I' for Inactive)
REMARK    1  A    between atoms: C_5  and  O_6 
REMARK    2  A    between atoms: O_6  and  C_7 
REMARK    3  A    between atoms: C_7  and  C_8 
REMARK    4  A    between atoms: N_9  and  C_10 
REMARK    5  A    between atoms: C_10  and  C_11 
REMARK    6  A    between atoms: C_11  and  C_12 
REMARK    7  A    between atoms: C_18  and  S_19 
REMARK    8  A    between atoms: S_19  and  C_20 
REMARK    9  A    between atoms: C_20  and  C_21 
REMARK       I    between atoms: C_21  and  N_22 
ROOT
HETATM    1  C   UNL     1     -42.626  56.028 -54.820  1.00  0.00     0.155 A 
HETATM    2  N   UNL     1     -42.458  55.328 -53.641  1.00  0.00    -0.309 N 
HETATM    3  C   UNL     1     -42.726  56.236 -52.649  1.00  0.00     0.192 A 
HETATM    4  N   UNL     1     -42.997  57.406 -53.176  1.00  0.00    -0.123 NA
HETATM    5  N   UNL     1     -42.946  57.276 -54.533  1.00  0.00    -0.132 NA
ENDROOT
BRANCH   1   6
HETATM    6  C   UNL     1     -42.423  55.504 -56.200  1.00  0.00     0.256 C 
BRANCH   6   7
HETATM    7  O   UNL     1     -42.629  56.578 -57.113  1.00  0.00    -0.344 OA
BRANCH   7   8
HETATM    8  C   UNL     1     -43.607  56.400 -58.052  1.00  0.00     0.069 A 
HETATM    9  C   UNL     1     -44.555  57.423 -58.109  1.00  0.00     0.037 A 
HETATM   10  C   UNL     1     -45.599  57.376 -59.035  1.00  0.00     0.009 A 
HETATM   11  C   UNL     1     -45.716  56.293 -59.910  1.00  0.00    -0.062 A 
HETATM   12  C   UNL     1     -46.806  56.249 -60.941  1.00  0.00     0.048 C 
HETATM   13  C   UNL     1     -44.768  55.266 -59.850  1.00  0.00     0.009 A 
HETATM   14  C   UNL     1     -43.722  55.315 -58.922  1.00  0.00     0.037 A 
ENDBRANCH   7   8
ENDBRANCH   6   7
ENDBRANCH   1   6
BRANCH   2  15
HETATM   15  C   UNL     1     -42.092  53.931 -53.489  1.00  0.00     0.137 C 
BRANCH  15  16
HETATM   16  C   UNL     1     -40.582  53.719 -53.374  1.00  0.00     0.059 C 
BRANCH  16  17
HETATM   17  C   UNL     1     -40.223  52.262 -53.231  1.00  0.00    -0.057 A 
HETATM   18  C   UNL     1     -40.342  51.385 -54.316  1.00  0.00     0.007 A 
HETATM   19  C   UNL     1     -40.014  50.035 -54.170  1.00  0.00     0.001 A 
HETATM   20  C   UNL     1     -39.569  49.552 -52.941  1.00  0.00     0.000 A 
HETATM   21  C   UNL     1     -39.454  50.417 -51.854  1.00  0.00     0.001 A 
HETATM   22  C   UNL     1     -39.782  51.764 -51.997  1.00  0.00     0.007 A 
ENDBRANCH  16  17
ENDBRANCH  15  16
ENDBRANCH   2  15
BRANCH   3  23
HETATM   23  S   UNL     1     -42.725  55.889 -50.956  1.00  0.00    -0.081 SA
BRANCH  23  24
HETATM   24  C   UNL     1     -41.001  56.271 -50.525  1.00  0.00     0.185 C 
BRANCH  24  25
HETATM   25  C   UNL     1     -40.369  55.126 -49.749  1.00  0.00     0.226 C 
HETATM   26  N   UNL     1     -41.059  54.754 -48.612  1.00  0.00    -0.365 N 
HETATM   27  C   UNL     1     -40.640  53.616 -47.836  1.00  0.00     0.149 C 
HETATM   28  H   UNL     1     -42.048  55.003 -48.577  1.00  0.00     0.161 HD
HETATM   29  O   UNL     1     -39.323  54.589 -50.107  1.00  0.00    -0.273 OA
ENDBRANCH  24  25
ENDBRANCH  23  24
ENDBRANCH   3  23
TORSDOF 9
ENDMDL
MODEL 8
REMARK VINA RESULT:      -7.1      1.887      4.196
REMARK  9 active torsions:
REMARK  status: ('A' for Active; 'I' for Inactive)
REMARK    1  A    between atoms: C_5  and  O_6 
REMARK    2  A    between atoms: O_6  and  C_7 
REMARK    3  A    between atoms: C_7  and  C_8 
REMARK    4  A    between atoms: N_9  and  C_10 
REMARK    5  A    between atoms: C_10  and  C_11 
REMARK    6  A    between atoms: C_11  and  C_12 
REMARK    7  A    between atoms: C_18  and  S_19 
REMARK    8  A    between atoms: S_19  and  C_20 
REMARK    9  A    between atoms: C_20  and  C_21 
REMARK       I    between atoms: C_21  and  N_22 
ROOT
HETATM    1  C   UNL     1     -41.670  55.572 -55.268  1.00  0.00     0.155 A 
HETATM    2  N   UNL     1     -42.251  56.806 -55.041  1.00  0.00    -0.309 N 
HETATM    3  C   UNL     1     -43.218  56.924 -56.005  1.00  0.00     0.192 A 
HETATM    4  N   UNL     1     -43.205  55.869 -56.784  1.00  0.00    -0.123 NA
HETATM    5  N   UNL     1     -42.246  55.017 -56.319  1.00  0.00    -0.132 NA
ENDROOT
BRANCH   1   6
HETATM    6  C   UNL     1     -40.537  54.972 -54.511  1.00  0.00     0.256 C 
BRANCH   6   7
HETATM    7  O   UNL     1     -40.460  53.592 -54.854  1.00  0.00    -0.344 OA
BRANCH   7   8
HETATM    8  C   UNL     1     -40.218  52.721 -53.828  1.00  0.00     0.069 A 
HETATM    9  C   UNL     1     -39.968  51.406 -54.224  1.00  0.00     0.037 A 
HETATM   10  C   UNL     1     -39.688  50.418 -53.278  1.00  0.00     0.009 A 
HETATM   11  C   UNL     1     -39.668  50.731 -51.917  1.00  0.00    -0.062 A 
HETATM   12  C   UNL     1     -39.325  49.691 -50.891  1.00  0.00     0.048 C 
HETATM   13  C   UNL     1     -39.923  52.049 -51.520  1.00  0.00     0.009 A 
HETATM   14  C   UNL     1     -40.202  53.038 -52.469  1.00  0.00     0.037 A 
ENDBRANCH   7   8
ENDBRANCH   6   7
ENDBRANCH   1   6
BRANCH   2  15
HETATM   15  C   UNL     1     -41.916  57.759 -53.999  1.00  0.00     0.137 C 
BRANCH  15  16
HETATM   16  C   UNL     1     -42.923  57.761 -52.847  1.00  0.00     0.059 C 
BRANCH  16  17
HETATM   17  C   UNL     1     -42.602  56.714 -51.812  1.00  0.00    -0.057 A 
HETATM   18  C   UNL     1     -41.524  56.881 -50.934  1.00  0.00     0.007 A 
HETATM   19  C   UNL     1     -41.231  55.901 -49.983  1.00  0.00     0.001 A 
HETATM   20  C   UNL     1     -42.009  54.747 -49.904  1.00  0.00     0.000 A 
HETATM   21  C   UNL     1     -43.080  54.570 -50.777  1.00  0.00     0.001 A 
HETATM   22  C   UNL     1     -43.373  55.547 -51.729  1.00  0.00     0.007 A 
ENDBRANCH  16  17
ENDBRANCH  15  16
ENDBRANCH   2  15
BRANCH   3  23
HETATM   23  S   UNL     1     -44.307  58.258 -56.164  1.00  0.00    -0.081 SA
BRANCH  23  24
HETATM   24  C   UNL     1     -43.866  58.872 -57.817  1.00  0.00     0.185 C 
BRANCH  24  25
HETATM   25  C   UNL     1     -44.943  58.521 -58.831  1.00  0.00     0.226 C 
HETATM   26  N   UNL     1     -45.617  57.345 -58.569  1.00  0.00    -0.365 N 
HETATM   27  C   UNL     1     -46.734  56.940 -59.381  1.00  0.00     0.149 C 
HETATM   28  H   UNL     1     -45.598  57.015 -57.603  1.00  0.00     0.161 HD
HETATM   29  O   UNL     1     -45.180  59.229 -59.807  1.00  0.00    -0.273 OA
ENDBRANCH  24  25
ENDBRANCH  23  24
ENDBRANCH   3  23
TORSDOF 9
ENDMDL
MODEL 9
REMARK VINA RESULT:      -7.1      1.999      2.897
REMARK  9 active torsions:
REMARK  status: ('A' for Active; 'I' for Inactive)
REMARK    1  A    between atoms: C_5  and  O_6 
REMARK    2  A    between atoms: O_6  and  C_7 
REMARK    3  A    between atoms: C_7  and  C_8 
REMARK    4  A    between atoms: N_9  and  C_10 
REMARK    5  A    between atoms: C_10  and  C_11 
REMARK    6  A    between atoms: C_11  and  C_12 
REMARK    7  A    between atoms: C_18  and  S_19 
REMARK    8  A    between atoms: S_19  and  C_20 
REMARK    9  A    between atoms: C_20  and  C_21 
REMARK       I    between atoms: C_21  and  N_22 
ROOT
HETATM    1  C   UNL     1     -44.874  58.333 -52.694  1.00  0.00     0.155 A 
HETATM    2  N   UNL     1     -44.613  58.069 -54.025  1.00  0.00    -0.309 N 
HETATM    3  C   UNL     1     -44.985  59.208 -54.691  1.00  0.00     0.192 A 
HETATM    4  N   UNL     1     -45.472  60.083 -53.844  1.00  0.00    -0.123 NA
HETATM    5  N   UNL     1     -45.394  59.542 -52.593  1.00  0.00    -0.132 NA
ENDROOT
BRANCH   1   6
HETATM    6  C   UNL     1     -44.675  57.401 -51.549  1.00  0.00     0.256 C 
BRANCH   6   7
HETATM    7  O   UNL     1     -43.338  57.555 -51.084  1.00  0.00    -0.344 OA
BRANCH   7   8
HETATM    8  C   UNL     1     -42.583  56.417 -51.009  1.00  0.00     0.069 A 
HETATM    9  C   UNL     1     -43.316  55.229 -51.029  1.00  0.00     0.037 A 
HETATM   10  C   UNL     1     -42.669  53.992 -50.977  1.00  0.00     0.009 A 
HETATM   11  C   UNL     1     -41.276  53.929 -50.887  1.00  0.00    -0.062 A 
HETATM   12  C   UNL     1     -40.563  52.609 -50.875  1.00  0.00     0.048 C 
HETATM   13  C   UNL     1     -40.543  55.121 -50.862  1.00  0.00     0.009 A 
HETATM   14  C   UNL     1     -41.193  56.359 -50.916  1.00  0.00     0.037 A 
ENDBRANCH   7   8
ENDBRANCH   6   7
ENDBRANCH   1   6
BRANCH   2  15
HETATM   15  C   UNL     1     -44.052  56.855 -54.590  1.00  0.00     0.137 C 
BRANCH  15  16
HETATM   16  C   UNL     1     -42.525  56.891 -54.685  1.00  0.00     0.059 C 
BRANCH  16  17
HETATM   17  C   UNL     1     -41.921  55.511 -54.625  1.00  0.00    -0.057 A 
HETATM   18  C   UNL     1     -40.531  55.337 -54.638  1.00  0.00     0.007 A 
HETATM   19  C   UNL     1     -39.983  54.053 -54.590  1.00  0.00     0.001 A 
HETATM   20  C   UNL     1     -40.815  52.937 -54.532  1.00  0.00     0.000 A 
HETATM   21  C   UNL     1     -42.199  53.102 -54.524  1.00  0.00     0.001 A 
HETATM   22  C   UNL     1     -42.750  54.382 -54.574  1.00  0.00     0.007 A 
ENDBRANCH  16  17
ENDBRANCH  15  16
ENDBRANCH   2  15
BRANCH   3  23
HETATM   23  S   UNL     1     -44.822  59.463 -56.393  1.00  0.00    -0.081 SA
BRANCH  23  24
HETATM   24  C   UNL     1     -46.230  58.502 -57.024  1.00  0.00     0.185 C 
BRANCH  24  25
HETATM   25  C   UNL     1     -45.812  57.638 -58.204  1.00  0.00     0.226 C 
HETATM   26  N   UNL     1     -46.856  57.007 -58.850  1.00  0.00    -0.365 N 
HETATM   27  C   UNL     1     -46.625  56.243 -60.049  1.00  0.00     0.149 C 
HETATM   28  H   UNL     1     -47.783  57.419 -58.732  1.00  0.00     0.161 HD
HETATM   29  O   UNL     1     -44.637  57.511 -58.540  1.00  0.00    -0.273 OA
ENDBRANCH  24  25
ENDBRANCH  23  24
ENDBRANCH   3  23
TORSDOF 9
ENDMDL
MODEL 10
REMARK VINA RESULT:      -7.0      1.588      2.099
REMARK  9 active torsions:
REMARK  status: ('A' for Active; 'I' for Inactive)
REMARK    1  A    between atoms: C_5  and  O_6 
REMARK    2  A    between atoms: O_6  and  C_7 
REMARK    3  A    between atoms: C_7  and  C_8 
REMARK    4  A    between atoms: N_9  and  C_10 
REMARK    5  A    between atoms: C_10  and  C_11 
REMARK    6  A    between atoms: C_11  and  C_12 
REMARK    7  A    between atoms: C_18  and  S_19 
REMARK    8  A    between atoms: S_19  and  C_20 
REMARK    9  A    between atoms: C_20  and  C_21 
REMARK       I    between atoms: C_21  and  N_22 
ROOT
HETATM    1  C   UNL     1     -44.197  58.510 -54.496  1.00  0.00     0.155 A 
HETATM    2  N   UNL     1     -43.543  58.152 -55.660  1.00  0.00    -0.309 N 
HETATM    3  C   UNL     1     -44.217  58.805 -56.660  1.00  0.00     0.192 A 
HETATM    4  N   UNL     1     -45.225  59.475 -56.156  1.00  0.00    -0.123 NA
HETATM    5  N   UNL     1     -45.208  59.301 -54.802  1.00  0.00    -0.132 NA
ENDROOT
BRANCH   1   6
HETATM    6  C   UNL     1     -43.877  58.043 -53.118  1.00  0.00     0.256 C 
BRANCH   6   7
HETATM    7  O   UNL     1     -44.180  56.654 -53.043  1.00  0.00    -0.344 OA
BRANCH   7   8
HETATM    8  C   UNL     1     -43.287  55.871 -52.364  1.00  0.00     0.069 A 
HETATM    9  C   UNL     1     -42.017  56.430 -52.212  1.00  0.00     0.037 A 
HETATM   10  C   UNL     1     -41.015  55.745 -51.523  1.00  0.00     0.009 A 
HETATM   11  C   UNL     1     -41.267  54.479 -50.988  1.00  0.00    -0.062 A 
HETATM   12  C   UNL     1     -40.214  53.749 -50.207  1.00  0.00     0.048 C 
HETATM   13  C   UNL     1     -42.539  53.917 -51.145  1.00  0.00     0.009 A 
HETATM   14  C   UNL     1     -43.543  54.606 -51.835  1.00  0.00     0.037 A 
ENDBRANCH   7   8
ENDBRANCH   6   7
ENDBRANCH   1   6
BRANCH   2  15
HETATM   15  C   UNL     1     -42.385  57.285 -55.789  1.00  0.00     0.137 C 
BRANCH  15  16
HETATM   16  C   UNL     1     -42.744  55.877 -56.267  1.00  0.00     0.059 C 
BRANCH  16  17
HETATM   17  C   UNL     1     -41.945  54.816 -55.554  1.00  0.00    -0.057 A 
HETATM   18  C   UNL     1     -42.550  53.625 -55.134  1.00  0.00     0.007 A 
HETATM   19  C   UNL     1     -41.802  52.652 -54.468  1.00  0.00     0.001 A 
HETATM   20  C   UNL     1     -40.448  52.862 -54.214  1.00  0.00     0.000 A 
HETATM   21  C   UNL     1     -39.840  54.046 -54.624  1.00  0.00     0.001 A 
HETATM   22  C   UNL     1     -40.585  55.020 -55.287  1.00  0.00     0.007 A 
ENDBRANCH  16  17
ENDBRANCH  15  16
ENDBRANCH   2  15
BRANCH   3  23
HETATM   23  S   UNL     1     -43.792  58.765 -58.335  1.00  0.00    -0.081 SA
BRANCH  23  24
HETATM   24  C   UNL     1     -45.163  57.785 -59.017  1.00  0.00     0.185 C 
BRANCH  24  25
HETATM   25  C   UNL     1     -44.644  56.543 -59.723  1.00  0.00     0.226 C 
HETATM   26  N   UNL     1     -45.112  55.352 -59.206  1.00  0.00    -0.365 N 
HETATM   27  C   UNL     1     -44.792  54.099 -59.838  1.00  0.00     0.149 C 
HETATM   28  H   UNL     1     -45.981  55.396 -58.672  1.00  0.00     0.161 HD
HETATM   29  O   UNL     1     -43.864  56.605 -60.671  1.00  0.00    -0.273 OA
ENDBRANCH  24  25
ENDBRANCH  23  24
ENDBRANCH   3  23
TORSDOF 9
ENDMDL
