MODEL 1
REMARK VINA RESULT:      -7.4      0.000      0.000
REMARK  4 active torsions:
REMARK  status: ('A' for Active; 'I' for Inactive)
REMARK    1  A    between atoms: C_2  and  O_3 
REMARK    2  A    between atoms: C_2  and  C_12 
REMARK    3  A    between atoms: O_3  and  C_4 
REMARK       I    between atoms: C_12  and  N_13 
REMARK    4  A    between atoms: N_13  and  C_14 
ROOT
HETATM    1  C   UNL     1     -43.244  54.437 -51.951  1.00  0.00     0.050 C 
HETATM    2  C   UNL     1     -42.639  54.170 -53.328  1.00  0.00     0.217 C 
ENDROOT
BRANCH   2   3
HETATM    3  O   UNL     1     -41.198  54.204 -53.287  1.00  0.00    -0.336 OA
BRANCH   3   4
HETATM    4  C   UNL     1     -40.632  52.959 -53.197  1.00  0.00     0.087 A 
HETATM    5  C   UNL     1     -40.030  52.480 -52.028  1.00  0.00     0.047 A 
HETATM    6 BR   UNL     1     -39.956  53.516 -50.440  1.00  0.00    -0.048 Br
HETATM    7  C   UNL     1     -39.504  51.187 -51.997  1.00  0.00     0.064 A 
HETATM    8  C   UNL     1     -39.614  50.378 -53.122  1.00  0.00     0.117 A 
HETATM    9  F   UNL     1     -39.114  49.136 -53.092  1.00  0.00    -0.206 F 
HETATM   10  C   UNL     1     -40.252  50.827 -54.272  1.00  0.00     0.045 A 
HETATM   11  C   UNL     1     -40.774  52.119 -54.306  1.00  0.00     0.041 A 
ENDBRANCH   3   4
ENDBRANCH   2   3
BRANCH   2  12
HETATM   12  C   UNL     1     -43.106  55.246 -54.332  1.00  0.00     0.252 C 
HETATM   13  N   UNL     1     -42.458  55.131 -55.550  1.00  0.00    -0.309 N 
HETATM   14  H   UNL     1     -41.740  54.421 -55.610  1.00  0.00     0.170 HD
HETATM   15  O   UNL     1     -43.997  56.040 -54.050  1.00  0.00    -0.270 OA
BRANCH  13  16
HETATM   16  C   UNL     1     -42.631  55.974 -56.653  1.00  0.00     0.129 A 
HETATM   17  N   UNL     1     -42.265  57.267 -56.597  1.00  0.00    -0.242 NA
HETATM   18  C   UNL     1     -42.433  58.026 -57.706  1.00  0.00     0.142 A 
HETATM   19  C   UNL     1     -42.966  57.548 -58.889  1.00  0.00     0.051 A 
HETATM   20 CL   UNL     1     -43.147  58.566 -60.257  1.00  0.00    -0.083 Cl
HETATM   21  C   UNL     1     -43.349  56.215 -58.939  1.00  0.00     0.029 A 
HETATM   22  C   UNL     1     -43.178  55.416 -57.806  1.00  0.00     0.052 A 
ENDBRANCH  13  16
ENDBRANCH   2  12
TORSDOF 4
ENDMDL
MODEL 2
REMARK VINA RESULT:      -7.2      4.340      5.110
REMARK  4 active torsions:
REMARK  status: ('A' for Active; 'I' for Inactive)
REMARK    1  A    between atoms: C_2  and  O_3 
REMARK    2  A    between atoms: C_2  and  C_12 
REMARK    3  A    between atoms: O_3  and  C_4 
REMARK       I    between atoms: C_12  and  N_13 
REMARK    4  A    between atoms: N_13  and  C_14 
ROOT
HETATM    1  C   UNL     1     -40.448  53.657 -48.778  1.00  0.00     0.050 C 
HETATM    2  C   UNL     1     -40.992  53.713 -50.204  1.00  0.00     0.217 C 
ENDROOT
BRANCH   2   3
HETATM    3  O   UNL     1     -39.927  53.760 -51.175  1.00  0.00    -0.336 OA
BRANCH   3   4
HETATM    4  C   UNL     1     -40.003  52.756 -52.105  1.00  0.00     0.087 A 
HETATM    5  C   UNL     1     -40.333  52.986 -53.446  1.00  0.00     0.047 A 
HETATM    6 BR   UNL     1     -40.693  54.728 -54.107  1.00  0.00    -0.048 Br
HETATM    7  C   UNL     1     -40.358  51.921 -54.348  1.00  0.00     0.064 A 
HETATM    8  C   UNL     1     -40.022  50.645 -53.907  1.00  0.00     0.117 A 
HETATM    9  F   UNL     1     -40.041  49.623 -54.772  1.00  0.00    -0.206 F 
HETATM   10  C   UNL     1     -39.646  50.414 -52.589  1.00  0.00     0.045 A 
HETATM   11  C   UNL     1     -39.625  51.476 -51.687  1.00  0.00     0.041 A 
ENDBRANCH   3   4
ENDBRANCH   2   3
BRANCH   2  12
HETATM   12  C   UNL     1     -41.857  54.979 -50.394  1.00  0.00     0.252 C 
HETATM   13  N   UNL     1     -41.088  56.086 -50.711  1.00  0.00    -0.309 N 
HETATM   14  H   UNL     1     -40.086  55.948 -50.720  1.00  0.00     0.170 HD
HETATM   15  O   UNL     1     -43.081  54.933 -50.325  1.00  0.00    -0.270 OA
BRANCH  13  16
HETATM   16  C   UNL     1     -41.566  57.386 -50.910  1.00  0.00     0.129 A 
HETATM   17  N   UNL     1     -42.680  57.608 -51.630  1.00  0.00    -0.242 NA
HETATM   18  C   UNL     1     -43.108  58.886 -51.765  1.00  0.00     0.142 A 
HETATM   19  C   UNL     1     -42.461  59.974 -51.209  1.00  0.00     0.051 A 
HETATM   20 CL   UNL     1     -43.061  61.566 -51.417  1.00  0.00    -0.083 Cl
HETATM   21  C   UNL     1     -41.308  59.740 -50.474  1.00  0.00     0.029 A 
HETATM   22  C   UNL     1     -40.854  58.427 -50.320  1.00  0.00     0.052 A 
ENDBRANCH  13  16
ENDBRANCH   2  12
TORSDOF 4
ENDMDL
MODEL 3
REMARK VINA RESULT:      -7.0      3.927      4.860
REMARK  4 active torsions:
REMARK  status: ('A' for Active; 'I' for Inactive)
REMARK    1  A    between atoms: C_2  and  O_3 
REMARK    2  A    between atoms: C_2  and  C_12 
REMARK    3  A    between atoms: O_3  and  C_4 
REMARK       I    between atoms: C_12  and  N_13 
REMARK    4  A    between atoms: N_13  and  C_14 
ROOT
HETATM    1  C   UNL     1     -43.439  53.903 -51.523  1.00  0.00     0.050 C 
HETATM    2  C   UNL     1     -42.891  54.624 -52.753  1.00  0.00     0.217 C 
ENDROOT
BRANCH   2   3
HETATM    3  O   UNL     1     -41.452  54.720 -52.712  1.00  0.00    -0.336 OA
BRANCH   3   4
HETATM    4  C   UNL     1     -40.827  53.513 -52.887  1.00  0.00     0.087 A 
HETATM    5  C   UNL     1     -40.084  52.889 -51.878  1.00  0.00     0.047 A 
HETATM    6 BR   UNL     1     -39.888  53.658 -50.154  1.00  0.00    -0.048 Br
HETATM    7  C   UNL     1     -39.502  51.642 -52.114  1.00  0.00     0.064 A 
HETATM    8  C   UNL     1     -39.695  51.020 -53.342  1.00  0.00     0.117 A 
HETATM    9  F   UNL     1     -39.141  49.822 -53.568  1.00  0.00    -0.206 F 
HETATM   10  C   UNL     1     -40.470  51.609 -54.334  1.00  0.00     0.045 A 
HETATM   11  C   UNL     1     -41.048  52.856 -54.102  1.00  0.00     0.041 A 
ENDBRANCH   3   4
ENDBRANCH   2   3
BRANCH   2  12
HETATM   12  C   UNL     1     -43.456  56.059 -52.825  1.00  0.00     0.252 C 
HETATM   13  N   UNL     1     -43.620  56.613 -51.567  1.00  0.00    -0.309 N 
HETATM   14  H   UNL     1     -43.414  56.009 -50.782  1.00  0.00     0.170 HD
HETATM   15  O   UNL     1     -43.654  56.615 -53.901  1.00  0.00    -0.270 OA
BRANCH  13  16
HETATM   16  C   UNL     1     -44.143  57.881 -51.292  1.00  0.00     0.129 A 
HETATM   17  N   UNL     1     -45.433  58.033 -50.945  1.00  0.00    -0.242 NA
HETATM   18  C   UNL     1     -45.875  59.283 -50.665  1.00  0.00     0.142 A 
HETATM   19  C   UNL     1     -45.075  60.409 -50.721  1.00  0.00     0.051 A 
HETATM   20 CL   UNL     1     -45.700  61.962 -50.349  1.00  0.00    -0.083 Cl
HETATM   21  C   UNL     1     -43.747  60.247 -51.086  1.00  0.00     0.029 A 
HETATM   22  C   UNL     1     -43.272  58.965 -51.375  1.00  0.00     0.052 A 
ENDBRANCH  13  16
ENDBRANCH   2  12
TORSDOF 4
ENDMDL
MODEL 4
REMARK VINA RESULT:      -7.0      2.431      3.162
REMARK  4 active torsions:
REMARK  status: ('A' for Active; 'I' for Inactive)
REMARK    1  A    between atoms: C_2  and  O_3 
REMARK    2  A    between atoms: C_2  and  C_12 
REMARK    3  A    between atoms: O_3  and  C_4 
REMARK       I    between atoms: C_12  and  N_13 
REMARK    4  A    between atoms: N_13  and  C_14 
ROOT
HETATM    1  C   UNL     1     -40.233  53.910 -55.065  1.00  0.00     0.050 C 
HETATM    2  C   UNL     1     -41.339  54.431 -54.149  1.00  0.00     0.217 C 
ENDROOT
BRANCH   2   3
HETATM    3  O   UNL     1     -41.817  53.401 -53.259  1.00  0.00    -0.336 OA
BRANCH   3   4
HETATM    4  C   UNL     1     -41.545  53.660 -51.942  1.00  0.00     0.087 A 
HETATM    5  C   UNL     1     -40.553  52.981 -51.223  1.00  0.00     0.047 A 
HETATM    6 BR   UNL     1     -39.474  51.641 -52.022  1.00  0.00    -0.048 Br
HETATM    7  C   UNL     1     -40.305  53.320 -49.891  1.00  0.00     0.064 A 
HETATM    8  C   UNL     1     -41.028  54.353 -49.304  1.00  0.00     0.117 A 
HETATM    9  F   UNL     1     -40.788  54.682 -48.028  1.00  0.00    -0.206 F 
HETATM   10  C   UNL     1     -41.982  55.064 -50.023  1.00  0.00     0.045 A 
HETATM   11  C   UNL     1     -42.233  54.724 -51.350  1.00  0.00     0.041 A 
ENDBRANCH   3   4
ENDBRANCH   2   3
BRANCH   2  12
HETATM   12  C   UNL     1     -42.539  54.920 -54.989  1.00  0.00     0.252 C 
HETATM   13  N   UNL     1     -42.131  55.562 -56.147  1.00  0.00    -0.309 N 
HETATM   14  H   UNL     1     -41.133  55.680 -56.265  1.00  0.00     0.170 HD
HETATM   15  O   UNL     1     -43.694  54.681 -54.654  1.00  0.00    -0.270 OA
BRANCH  13  16
HETATM   16  C   UNL     1     -42.972  56.149 -57.098  1.00  0.00     0.129 A 
HETATM   17  N   UNL     1     -43.544  57.344 -56.868  1.00  0.00    -0.242 NA
HETATM   18  C   UNL     1     -44.327  57.873 -57.838  1.00  0.00     0.142 A 
HETATM   19  C   UNL     1     -44.577  57.250 -59.047  1.00  0.00     0.051 A 
HETATM   20 CL   UNL     1     -45.577  57.980 -60.234  1.00  0.00    -0.083 Cl
HETATM   21  C   UNL     1     -43.990  56.014 -59.276  1.00  0.00     0.029 A 
HETATM   22  C   UNL     1     -43.174  55.454 -58.289  1.00  0.00     0.052 A 
ENDBRANCH  13  16
ENDBRANCH   2  12
TORSDOF 4
ENDMDL
MODEL 5
REMARK VINA RESULT:      -7.0      2.298      3.078
REMARK  4 active torsions:
REMARK  status: ('A' for Active; 'I' for Inactive)
REMARK    1  A    between atoms: C_2  and  O_3 
REMARK    2  A    between atoms: C_2  and  C_12 
REMARK    3  A    between atoms: O_3  and  C_4 
REMARK       I    between atoms: C_12  and  N_13 
REMARK    4  A    between atoms: N_13  and  C_14 
ROOT
HETATM    1  C   UNL     1     -41.236  55.444 -49.964  1.00  0.00     0.050 C 
HETATM    2  C   UNL     1     -41.448  54.361 -51.020  1.00  0.00     0.217 C 
ENDROOT
BRANCH   2   3
HETATM    3  O   UNL     1     -40.258  54.150 -51.808  1.00  0.00    -0.336 OA
BRANCH   3   4
HETATM    4  C   UNL     1     -40.090  52.845 -52.189  1.00  0.00     0.087 A 
HETATM    5  C   UNL     1     -40.085  52.439 -53.529  1.00  0.00     0.047 A 
HETATM    6 BR   UNL     1     -40.299  53.675 -54.953  1.00  0.00    -0.048 Br
HETATM    7  C   UNL     1     -39.873  51.096 -53.848  1.00  0.00     0.064 A 
HETATM    8  C   UNL     1     -39.636  50.182 -52.827  1.00  0.00     0.117 A 
HETATM    9  F   UNL     1     -39.428  48.895 -53.132  1.00  0.00    -0.206 F 
HETATM   10  C   UNL     1     -39.591  50.582 -51.497  1.00  0.00     0.045 A 
HETATM   11  C   UNL     1     -39.807  51.921 -51.177  1.00  0.00     0.041 A 
ENDBRANCH   3   4
ENDBRANCH   2   3
BRANCH   2  12
HETATM   12  C   UNL     1     -42.583  54.771 -51.984  1.00  0.00     0.252 C 
HETATM   13  N   UNL     1     -42.248  55.889 -52.729  1.00  0.00    -0.309 N 
HETATM   14  H   UNL     1     -41.358  56.320 -52.515  1.00  0.00     0.170 HD
HETATM   15  O   UNL     1     -43.610  54.108 -52.082  1.00  0.00    -0.270 OA
BRANCH  13  16
HETATM   16  C   UNL     1     -43.071  56.529 -53.662  1.00  0.00     0.129 A 
HETATM   17  N   UNL     1     -42.860  56.384 -54.981  1.00  0.00    -0.242 NA
HETATM   18  C   UNL     1     -43.707  57.007 -55.835  1.00  0.00     0.142 A 
HETATM   19  C   UNL     1     -44.772  57.788 -55.425  1.00  0.00     0.051 A 
HETATM   20 CL   UNL     1     -45.809  58.545 -56.562  1.00  0.00    -0.083 Cl
HETATM   21  C   UNL     1     -44.981  57.940 -54.062  1.00  0.00     0.029 A 
HETATM   22  C   UNL     1     -44.120  57.301 -53.166  1.00  0.00     0.052 A 
ENDBRANCH  13  16
ENDBRANCH   2  12
TORSDOF 4
ENDMDL
MODEL 6
REMARK VINA RESULT:      -6.8      1.979      2.441
REMARK  4 active torsions:
REMARK  status: ('A' for Active; 'I' for Inactive)
REMARK    1  A    between atoms: C_2  and  O_3 
REMARK    2  A    between atoms: C_2  and  C_12 
REMARK    3  A    between atoms: O_3  and  C_4 
REMARK       I    between atoms: C_12  and  N_13 
REMARK    4  A    between atoms: N_13  and  C_14 
ROOT
HETATM    1  C   UNL     1     -42.859  57.577 -52.148  1.00  0.00     0.050 C 
HETATM    2  C   UNL     1     -42.613  56.125 -52.553  1.00  0.00     0.217 C 
ENDROOT
BRANCH   2   3
HETATM    3  O   UNL     1     -41.205  55.844 -52.687  1.00  0.00    -0.336 OA
BRANCH   3   4
HETATM    4  C   UNL     1     -40.859  54.598 -52.233  1.00  0.00     0.087 A 
HETATM    5  C   UNL     1     -40.449  53.566 -53.086  1.00  0.00     0.047 A 
HETATM    6 BR   UNL     1     -40.319  53.807 -54.963  1.00  0.00    -0.048 Br
HETATM    7  C   UNL     1     -40.078  52.330 -52.552  1.00  0.00     0.064 A 
HETATM    8  C   UNL     1     -40.089  52.151 -51.173  1.00  0.00     0.117 A 
HETATM    9  F   UNL     1     -39.729  50.968 -50.660  1.00  0.00    -0.206 F 
HETATM   10  C   UNL     1     -40.449  53.184 -50.315  1.00  0.00     0.045 A 
HETATM   11  C   UNL     1     -40.824  54.417 -50.847  1.00  0.00     0.041 A 
ENDBRANCH   3   4
ENDBRANCH   2   3
BRANCH   2  12
HETATM   12  C   UNL     1     -43.282  55.832 -53.914  1.00  0.00     0.252 C 
HETATM   13  N   UNL     1     -42.863  56.714 -54.896  1.00  0.00    -0.309 N 
HETATM   14  H   UNL     1     -42.240  57.453 -54.597  1.00  0.00     0.170 HD
HETATM   15  O   UNL     1     -44.036  54.876 -54.064  1.00  0.00    -0.270 OA
BRANCH  13  16
HETATM   16  C   UNL     1     -43.308  56.737 -56.222  1.00  0.00     0.129 A 
HETATM   17  N   UNL     1     -44.201  57.654 -56.633  1.00  0.00    -0.242 NA
HETATM   18  C   UNL     1     -44.574  57.641 -57.935  1.00  0.00     0.142 A 
HETATM   19  C   UNL     1     -44.093  56.735 -58.862  1.00  0.00     0.051 A 
HETATM   20 CL   UNL     1     -44.606  56.779 -60.498  1.00  0.00    -0.083 Cl
HETATM   21  C   UNL     1     -43.177  55.786 -58.430  1.00  0.00     0.029 A 
HETATM   22  C   UNL     1     -42.777  55.787 -57.091  1.00  0.00     0.052 A 
ENDBRANCH  13  16
ENDBRANCH   2  12
TORSDOF 4
ENDMDL
MODEL 7
REMARK VINA RESULT:      -6.6      5.545      7.714
REMARK  4 active torsions:
REMARK  status: ('A' for Active; 'I' for Inactive)
REMARK    1  A    between atoms: C_2  and  O_3 
REMARK    2  A    between atoms: C_2  and  C_12 
REMARK    3  A    between atoms: O_3  and  C_4 
REMARK       I    between atoms: C_12  and  N_13 
REMARK    4  A    between atoms: N_13  and  C_14 
ROOT
HETATM    1  C   UNL     1     -44.361  56.580 -50.895  1.00  0.00     0.050 C 
HETATM    2  C   UNL     1     -42.869  56.371 -51.151  1.00  0.00     0.217 C 
ENDROOT
BRANCH   2   3
HETATM    3  O   UNL     1     -42.379  57.262 -52.174  1.00  0.00    -0.336 OA
BRANCH   3   4
HETATM    4  C   UNL     1     -42.416  58.580 -51.802  1.00  0.00     0.087 A 
HETATM    5  C   UNL     1     -43.266  59.516 -52.404  1.00  0.00     0.047 A 
HETATM    6 BR   UNL     1     -44.467  59.035 -53.791  1.00  0.00    -0.048 Br
HETATM    7  C   UNL     1     -43.276  60.837 -51.951  1.00  0.00     0.064 A 
HETATM    8  C   UNL     1     -42.461  61.199 -50.883  1.00  0.00     0.117 A 
HETATM    9  F   UNL     1     -42.474  62.465 -50.446  1.00  0.00    -0.206 F 
HETATM   10  C   UNL     1     -41.649  60.267 -50.249  1.00  0.00     0.045 A 
HETATM   11  C   UNL     1     -41.635  58.949 -50.702  1.00  0.00     0.041 A 
ENDBRANCH   3   4
ENDBRANCH   2   3
BRANCH   2  12
HETATM   12  C   UNL     1     -42.608  54.924 -51.623  1.00  0.00     0.252 C 
HETATM   13  N   UNL     1     -41.300  54.747 -52.044  1.00  0.00    -0.309 N 
HETATM   14  H   UNL     1     -40.715  55.572 -52.048  1.00  0.00     0.170 HD
HETATM   15  O   UNL     1     -43.475  54.060 -51.548  1.00  0.00    -0.270 OA
BRANCH  13  16
HETATM   16  C   UNL     1     -40.759  53.565 -52.561  1.00  0.00     0.129 A 
HETATM   17  N   UNL     1     -40.001  52.761 -51.796  1.00  0.00    -0.242 NA
HETATM   18  C   UNL     1     -39.528  51.617 -52.345  1.00  0.00     0.142 A 
HETATM   19  C   UNL     1     -39.776  51.234 -53.651  1.00  0.00     0.051 A 
HETATM   20 CL   UNL     1     -39.147  49.768 -54.281  1.00  0.00    -0.083 Cl
HETATM   21  C   UNL     1     -40.553  52.071 -54.439  1.00  0.00     0.029 A 
HETATM   22  C   UNL     1     -41.054  53.253 -53.887  1.00  0.00     0.052 A 
ENDBRANCH  13  16
ENDBRANCH   2  12
TORSDOF 4
ENDMDL
MODEL 8
REMARK VINA RESULT:      -6.5      3.684      4.463
REMARK  4 active torsions:
REMARK  status: ('A' for Active; 'I' for Inactive)
REMARK    1  A    between atoms: C_2  and  O_3 
REMARK    2  A    between atoms: C_2  and  C_12 
REMARK    3  A    between atoms: O_3  and  C_4 
REMARK       I    between atoms: C_12  and  N_13 
REMARK    4  A    between atoms: N_13  and  C_14 
ROOT
HETATM    1  C   UNL     1     -42.859  55.449 -56.397  1.00  0.00     0.050 C 
HETATM    2  C   UNL     1     -42.232  55.363 -55.006  1.00  0.00     0.217 C 
ENDROOT
BRANCH   2   3
HETATM    3  O   UNL     1     -42.734  54.230 -54.270  1.00  0.00    -0.336 OA
BRANCH   3   4
HETATM    4  C   UNL     1     -41.756  53.553 -53.590  1.00  0.00     0.087 A 
HETATM    5  C   UNL     1     -41.648  53.572 -52.194  1.00  0.00     0.047 A 
HETATM    6 BR   UNL     1     -42.870  54.533 -51.106  1.00  0.00    -0.048 Br
HETATM    7  C   UNL     1     -40.646  52.831 -51.564  1.00  0.00     0.064 A 
HETATM    8  C   UNL     1     -39.785  52.056 -52.333  1.00  0.00     0.117 A 
HETATM    9  F   UNL     1     -38.827  51.341 -51.729  1.00  0.00    -0.206 F 
HETATM   10  C   UNL     1     -39.913  51.992 -53.715  1.00  0.00     0.045 A 
HETATM   11  C   UNL     1     -40.910  52.735 -54.346  1.00  0.00     0.041 A 
ENDBRANCH   3   4
ENDBRANCH   2   3
BRANCH   2  12
HETATM   12  C   UNL     1     -42.561  56.635 -54.194  1.00  0.00     0.252 C 
HETATM   13  N   UNL     1     -43.913  56.731 -53.911  1.00  0.00    -0.309 N 
HETATM   14  H   UNL     1     -44.506  56.014 -54.309  1.00  0.00     0.170 HD
HETATM   15  O   UNL     1     -41.679  57.398 -53.816  1.00  0.00    -0.270 OA
BRANCH  13  16
HETATM   16  C   UNL     1     -44.534  57.780 -53.226  1.00  0.00     0.129 A 
HETATM   17  N   UNL     1     -44.768  57.697 -51.904  1.00  0.00    -0.242 NA
HETATM   18  C   UNL     1     -45.348  58.756 -51.291  1.00  0.00     0.142 A 
HETATM   19  C   UNL     1     -45.719  59.914 -51.949  1.00  0.00     0.051 A 
HETATM   20 CL   UNL     1     -46.446  61.220 -51.109  1.00  0.00    -0.083 Cl
HETATM   21  C   UNL     1     -45.482  59.992 -53.314  1.00  0.00     0.029 A 
HETATM   22  C   UNL     1     -44.880  58.911 -53.963  1.00  0.00     0.052 A 
ENDBRANCH  13  16
ENDBRANCH   2  12
TORSDOF 4
ENDMDL
MODEL 9
REMARK VINA RESULT:      -6.4      2.058      2.829
REMARK  4 active torsions:
REMARK  status: ('A' for Active; 'I' for Inactive)
REMARK    1  A    between atoms: C_2  and  O_3 
REMARK    2  A    between atoms: C_2  and  C_12 
REMARK    3  A    between atoms: O_3  and  C_4 
REMARK       I    between atoms: C_12  and  N_13 
REMARK    4  A    between atoms: N_13  and  C_14 
ROOT
HETATM    1  C   UNL     1     -44.029  55.623 -54.381  1.00  0.00     0.050 C 
HETATM    2  C   UNL     1     -42.906  55.698 -55.414  1.00  0.00     0.217 C 
ENDROOT
BRANCH   2   3
HETATM    3  O   UNL     1     -41.633  55.967 -54.793  1.00  0.00    -0.336 OA
BRANCH   3   4
HETATM    4  C   UNL     1     -41.101  54.873 -54.161  1.00  0.00     0.087 A 
HETATM    5  C   UNL     1     -40.955  54.795 -52.771  1.00  0.00     0.047 A 
HETATM    6 BR   UNL     1     -41.500  56.204 -51.623  1.00  0.00    -0.048 Br
HETATM    7  C   UNL     1     -40.436  53.635 -52.191  1.00  0.00     0.064 A 
HETATM    8  C   UNL     1     -40.102  52.557 -53.003  1.00  0.00     0.117 A 
HETATM    9  F   UNL     1     -39.609  51.443 -52.447  1.00  0.00    -0.206 F 
HETATM   10  C   UNL     1     -40.287  52.607 -54.379  1.00  0.00     0.045 A 
HETATM   11  C   UNL     1     -40.800  53.765 -54.960  1.00  0.00     0.041 A 
ENDBRANCH   3   4
ENDBRANCH   2   3
BRANCH   2  12
HETATM   12  C   UNL     1     -43.186  56.834 -56.423  1.00  0.00     0.252 C 
HETATM   13  N   UNL     1     -42.117  57.038 -57.280  1.00  0.00    -0.309 N 
HETATM   14  H   UNL     1     -41.291  56.479 -57.107  1.00  0.00     0.170 HD
HETATM   15  O   UNL     1     -44.270  57.407 -56.456  1.00  0.00    -0.270 OA
BRANCH  13  16
HETATM   16  C   UNL     1     -42.044  58.013 -58.280  1.00  0.00     0.129 A 
HETATM   17  N   UNL     1     -42.123  57.676 -59.579  1.00  0.00    -0.242 NA
HETATM   18  C   UNL     1     -42.072  58.668 -60.500  1.00  0.00     0.142 A 
HETATM   19  C   UNL     1     -41.937  60.007 -60.178  1.00  0.00     0.051 A 
HETATM   20 CL   UNL     1     -41.884  61.212 -61.396  1.00  0.00    -0.083 Cl
HETATM   21  C   UNL     1     -41.848  60.348 -58.836  1.00  0.00     0.029 A 
HETATM   22  C   UNL     1     -41.903  59.338 -57.872  1.00  0.00     0.052 A 
ENDBRANCH  13  16
ENDBRANCH   2  12
TORSDOF 4
ENDMDL
MODEL 10
REMARK VINA RESULT:      -6.4     14.874     16.666
REMARK  4 active torsions:
REMARK  status: ('A' for Active; 'I' for Inactive)
REMARK    1  A    between atoms: C_2  and  O_3 
REMARK    2  A    between atoms: C_2  and  C_12 
REMARK    3  A    between atoms: O_3  and  C_4 
REMARK       I    between atoms: C_12  and  N_13 
REMARK    4  A    between atoms: N_13  and  C_14 
ROOT
HETATM    1  C   UNL     1     -38.036  41.181 -54.808  1.00  0.00     0.050 C 
HETATM    2  C   UNL     1     -36.607  41.666 -55.050  1.00  0.00     0.217 C 
ENDROOT
BRANCH   2   3
HETATM    3  O   UNL     1     -35.874  40.751 -55.890  1.00  0.00    -0.336 OA
BRANCH   3   4
HETATM    4  C   UNL     1     -36.332  40.720 -57.181  1.00  0.00     0.087 A 
HETATM    5  C   UNL     1     -36.783  39.548 -57.800  1.00  0.00     0.047 A 
HETATM    6 BR   UNL     1     -36.817  37.882 -56.892  1.00  0.00    -0.048 Br
HETATM    7  C   UNL     1     -37.270  39.596 -59.108  1.00  0.00     0.064 A 
HETATM    8  C   UNL     1     -37.329  40.817 -59.769  1.00  0.00     0.117 A 
HETATM    9  F   UNL     1     -37.800  40.865 -61.022  1.00  0.00    -0.206 F 
HETATM   10  C   UNL     1     -36.928  41.994 -59.148  1.00  0.00     0.045 A 
HETATM   11  C   UNL     1     -36.439  41.947 -57.844  1.00  0.00     0.041 A 
ENDBRANCH   3   4
ENDBRANCH   2   3
BRANCH   2  12
HETATM   12  C   UNL     1     -35.850  41.783 -53.709  1.00  0.00     0.252 C 
HETATM   13  N   UNL     1     -35.050  40.677 -53.470  1.00  0.00    -0.309 N 
HETATM   14  H   UNL     1     -35.106  39.929 -54.149  1.00  0.00     0.170 HD
HETATM   15  O   UNL     1     -35.935  42.789 -53.013  1.00  0.00    -0.270 OA
BRANCH  13  16
HETATM   16  C   UNL     1     -34.269  40.463 -52.330  1.00  0.00     0.129 A 
HETATM   17  N   UNL     1     -34.837  40.135 -51.156  1.00  0.00    -0.242 NA
HETATM   18  C   UNL     1     -34.026  39.914 -50.094  1.00  0.00     0.142 A 
HETATM   19  C   UNL     1     -32.648  40.014 -50.148  1.00  0.00     0.051 A 
HETATM   20 CL   UNL     1     -31.680  39.717 -48.764  1.00  0.00    -0.083 Cl
HETATM   21  C   UNL     1     -32.067  40.361 -51.360  1.00  0.00     0.029 A 
HETATM   22  C   UNL     1     -32.888  40.588 -52.468  1.00  0.00     0.052 A 
ENDBRANCH  13  16
ENDBRANCH   2  12
TORSDOF 4
ENDMDL
