MODEL 1
REMARK VINA RESULT:      -7.5      0.000      0.000
REMARK  6 active torsions:
REMARK  status: ('A' for Active; 'I' for Inactive)
REMARK    1  A    between atoms: C_2  and  C_3 
REMARK    2  A    between atoms: C_3  and  N_4 
REMARK       I    between atoms: N_4  and  C_5 
REMARK    3  A    between atoms: C_5  and  C_6 
REMARK    4  A    between atoms: C_11  and  C_12 
REMARK    5  A    between atoms: C_15  and  O_16 
REMARK    6  A    between atoms: C_21  and  C_22 
ROOT
HETATM    1  C   UNL     1     -43.269  56.593 -56.452  1.00  0.00     0.170 A 
HETATM    2  N   UNL     1     -42.304  55.805 -55.916  1.00  0.00    -0.163 NA
HETATM    3  N   UNL     1     -42.709  55.613 -54.649  1.00  0.00    -0.238 N 
HETATM    4  C   UNL     1     -43.831  56.326 -54.317  1.00  0.00     0.145 A 
HETATM    5  N   UNL     1     -44.283  56.366 -53.035  1.00  0.00    -0.365 N 
HETATM    6  C   UNL     1     -43.412  55.950 -51.936  1.00  0.00     0.118 C 
HETATM    7  C   UNL     1     -42.670  54.675 -52.372  1.00  0.00     0.066 C 
HETATM    8  C   UNL     1     -41.895  54.887 -53.688  1.00  0.00     0.221 C 
HETATM    9  C   UNL     1     -44.251  56.928 -55.481  1.00  0.00     0.115 A 
HETATM   10 CL   UNL     1     -45.608  57.931 -55.667  1.00  0.00    -0.077 Cl
HETATM   11  H   UNL     1     -44.990  57.057 -52.782  1.00  0.00     0.162 HD
ENDROOT
BRANCH   6  12
HETATM   12  C   UNL     1     -42.478  57.049 -51.445  1.00  0.00    -0.035 A 
HETATM   13  C   UNL     1     -41.232  56.795 -50.851  1.00  0.00     0.012 A 
HETATM   14  C   UNL     1     -40.421  57.843 -50.404  1.00  0.00     0.037 A 
HETATM   15  C   UNL     1     -40.823  59.170 -50.543  1.00  0.00     0.068 A 
HETATM   16  C   UNL     1     -42.049  59.442 -51.145  1.00  0.00     0.037 A 
HETATM   17  C   UNL     1     -42.863  58.394 -51.594  1.00  0.00     0.012 A 
BRANCH  15  18
HETATM   18  O   UNL     1     -39.937  60.089 -50.059  1.00  0.00    -0.356 OA
HETATM   19  C   UNL     1     -38.555  59.818 -50.254  1.00  0.00     0.210 C 
ENDBRANCH  15  18
ENDBRANCH   6  12
BRANCH   8  20
HETATM   20  C   UNL     1     -41.449  53.548 -54.232  1.00  0.00     0.409 C 
HETATM   21  F   UNL     1     -40.359  53.627 -55.024  1.00  0.00    -0.169 F 
HETATM   22  F   UNL     1     -41.110  52.725 -53.204  1.00  0.00    -0.169 F 
HETATM   23  F   UNL     1     -42.427  52.920 -54.923  1.00  0.00    -0.169 F 
ENDBRANCH   8  20
BRANCH   1  24
HETATM   24  C   UNL     1     -43.183  57.033 -57.854  1.00  0.00     0.273 C 
HETATM   25  N   UNL     1     -44.232  56.574 -58.624  1.00  0.00    -0.356 N 
HETATM   26  H   UNL     1     -44.889  55.963 -58.144  1.00  0.00     0.162 HD
HETATM   27  O   UNL     1     -42.264  57.709 -58.303  1.00  0.00    -0.266 OA
BRANCH  25  28
HETATM   28  C   UNL     1     -44.280  56.721 -60.058  1.00  0.00     0.122 C 
BRANCH  28  29
HETATM   29  C   UNL     1     -44.687  55.428 -60.764  1.00  0.00     0.015 C 
HETATM   30  C   UNL     1     -44.747  54.236 -59.819  1.00  0.00     0.006 C 
ENDBRANCH  28  29
ENDBRANCH  25  28
ENDBRANCH   1  24
TORSDOF 6
ENDMDL
MODEL 2
REMARK VINA RESULT:      -7.4      3.824      6.582
REMARK  6 active torsions:
REMARK  status: ('A' for Active; 'I' for Inactive)
REMARK    1  A    between atoms: C_2  and  C_3 
REMARK    2  A    between atoms: C_3  and  N_4 
REMARK       I    between atoms: N_4  and  C_5 
REMARK    3  A    between atoms: C_5  and  C_6 
REMARK    4  A    between atoms: C_11  and  C_12 
REMARK    5  A    between atoms: C_15  and  O_16 
REMARK    6  A    between atoms: C_21  and  C_22 
ROOT
HETATM    1  C   UNL     1     -41.602  55.243 -51.362  1.00  0.00     0.170 A 
HETATM    2  N   UNL     1     -41.163  56.520 -51.497  1.00  0.00    -0.163 NA
HETATM    3  N   UNL     1     -42.279  57.260 -51.383  1.00  0.00    -0.238 N 
HETATM    4  C   UNL     1     -43.425  56.516 -51.286  1.00  0.00     0.145 A 
HETATM    5  N   UNL     1     -44.650  57.105 -51.318  1.00  0.00    -0.365 N 
HETATM    6  C   UNL     1     -44.790  58.480 -51.798  1.00  0.00     0.118 C 
HETATM    7  C   UNL     1     -43.634  59.310 -51.214  1.00  0.00     0.066 C 
HETATM    8  C   UNL     1     -42.261  58.703 -51.565  1.00  0.00     0.221 C 
HETATM    9  C   UNL     1     -43.016  55.204 -51.213  1.00  0.00     0.115 A 
HETATM   10 CL   UNL     1     -44.015  53.839 -51.069  1.00  0.00    -0.077 Cl
HETATM   11  H   UNL     1     -45.476  56.521 -51.447  1.00  0.00     0.162 HD
ENDROOT
BRANCH   6  12
HETATM   12  C   UNL     1     -44.902  58.591 -53.314  1.00  0.00    -0.035 A 
HETATM   13  C   UNL     1     -44.767  57.496 -54.181  1.00  0.00     0.012 A 
HETATM   14  C   UNL     1     -44.863  57.658 -55.567  1.00  0.00     0.037 A 
HETATM   15  C   UNL     1     -45.105  58.911 -56.126  1.00  0.00     0.068 A 
HETATM   16  C   UNL     1     -45.258  60.007 -55.281  1.00  0.00     0.037 A 
HETATM   17  C   UNL     1     -45.163  59.847 -53.892  1.00  0.00     0.012 A 
BRANCH  15  18
HETATM   18  O   UNL     1     -45.171  58.925 -57.490  1.00  0.00    -0.356 OA
HETATM   19  C   UNL     1     -44.645  57.794 -58.172  1.00  0.00     0.210 C 
ENDBRANCH  15  18
ENDBRANCH   6  12
BRANCH   8  20
HETATM   20  C   UNL     1     -41.189  59.358 -50.723  1.00  0.00     0.409 C 
HETATM   21  F   UNL     1     -39.985  59.407 -51.330  1.00  0.00    -0.169 F 
HETATM   22  F   UNL     1     -41.534  60.648 -50.465  1.00  0.00    -0.169 F 
HETATM   23  F   UNL     1     -41.033  58.754 -49.524  1.00  0.00    -0.169 F 
ENDBRANCH   8  20
BRANCH   1  24
HETATM   24  C   UNL     1     -40.659  54.116 -51.431  1.00  0.00     0.273 C 
HETATM   25  N   UNL     1     -40.711  53.449 -52.638  1.00  0.00    -0.356 N 
HETATM   26  H   UNL     1     -41.415  53.786 -53.292  1.00  0.00     0.162 HD
HETATM   27  O   UNL     1     -39.924  53.782 -50.509  1.00  0.00    -0.266 OA
BRANCH  25  28
HETATM   28  C   UNL     1     -40.014  52.210 -52.884  1.00  0.00     0.122 C 
BRANCH  28  29
HETATM   29  C   UNL     1     -40.369  51.600 -54.239  1.00  0.00     0.015 C 
HETATM   30  C   UNL     1     -39.977  50.132 -54.344  1.00  0.00     0.006 C 
ENDBRANCH  28  29
ENDBRANCH  25  28
ENDBRANCH   1  24
TORSDOF 6
ENDMDL
MODEL 3
REMARK VINA RESULT:      -7.1      3.067      7.358
REMARK  6 active torsions:
REMARK  status: ('A' for Active; 'I' for Inactive)
REMARK    1  A    between atoms: C_2  and  C_3 
REMARK    2  A    between atoms: C_3  and  N_4 
REMARK       I    between atoms: N_4  and  C_5 
REMARK    3  A    between atoms: C_5  and  C_6 
REMARK    4  A    between atoms: C_11  and  C_12 
REMARK    5  A    between atoms: C_15  and  O_16 
REMARK    6  A    between atoms: C_21  and  C_22 
ROOT
HETATM    1  C   UNL     1     -44.153  58.345 -51.193  1.00  0.00     0.170 A 
HETATM    2  N   UNL     1     -44.217  56.996 -51.324  1.00  0.00    -0.163 NA
HETATM    3  N   UNL     1     -43.107  56.685 -52.014  1.00  0.00    -0.238 N 
HETATM    4  C   UNL     1     -42.388  57.777 -52.422  1.00  0.00     0.145 A 
HETATM    5  N   UNL     1     -41.325  57.646 -53.259  1.00  0.00    -0.365 N 
HETATM    6  C   UNL     1     -41.132  56.407 -54.012  1.00  0.00     0.118 C 
HETATM    7  C   UNL     1     -41.426  55.226 -53.071  1.00  0.00     0.066 C 
HETATM    8  C   UNL     1     -42.836  55.325 -52.454  1.00  0.00     0.221 C 
HETATM    9  C   UNL     1     -43.010  58.868 -51.857  1.00  0.00     0.115 A 
HETATM   10 CL   UNL     1     -42.544  60.492 -52.015  1.00  0.00    -0.077 Cl
HETATM   11  H   UNL     1     -40.939  58.480 -53.702  1.00  0.00     0.162 HD
ENDROOT
BRANCH   6  12
HETATM   12  C   UNL     1     -41.926  56.350 -55.312  1.00  0.00    -0.035 A 
HETATM   13  C   UNL     1     -42.285  55.151 -55.946  1.00  0.00     0.012 A 
HETATM   14  C   UNL     1     -43.001  55.157 -57.147  1.00  0.00     0.037 A 
HETATM   15  C   UNL     1     -43.386  56.356 -57.744  1.00  0.00     0.068 A 
HETATM   16  C   UNL     1     -43.053  57.556 -57.121  1.00  0.00     0.037 A 
HETATM   17  C   UNL     1     -42.337  57.551 -55.917  1.00  0.00     0.012 A 
BRANCH  15  18
HETATM   18  O   UNL     1     -44.076  56.215 -58.915  1.00  0.00    -0.356 OA
HETATM   19  C   UNL     1     -44.067  54.928 -59.518  1.00  0.00     0.210 C 
ENDBRANCH  15  18
ENDBRANCH   6  12
BRANCH   8  20
HETATM   20  C   UNL     1     -42.960  54.335 -51.317  1.00  0.00     0.409 C 
HETATM   21  F   UNL     1     -42.809  54.896 -50.099  1.00  0.00    -0.169 F 
HETATM   22  F   UNL     1     -44.202  53.781 -51.326  1.00  0.00    -0.169 F 
HETATM   23  F   UNL     1     -42.081  53.314 -51.424  1.00  0.00    -0.169 F 
ENDBRANCH   8  20
BRANCH   1  24
HETATM   24  C   UNL     1     -45.212  59.078 -50.482  1.00  0.00     0.273 C 
HETATM   25  N   UNL     1     -44.720  60.095 -49.690  1.00  0.00    -0.356 N 
HETATM   26  H   UNL     1     -43.705  60.172 -49.662  1.00  0.00     0.162 HD
HETATM   27  O   UNL     1     -46.405  58.801 -50.557  1.00  0.00    -0.266 OA
BRANCH  25  28
HETATM   28  C   UNL     1     -45.538  60.839 -48.763  1.00  0.00     0.122 C 
BRANCH  28  29
HETATM   29  C   UNL     1     -44.732  61.396 -47.590  1.00  0.00     0.015 C 
HETATM   30  C   UNL     1     -45.237  60.900 -46.243  1.00  0.00     0.006 C 
ENDBRANCH  28  29
ENDBRANCH  25  28
ENDBRANCH   1  24
TORSDOF 6
ENDMDL
MODEL 4
REMARK VINA RESULT:      -7.1      1.233      1.825
REMARK  6 active torsions:
REMARK  status: ('A' for Active; 'I' for Inactive)
REMARK    1  A    between atoms: C_2  and  C_3 
REMARK    2  A    between atoms: C_3  and  N_4 
REMARK       I    between atoms: N_4  and  C_5 
REMARK    3  A    between atoms: C_5  and  C_6 
REMARK    4  A    between atoms: C_11  and  C_12 
REMARK    5  A    between atoms: C_15  and  O_16 
REMARK    6  A    between atoms: C_21  and  C_22 
ROOT
HETATM    1  C   UNL     1     -43.354  56.635 -56.605  1.00  0.00     0.170 A 
HETATM    2  N   UNL     1     -42.399  55.839 -56.063  1.00  0.00    -0.163 NA
HETATM    3  N   UNL     1     -42.781  55.702 -54.782  1.00  0.00    -0.238 N 
HETATM    4  C   UNL     1     -43.876  56.455 -54.450  1.00  0.00     0.145 A 
HETATM    5  N   UNL     1     -44.298  56.551 -53.161  1.00  0.00    -0.365 N 
HETATM    6  C   UNL     1     -43.414  56.149 -52.068  1.00  0.00     0.118 C 
HETATM    7  C   UNL     1     -42.716  54.840 -52.475  1.00  0.00     0.066 C 
HETATM    8  C   UNL     1     -41.965  54.987 -53.813  1.00  0.00     0.221 C 
HETATM    9  C   UNL     1     -44.306  57.029 -55.625  1.00  0.00     0.115 A 
HETATM   10 CL   UNL     1     -45.639  58.061 -55.817  1.00  0.00    -0.077 Cl
HETATM   11  H   UNL     1     -44.981  57.269 -52.917  1.00  0.00     0.162 HD
ENDROOT
BRANCH   6  12
HETATM   12  C   UNL     1     -42.440  57.238 -51.634  1.00  0.00    -0.035 A 
HETATM   13  C   UNL     1     -41.237  56.976 -50.961  1.00  0.00     0.012 A 
HETATM   14  C   UNL     1     -40.388  58.017 -50.572  1.00  0.00     0.037 A 
HETATM   15  C   UNL     1     -40.707  59.344 -50.852  1.00  0.00     0.068 A 
HETATM   16  C   UNL     1     -41.888  59.623 -51.534  1.00  0.00     0.037 A 
HETATM   17  C   UNL     1     -42.741  58.581 -51.925  1.00  0.00     0.012 A 
BRANCH  15  18
HETATM   18  O   UNL     1     -39.791  60.257 -50.412  1.00  0.00    -0.356 OA
HETATM   19  C   UNL     1     -38.455  59.800 -50.244  1.00  0.00     0.210 C 
ENDBRANCH  15  18
ENDBRANCH   6  12
BRANCH   8  20
HETATM   20  C   UNL     1     -41.567  53.618 -54.321  1.00  0.00     0.409 C 
HETATM   21  F   UNL     1     -40.437  53.628 -55.059  1.00  0.00    -0.169 F 
HETATM   22  F   UNL     1     -41.324  52.792 -53.269  1.00  0.00    -0.169 F 
HETATM   23  F   UNL     1     -42.543  53.035 -55.052  1.00  0.00    -0.169 F 
ENDBRANCH   8  20
BRANCH   1  24
HETATM   24  C   UNL     1     -43.288  57.024 -58.022  1.00  0.00     0.273 C 
HETATM   25  N   UNL     1     -42.043  57.491 -58.391  1.00  0.00    -0.356 N 
HETATM   26  H   UNL     1     -41.360  57.551 -57.639  1.00  0.00     0.162 HD
HETATM   27  O   UNL     1     -44.241  56.970 -58.792  1.00  0.00    -0.266 OA
BRANCH  25  28
HETATM   28  C   UNL     1     -41.776  58.095 -59.674  1.00  0.00     0.122 C 
BRANCH  28  29
HETATM   29  C   UNL     1     -42.121  59.583 -59.702  1.00  0.00     0.015 C 
HETATM   30  C   UNL     1     -41.691  60.310 -58.435  1.00  0.00     0.006 C 
ENDBRANCH  28  29
ENDBRANCH  25  28
ENDBRANCH   1  24
TORSDOF 6
ENDMDL
MODEL 5
REMARK VINA RESULT:      -7.0      3.517      4.854
REMARK  6 active torsions:
REMARK  status: ('A' for Active; 'I' for Inactive)
REMARK    1  A    between atoms: C_2  and  C_3 
REMARK    2  A    between atoms: C_3  and  N_4 
REMARK       I    between atoms: N_4  and  C_5 
REMARK    3  A    between atoms: C_5  and  C_6 
REMARK    4  A    between atoms: C_11  and  C_12 
REMARK    5  A    between atoms: C_15  and  O_16 
REMARK    6  A    between atoms: C_21  and  C_22 
ROOT
HETATM    1  C   UNL     1     -44.434  57.973 -56.281  1.00  0.00     0.170 A 
HETATM    2  N   UNL     1     -44.738  57.650 -54.999  1.00  0.00    -0.163 NA
HETATM    3  N   UNL     1     -43.549  57.648 -54.374  1.00  0.00    -0.238 N 
HETATM    4  C   UNL     1     -42.486  57.850 -55.215  1.00  0.00     0.145 A 
HETATM    5  N   UNL     1     -41.206  57.724 -54.772  1.00  0.00    -0.365 N 
HETATM    6  C   UNL     1     -40.932  57.043 -53.506  1.00  0.00     0.118 C 
HETATM    7  C   UNL     1     -41.981  57.502 -52.480  1.00  0.00     0.066 C 
HETATM    8  C   UNL     1     -43.417  57.252 -52.981  1.00  0.00     0.221 C 
HETATM    9  C   UNL     1     -43.030  58.120 -56.450  1.00  0.00     0.115 A 
HETATM   10 CL   UNL     1     -42.178  58.460 -57.877  1.00  0.00    -0.077 Cl
HETATM   11  H   UNL     1     -40.449  57.679 -55.454  1.00  0.00     0.162 HD
ENDROOT
BRANCH   6  12
HETATM   12  C   UNL     1     -40.840  55.527 -53.634  1.00  0.00    -0.035 A 
HETATM   13  C   UNL     1     -41.204  54.642 -52.607  1.00  0.00     0.012 A 
HETATM   14  C   UNL     1     -41.085  53.259 -52.772  1.00  0.00     0.037 A 
HETATM   15  C   UNL     1     -40.609  52.719 -53.965  1.00  0.00     0.068 A 
HETATM   16  C   UNL     1     -40.259  53.580 -55.002  1.00  0.00     0.037 A 
HETATM   17  C   UNL     1     -40.378  54.966 -54.838  1.00  0.00     0.012 A 
BRANCH  15  18
HETATM   18  O   UNL     1     -40.541  51.355 -53.988  1.00  0.00    -0.356 OA
HETATM   19  C   UNL     1     -39.474  50.750 -53.268  1.00  0.00     0.210 C 
ENDBRANCH  15  18
ENDBRANCH   6  12
BRANCH   8  20
HETATM   20  C   UNL     1     -44.396  57.992 -52.096  1.00  0.00     0.409 C 
HETATM   21  F   UNL     1     -45.372  57.202 -51.599  1.00  0.00    -0.169 F 
HETATM   22  F   UNL     1     -43.743  58.507 -51.021  1.00  0.00    -0.169 F 
HETATM   23  F   UNL     1     -44.979  59.034 -52.730  1.00  0.00    -0.169 F 
ENDBRANCH   8  20
BRANCH   1  24
HETATM   24  C   UNL     1     -45.492  58.077 -57.298  1.00  0.00     0.273 C 
HETATM   25  N   UNL     1     -45.385  57.116 -58.282  1.00  0.00    -0.356 N 
HETATM   26  H   UNL     1     -44.575  56.504 -58.206  1.00  0.00     0.162 HD
HETATM   27  O   UNL     1     -46.363  58.941 -57.293  1.00  0.00    -0.266 OA
BRANCH  25  28
HETATM   28  C   UNL     1     -46.193  57.118 -59.477  1.00  0.00     0.122 C 
BRANCH  28  29
HETATM   29  C   UNL     1     -46.086  55.808 -60.256  1.00  0.00     0.015 C 
HETATM   30  C   UNL     1     -44.798  55.052 -59.962  1.00  0.00     0.006 C 
ENDBRANCH  28  29
ENDBRANCH  25  28
ENDBRANCH   1  24
TORSDOF 6
ENDMDL
MODEL 6
REMARK VINA RESULT:      -6.9     16.530     18.923
REMARK  6 active torsions:
REMARK  status: ('A' for Active; 'I' for Inactive)
REMARK    1  A    between atoms: C_2  and  C_3 
REMARK    2  A    between atoms: C_3  and  N_4 
REMARK       I    between atoms: N_4  and  C_5 
REMARK    3  A    between atoms: C_5  and  C_6 
REMARK    4  A    between atoms: C_11  and  C_12 
REMARK    5  A    between atoms: C_15  and  O_16 
REMARK    6  A    between atoms: C_21  and  C_22 
ROOT
HETATM    1  C   UNL     1     -36.947  39.763 -52.438  1.00  0.00     0.170 A 
HETATM    2  N   UNL     1     -35.835  39.495 -53.168  1.00  0.00    -0.163 NA
HETATM    3  N   UNL     1     -35.792  40.490 -54.069  1.00  0.00    -0.238 N 
HETATM    4  C   UNL     1     -36.878  41.324 -54.021  1.00  0.00     0.145 A 
HETATM    5  N   UNL     1     -37.067  42.287 -54.962  1.00  0.00    -0.365 N 
HETATM    6  C   UNL     1     -36.324  42.239 -56.221  1.00  0.00     0.118 C 
HETATM    7  C   UNL     1     -34.869  41.853 -55.902  1.00  0.00     0.066 C 
HETATM    8  C   UNL     1     -34.788  40.526 -55.121  1.00  0.00     0.221 C 
HETATM    9  C   UNL     1     -37.619  40.912 -52.936  1.00  0.00     0.115 A 
HETATM   10 CL   UNL     1     -39.073  41.594 -52.388  1.00  0.00    -0.077 Cl
HETATM   11  H   UNL     1     -37.973  42.752 -55.018  1.00  0.00     0.162 HD
ENDROOT
BRANCH   6  12
HETATM   12  C   UNL     1     -36.964  41.344 -57.276  1.00  0.00    -0.035 A 
HETATM   13  C   UNL     1     -37.789  40.252 -56.965  1.00  0.00     0.012 A 
HETATM   14  C   UNL     1     -38.338  39.455 -57.974  1.00  0.00     0.037 A 
HETATM   15  C   UNL     1     -38.089  39.727 -59.318  1.00  0.00     0.068 A 
HETATM   16  C   UNL     1     -37.286  40.817 -59.646  1.00  0.00     0.037 A 
HETATM   17  C   UNL     1     -36.736  41.618 -58.637  1.00  0.00     0.012 A 
BRANCH  15  18
HETATM   18  O   UNL     1     -38.684  38.867 -60.196  1.00  0.00    -0.356 OA
HETATM   19  C   UNL     1     -38.135  38.799 -61.505  1.00  0.00     0.210 C 
ENDBRANCH  15  18
ENDBRANCH   6  12
BRANCH   8  20
HETATM   20  C   UNL     1     -33.392  40.352 -54.566  1.00  0.00     0.409 C 
HETATM   21  F   UNL     1     -33.009  39.061 -54.473  1.00  0.00    -0.169 F 
HETATM   22  F   UNL     1     -32.493  40.954 -55.390  1.00  0.00    -0.169 F 
HETATM   23  F   UNL     1     -33.245  40.924 -53.351  1.00  0.00    -0.169 F 
ENDBRANCH   8  20
BRANCH   1  24
HETATM   24  C   UNL     1     -37.345  38.880 -51.330  1.00  0.00     0.273 C 
HETATM   25  N   UNL     1     -37.308  39.512 -50.104  1.00  0.00    -0.356 N 
HETATM   26  H   UNL     1     -36.970  40.472 -50.119  1.00  0.00     0.162 HD
HETATM   27  O   UNL     1     -37.649  37.701 -51.470  1.00  0.00    -0.266 OA
BRANCH  25  28
HETATM   28  C   UNL     1     -37.482  38.815 -48.852  1.00  0.00     0.122 C 
BRANCH  28  29
HETATM   29  C   UNL     1     -36.166  38.273 -48.297  1.00  0.00     0.015 C 
HETATM   30  C   UNL     1     -36.173  38.156 -46.779  1.00  0.00     0.006 C 
ENDBRANCH  28  29
ENDBRANCH  25  28
ENDBRANCH   1  24
TORSDOF 6
ENDMDL
MODEL 7
REMARK VINA RESULT:      -6.7      3.604      6.668
REMARK  6 active torsions:
REMARK  status: ('A' for Active; 'I' for Inactive)
REMARK    1  A    between atoms: C_2  and  C_3 
REMARK    2  A    between atoms: C_3  and  N_4 
REMARK       I    between atoms: N_4  and  C_5 
REMARK    3  A    between atoms: C_5  and  C_6 
REMARK    4  A    between atoms: C_11  and  C_12 
REMARK    5  A    between atoms: C_15  and  O_16 
REMARK    6  A    between atoms: C_21  and  C_22 
ROOT
HETATM    1  C   UNL     1     -43.201  59.025 -52.256  1.00  0.00     0.170 A 
HETATM    2  N   UNL     1     -42.515  58.864 -53.415  1.00  0.00    -0.163 NA
HETATM    3  N   UNL     1     -43.007  57.722 -53.927  1.00  0.00    -0.238 N 
HETATM    4  C   UNL     1     -43.899  57.090 -53.102  1.00  0.00     0.145 A 
HETATM    5  N   UNL     1     -44.372  55.850 -53.399  1.00  0.00    -0.365 N 
HETATM    6  C   UNL     1     -43.695  55.026 -54.400  1.00  0.00     0.118 C 
HETATM    7  C   UNL     1     -43.319  55.929 -55.587  1.00  0.00     0.066 C 
HETATM    8  C   UNL     1     -42.464  57.132 -55.140  1.00  0.00     0.221 C 
HETATM    9  C   UNL     1     -44.090  57.937 -52.034  1.00  0.00     0.115 A 
HETATM   10 CL   UNL     1     -45.106  57.672 -50.702  1.00  0.00    -0.077 Cl
HETATM   11  H   UNL     1     -44.869  55.325 -52.678  1.00  0.00     0.162 HD
ENDROOT
BRANCH   6  12
HETATM   12  C   UNL     1     -42.512  54.239 -53.847  1.00  0.00    -0.035 A 
HETATM   13  C   UNL     1     -42.218  54.147 -52.478  1.00  0.00     0.012 A 
HETATM   14  C   UNL     1     -41.109  53.423 -52.027  1.00  0.00     0.037 A 
HETATM   15  C   UNL     1     -40.270  52.766 -52.925  1.00  0.00     0.068 A 
HETATM   16  C   UNL     1     -40.556  52.832 -54.286  1.00  0.00     0.037 A 
HETATM   17  C   UNL     1     -41.666  53.556 -54.740  1.00  0.00     0.012 A 
BRANCH  15  18
HETATM   18  O   UNL     1     -39.225  52.102 -52.348  1.00  0.00    -0.356 OA
HETATM   19  C   UNL     1     -39.528  50.894 -51.662  1.00  0.00     0.210 C 
ENDBRANCH  15  18
ENDBRANCH   6  12
BRANCH   8  20
HETATM   20  C   UNL     1     -42.387  58.141 -56.265  1.00  0.00     0.409 C 
HETATM   21  F   UNL     1     -41.544  59.164 -56.011  1.00  0.00    -0.169 F 
HETATM   22  F   UNL     1     -41.921  57.538 -57.391  1.00  0.00    -0.169 F 
HETATM   23  F   UNL     1     -43.596  58.659 -56.578  1.00  0.00    -0.169 F 
ENDBRANCH   8  20
BRANCH   1  24
HETATM   24  C   UNL     1     -42.941  60.184 -51.388  1.00  0.00     0.273 C 
HETATM   25  N   UNL     1     -44.056  60.977 -51.207  1.00  0.00    -0.356 N 
HETATM   26  H   UNL     1     -44.883  60.690 -51.726  1.00  0.00     0.162 HD
HETATM   27  O   UNL     1     -41.846  60.441 -50.899  1.00  0.00    -0.266 OA
BRANCH  25  28
HETATM   28  C   UNL     1     -44.012  62.259 -50.546  1.00  0.00     0.122 C 
BRANCH  28  29
HETATM   29  C   UNL     1     -44.439  62.176 -49.082  1.00  0.00     0.015 C 
HETATM   30  C   UNL     1     -45.374  61.007 -48.808  1.00  0.00     0.006 C 
ENDBRANCH  28  29
ENDBRANCH  25  28
ENDBRANCH   1  24
TORSDOF 6
ENDMDL
MODEL 8
REMARK VINA RESULT:      -6.3      3.444      6.775
REMARK  6 active torsions:
REMARK  status: ('A' for Active; 'I' for Inactive)
REMARK    1  A    between atoms: C_2  and  C_3 
REMARK    2  A    between atoms: C_3  and  N_4 
REMARK       I    between atoms: N_4  and  C_5 
REMARK    3  A    between atoms: C_5  and  C_6 
REMARK    4  A    between atoms: C_11  and  C_12 
REMARK    5  A    between atoms: C_15  and  O_16 
REMARK    6  A    between atoms: C_21  and  C_22 
ROOT
HETATM    1  C   UNL     1     -41.718  55.421 -53.165  1.00  0.00     0.170 A 
HETATM    2  N   UNL     1     -41.240  56.690 -53.127  1.00  0.00    -0.163 NA
HETATM    3  N   UNL     1     -42.242  57.429 -53.635  1.00  0.00    -0.238 N 
HETATM    4  C   UNL     1     -43.296  56.684 -54.094  1.00  0.00     0.145 A 
HETATM    5  N   UNL     1     -44.321  57.262 -54.776  1.00  0.00    -0.365 N 
HETATM    6  C   UNL     1     -44.165  58.605 -55.334  1.00  0.00     0.118 C 
HETATM    7  C   UNL     1     -43.446  59.476 -54.289  1.00  0.00     0.066 C 
HETATM    8  C   UNL     1     -42.099  58.858 -53.861  1.00  0.00     0.221 C 
HETATM    9  C   UNL     1     -43.012  55.381 -53.753  1.00  0.00     0.115 A 
HETATM   10 CL   UNL     1     -43.978  54.021 -54.064  1.00  0.00    -0.077 Cl
HETATM   11  H   UNL     1     -44.981  56.665 -55.275  1.00  0.00     0.162 HD
ENDROOT
BRANCH   6  12
HETATM   12  C   UNL     1     -43.489  58.627 -56.700  1.00  0.00    -0.035 A 
HETATM   13  C   UNL     1     -42.748  59.718 -57.178  1.00  0.00     0.012 A 
HETATM   14  C   UNL     1     -42.161  59.690 -58.447  1.00  0.00     0.037 A 
HETATM   15  C   UNL     1     -42.289  58.573 -59.270  1.00  0.00     0.068 A 
HETATM   16  C   UNL     1     -43.007  57.474 -58.806  1.00  0.00     0.037 A 
HETATM   17  C   UNL     1     -43.594  57.500 -57.535  1.00  0.00     0.012 A 
BRANCH  15  18
HETATM   18  O   UNL     1     -41.670  58.684 -60.483  1.00  0.00    -0.356 OA
HETATM   19  C   UNL     1     -41.957  59.845 -61.250  1.00  0.00     0.210 C 
ENDBRANCH  15  18
ENDBRANCH   6  12
BRANCH   8  20
HETATM   20  C   UNL     1     -41.588  59.570 -52.628  1.00  0.00     0.409 C 
HETATM   21  F   UNL     1     -41.924  60.876 -52.584  1.00  0.00    -0.169 F 
HETATM   22  F   UNL     1     -42.128  59.004 -51.515  1.00  0.00    -0.169 F 
HETATM   23  F   UNL     1     -40.246  59.475 -52.496  1.00  0.00    -0.169 F 
ENDBRANCH   8  20
BRANCH   1  24
HETATM   24  C   UNL     1     -40.897  54.299 -52.685  1.00  0.00     0.273 C 
HETATM   25  N   UNL     1     -40.543  53.425 -53.693  1.00  0.00    -0.356 N 
HETATM   26  H   UNL     1     -40.928  53.640 -54.610  1.00  0.00     0.162 HD
HETATM   27  O   UNL     1     -40.583  54.134 -51.511  1.00  0.00    -0.266 OA
BRANCH  25  28
HETATM   28  C   UNL     1     -39.893  52.161 -53.448  1.00  0.00     0.122 C 
BRANCH  28  29
HETATM   29  C   UNL     1     -40.422  51.048 -54.351  1.00  0.00     0.015 C 
HETATM   30  C   UNL     1     -39.503  49.835 -54.388  1.00  0.00     0.006 C 
ENDBRANCH  28  29
ENDBRANCH  25  28
ENDBRANCH   1  24
TORSDOF 6
ENDMDL
MODEL 9
REMARK VINA RESULT:      -6.3      4.167      6.256
REMARK  6 active torsions:
REMARK  status: ('A' for Active; 'I' for Inactive)
REMARK    1  A    between atoms: C_2  and  C_3 
REMARK    2  A    between atoms: C_3  and  N_4 
REMARK       I    between atoms: N_4  and  C_5 
REMARK    3  A    between atoms: C_5  and  C_6 
REMARK    4  A    between atoms: C_11  and  C_12 
REMARK    5  A    between atoms: C_15  and  O_16 
REMARK    6  A    between atoms: C_21  and  C_22 
ROOT
HETATM    1  C   UNL     1     -41.877  56.876 -51.875  1.00  0.00     0.170 A 
HETATM    2  N   UNL     1     -43.068  56.978 -52.518  1.00  0.00    -0.163 NA
HETATM    3  N   UNL     1     -43.168  58.286 -52.807  1.00  0.00    -0.238 N 
HETATM    4  C   UNL     1     -42.151  59.044 -52.289  1.00  0.00     0.145 A 
HETATM    5  N   UNL     1     -42.181  60.402 -52.357  1.00  0.00    -0.365 N 
HETATM    6  C   UNL     1     -43.434  61.093 -52.663  1.00  0.00     0.118 C 
HETATM    7  C   UNL     1     -44.139  60.324 -53.793  1.00  0.00     0.066 C 
HETATM    8  C   UNL     1     -44.361  58.844 -53.424  1.00  0.00     0.221 C 
HETATM    9  C   UNL     1     -41.267  58.151 -51.727  1.00  0.00     0.115 A 
HETATM   10 CL   UNL     1     -39.809  58.529 -50.944  1.00  0.00    -0.077 Cl
HETATM   11  H   UNL     1     -41.523  60.939 -51.793  1.00  0.00     0.162 HD
ENDROOT
BRANCH   6  12
HETATM   12  C   UNL     1     -44.322  61.319 -51.445  1.00  0.00    -0.035 A 
HETATM   13  C   UNL     1     -45.699  61.576 -51.531  1.00  0.00     0.012 A 
HETATM   14  C   UNL     1     -46.464  61.792 -50.380  1.00  0.00     0.037 A 
HETATM   15  C   UNL     1     -45.882  61.749 -49.115  1.00  0.00     0.068 A 
HETATM   16  C   UNL     1     -44.520  61.480 -49.009  1.00  0.00     0.037 A 
HETATM   17  C   UNL     1     -43.752  61.262 -50.161  1.00  0.00     0.012 A 
BRANCH  15  18
HETATM   18  O   UNL     1     -46.745  61.982 -48.082  1.00  0.00    -0.356 OA
HETATM   19  C   UNL     1     -46.455  61.345 -46.845  1.00  0.00     0.210 C 
ENDBRANCH  15  18
ENDBRANCH   6  12
BRANCH   8  20
HETATM   20  C   UNL     1     -44.763  58.071 -54.661  1.00  0.00     0.409 C 
HETATM   21  F   UNL     1     -45.378  56.901 -54.385  1.00  0.00    -0.169 F 
HETATM   22  F   UNL     1     -45.649  58.801 -55.390  1.00  0.00    -0.169 F 
HETATM   23  F   UNL     1     -43.714  57.814 -55.473  1.00  0.00    -0.169 F 
ENDBRANCH   8  20
BRANCH   1  24
HETATM   24  C   UNL     1     -41.400  55.572 -51.388  1.00  0.00     0.273 C 
HETATM   25  N   UNL     1     -40.891  54.778 -52.395  1.00  0.00    -0.356 N 
HETATM   26  H   UNL     1     -40.956  55.169 -53.332  1.00  0.00     0.162 HD
HETATM   27  O   UNL     1     -41.471  55.211 -50.218  1.00  0.00    -0.266 OA
BRANCH  25  28
HETATM   28  C   UNL     1     -40.526  53.396 -52.201  1.00  0.00     0.122 C 
BRANCH  28  29
HETATM   29  C   UNL     1     -40.503  52.608 -53.510  1.00  0.00     0.015 C 
HETATM   30  C   UNL     1     -40.289  53.498 -54.727  1.00  0.00     0.006 C 
ENDBRANCH  28  29
ENDBRANCH  25  28
ENDBRANCH   1  24
TORSDOF 6
ENDMDL
MODEL 10
REMARK VINA RESULT:      -6.2      3.624      7.188
REMARK  6 active torsions:
REMARK  status: ('A' for Active; 'I' for Inactive)
REMARK    1  A    between atoms: C_2  and  C_3 
REMARK    2  A    between atoms: C_3  and  N_4 
REMARK       I    between atoms: N_4  and  C_5 
REMARK    3  A    between atoms: C_5  and  C_6 
REMARK    4  A    between atoms: C_11  and  C_12 
REMARK    5  A    between atoms: C_15  and  O_16 
REMARK    6  A    between atoms: C_21  and  C_22 
ROOT
HETATM    1  C   UNL     1     -41.489  55.339 -54.637  1.00  0.00     0.170 A 
HETATM    2  N   UNL     1     -41.095  56.617 -54.412  1.00  0.00    -0.163 NA
HETATM    3  N   UNL     1     -42.146  57.355 -54.811  1.00  0.00    -0.238 N 
HETATM    4  C   UNL     1     -43.151  56.617 -55.379  1.00  0.00     0.145 A 
HETATM    5  N   UNL     1     -44.215  57.220 -55.973  1.00  0.00    -0.365 N 
HETATM    6  C   UNL     1     -44.150  58.638 -56.328  1.00  0.00     0.118 C 
HETATM    7  C   UNL     1     -43.485  59.391 -55.165  1.00  0.00     0.066 C 
HETATM    8  C   UNL     1     -42.099  58.808 -54.825  1.00  0.00     0.221 C 
HETATM    9  C   UNL     1     -42.780  55.300 -55.230  1.00  0.00     0.115 A 
HETATM   10 CL   UNL     1     -43.656  53.939 -55.741  1.00  0.00    -0.077 Cl
HETATM   11  H   UNL     1     -44.837  56.661 -56.558  1.00  0.00     0.162 HD
ENDROOT
BRANCH   6  12
HETATM   12  C   UNL     1     -43.484  58.903 -57.673  1.00  0.00    -0.035 A 
HETATM   13  C   UNL     1     -42.933  60.143 -58.031  1.00  0.00     0.012 A 
HETATM   14  C   UNL     1     -42.347  60.335 -59.286  1.00  0.00     0.037 A 
HETATM   15  C   UNL     1     -42.286  59.298 -60.215  1.00  0.00     0.068 A 
HETATM   16  C   UNL     1     -42.814  58.056 -59.872  1.00  0.00     0.037 A 
HETATM   17  C   UNL     1     -43.400  57.861 -58.614  1.00  0.00     0.012 A 
BRANCH  15  18
HETATM   18  O   UNL     1     -41.692  59.626 -61.400  1.00  0.00    -0.356 OA
HETATM   19  C   UNL     1     -42.050  60.875 -61.977  1.00  0.00     0.210 C 
ENDBRANCH  15  18
ENDBRANCH   6  12
BRANCH   8  20
HETATM   20  C   UNL     1     -41.629  59.364 -53.498  1.00  0.00     0.409 C 
HETATM   21  F   UNL     1     -41.864  60.685 -53.357  1.00  0.00    -0.169 F 
HETATM   22  F   UNL     1     -42.295  58.751 -52.483  1.00  0.00    -0.169 F 
HETATM   23  F   UNL     1     -40.313  59.144 -53.284  1.00  0.00    -0.169 F 
ENDBRANCH   8  20
BRANCH   1  24
HETATM   24  C   UNL     1     -40.593  54.215 -54.322  1.00  0.00     0.273 C 
HETATM   25  N   UNL     1     -40.933  53.572 -53.149  1.00  0.00    -0.356 N 
HETATM   26  H   UNL     1     -41.713  53.982 -52.639  1.00  0.00     0.162 HD
HETATM   27  O   UNL     1     -39.628  53.895 -55.009  1.00  0.00    -0.266 OA
BRANCH  25  28
HETATM   28  C   UNL     1     -40.109  52.558 -52.538  1.00  0.00     0.122 C 
BRANCH  28  29
HETATM   29  C   UNL     1     -40.182  52.586 -51.013  1.00  0.00     0.015 C 
HETATM   30  C   UNL     1     -40.204  51.193 -50.400  1.00  0.00     0.006 C 
ENDBRANCH  28  29
ENDBRANCH  25  28
ENDBRANCH   1  24
TORSDOF 6
ENDMDL
