MODEL 1
REMARK VINA RESULT:      -7.8      0.000      0.000
REMARK  4 active torsions:
REMARK  status: ('A' for Active; 'I' for Inactive)
REMARK    1  A    between atoms: C_2  and  N_3 
REMARK    2  A    between atoms: C_2  and  C_4 
REMARK    3  A    between atoms: C_7  and  C_10 
REMARK       I    between atoms: C_10  and  N_12 
REMARK    4  A    between atoms: N_12  and  C_13 
ROOT
HETATM    1  C   UNL     1     -42.881  55.713 -56.083  1.00  0.00     0.226 C 
HETATM    2  O   UNL     1     -43.731  56.525 -55.715  1.00  0.00    -0.273 OA
HETATM    3  N   UNL     1     -42.407  55.656 -57.383  1.00  0.00    -0.326 N 
HETATM    4  H   UNL     1     -41.557  55.132 -57.543  1.00  0.00     0.169 HD
ENDROOT
BRANCH   1   5
HETATM    5  C   UNL     1     -42.354  54.622 -55.130  1.00  0.00     0.078 C 
HETATM    6  C   UNL     1     -42.797  54.950 -53.692  1.00  0.00     0.014 C 
HETATM    7  C   UNL     1     -42.321  53.915 -52.676  1.00  0.00     0.007 C 
HETATM    8  C   UNL     1     -40.797  53.727 -52.726  1.00  0.00     0.018 C 
HETATM    9  C   UNL     1     -40.373  53.354 -54.156  1.00  0.00     0.007 C 
HETATM   10  C   UNL     1     -40.837  54.395 -55.178  1.00  0.00     0.014 C 
BRANCH   8  11
HETATM   11  C   UNL     1     -40.303  52.731 -51.643  1.00  0.00     0.218 C 
HETATM   12  C   UNL     1     -39.383  51.624 -52.160  1.00  0.00     0.043 C 
BRANCH  11  13
HETATM   13  N   UNL     1     -39.607  53.456 -50.576  1.00  0.00     0.082 N 
HETATM   14  H   UNL     1     -39.916  53.111 -49.667  1.00  0.00     0.313 HD
HETATM   15  H   UNL     1     -39.866  54.441 -50.603  1.00  0.00     0.313 HD
ENDBRANCH  11  13
ENDBRANCH   8  11
ENDBRANCH   1   5
BRANCH   3  16
HETATM   16  C   UNL     1     -42.870  56.433 -58.467  1.00  0.00     0.050 A 
HETATM   17  C   UNL     1     -42.498  57.772 -58.670  1.00  0.00     0.047 A 
HETATM   18  C   UNL     1     -42.984  58.496 -59.750  1.00  0.00     0.092 A 
HETATM   19  N   UNL     1     -43.824  57.942 -60.630  1.00  0.00    -0.351 N 
HETATM   20  H   UNL     1     -44.170  58.483 -61.420  1.00  0.00     0.166 HD
HETATM   21  C   UNL     1     -44.208  56.651 -60.448  1.00  0.00     0.117 A 
HETATM   22  N   UNL     1     -45.051  55.916 -61.238  1.00  0.00    -0.352 N 
HETATM   23  C   UNL     1     -43.773  55.861 -59.390  1.00  0.00     0.036 A 
HETATM   24  H   UNL     1     -45.519  56.223 -62.083  1.00  0.00     0.166 HD
HETATM   25  C   UNL     1     -45.165  54.655 -60.711  1.00  0.00     0.090 A 
HETATM   26  C   UNL     1     -44.390  54.592 -59.572  1.00  0.00     0.034 A 
ENDBRANCH   3  16
TORSDOF 4
ENDMDL
MODEL 2
REMARK VINA RESULT:      -7.4      5.246      6.653
REMARK  4 active torsions:
REMARK  status: ('A' for Active; 'I' for Inactive)
REMARK    1  A    between atoms: C_2  and  N_3 
REMARK    2  A    between atoms: C_2  and  C_4 
REMARK    3  A    between atoms: C_7  and  C_10 
REMARK       I    between atoms: C_10  and  N_12 
REMARK    4  A    between atoms: N_12  and  C_13 
ROOT
HETATM    1  C   UNL     1     -41.289  55.860 -52.923  1.00  0.00     0.226 C 
HETATM    2  O   UNL     1     -40.786  56.655 -53.717  1.00  0.00    -0.273 OA
HETATM    3  N   UNL     1     -41.885  56.253 -51.737  1.00  0.00    -0.326 N 
HETATM    4  H   UNL     1     -42.472  55.577 -51.266  1.00  0.00     0.169 HD
ENDROOT
BRANCH   1   5
HETATM    5  C   UNL     1     -41.197  54.338 -53.152  1.00  0.00     0.078 C 
HETATM    6  C   UNL     1     -40.376  53.705 -52.014  1.00  0.00     0.014 C 
HETATM    7  C   UNL     1     -40.237  52.191 -52.157  1.00  0.00     0.007 C 
HETATM    8  C   UNL     1     -39.639  51.800 -53.517  1.00  0.00     0.018 C 
HETATM    9  C   UNL     1     -40.495  52.400 -54.645  1.00  0.00     0.007 C 
HETATM   10  C   UNL     1     -40.627  53.918 -54.514  1.00  0.00     0.014 C 
BRANCH   8  11
HETATM   11  C   UNL     1     -39.426  50.266 -53.635  1.00  0.00     0.218 C 
HETATM   12  C   UNL     1     -39.636  49.488 -52.335  1.00  0.00     0.043 C 
BRANCH  11  13
HETATM   13  N   UNL     1     -40.317  49.715 -54.659  1.00  0.00     0.082 N 
HETATM   14  H   UNL     1     -41.110  49.252 -54.213  1.00  0.00     0.313 HD
HETATM   15  H   UNL     1     -39.831  48.989 -55.184  1.00  0.00     0.313 HD
ENDBRANCH  11  13
ENDBRANCH   8  11
ENDBRANCH   1   5
BRANCH   3  16
HETATM   16  C   UNL     1     -41.930  57.571 -51.231  1.00  0.00     0.050 A 
HETATM   17  C   UNL     1     -40.893  58.142 -50.476  1.00  0.00     0.047 A 
HETATM   18  C   UNL     1     -40.987  59.442 -49.997  1.00  0.00     0.092 A 
HETATM   19  N   UNL     1     -42.069  60.190 -50.236  1.00  0.00    -0.351 N 
HETATM   20  H   UNL     1     -42.122  61.143 -49.882  1.00  0.00     0.166 HD
HETATM   21  C   UNL     1     -43.090  59.654 -50.955  1.00  0.00     0.117 A 
HETATM   22  N   UNL     1     -44.267  60.261 -51.303  1.00  0.00    -0.352 N 
HETATM   23  C   UNL     1     -43.078  58.361 -51.463  1.00  0.00     0.036 A 
HETATM   24  H   UNL     1     -44.558  61.205 -51.079  1.00  0.00     0.166 HD
HETATM   25  C   UNL     1     -45.020  59.380 -52.038  1.00  0.00     0.090 A 
HETATM   26  C   UNL     1     -44.313  58.200 -52.152  1.00  0.00     0.034 A 
ENDBRANCH   3  16
TORSDOF 4
ENDMDL
MODEL 3
REMARK VINA RESULT:      -7.4      5.080      6.855
REMARK  4 active torsions:
REMARK  status: ('A' for Active; 'I' for Inactive)
REMARK    1  A    between atoms: C_2  and  N_3 
REMARK    2  A    between atoms: C_2  and  C_4 
REMARK    3  A    between atoms: C_7  and  C_10 
REMARK       I    between atoms: C_10  and  N_12 
REMARK    4  A    between atoms: N_12  and  C_13 
ROOT
HETATM    1  C   UNL     1     -42.608  55.461 -52.978  1.00  0.00     0.226 C 
HETATM    2  O   UNL     1     -42.708  56.155 -53.989  1.00  0.00    -0.273 OA
HETATM    3  N   UNL     1     -42.850  55.945 -51.703  1.00  0.00    -0.326 N 
HETATM    4  H   UNL     1     -42.975  55.266 -50.965  1.00  0.00     0.169 HD
ENDROOT
BRANCH   1   5
HETATM    5  C   UNL     1     -42.099  54.008 -53.054  1.00  0.00     0.078 C 
HETATM    6  C   UNL     1     -40.903  53.841 -52.099  1.00  0.00     0.014 C 
HETATM    7  C   UNL     1     -40.335  52.424 -52.105  1.00  0.00     0.007 C 
HETATM    8  C   UNL     1     -39.944  51.973 -53.521  1.00  0.00     0.018 C 
HETATM    9  C   UNL     1     -41.160  52.100 -54.453  1.00  0.00     0.007 C 
HETATM   10  C   UNL     1     -41.725  53.522 -54.461  1.00  0.00     0.014 C 
BRANCH   8  11
HETATM   11  C   UNL     1     -39.296  50.562 -53.519  1.00  0.00     0.218 C 
HETATM   12  C   UNL     1     -39.598  49.718 -52.280  1.00  0.00     0.043 C 
BRANCH  11  13
HETATM   13  N   UNL     1     -39.719  49.815 -54.707  1.00  0.00     0.082 N 
HETATM   14  H   UNL     1     -40.655  49.434 -54.559  1.00  0.00     0.313 HD
HETATM   15  H   UNL     1     -39.110  49.010 -54.843  1.00  0.00     0.313 HD
ENDBRANCH  11  13
ENDBRANCH   8  11
ENDBRANCH   1   5
BRANCH   3  16
HETATM   16  C   UNL     1     -43.154  57.284 -51.372  1.00  0.00     0.050 A 
HETATM   17  C   UNL     1     -44.463  57.793 -51.344  1.00  0.00     0.047 A 
HETATM   18  C   UNL     1     -44.710  59.119 -51.015  1.00  0.00     0.092 A 
HETATM   19  N   UNL     1     -43.709  59.955 -50.719  1.00  0.00    -0.351 N 
HETATM   20  H   UNL     1     -43.905  60.924 -50.476  1.00  0.00     0.166 HD
HETATM   21  C   UNL     1     -42.433  59.488 -50.752  1.00  0.00     0.117 A 
HETATM   22  N   UNL     1     -41.287  60.186 -50.477  1.00  0.00    -0.352 N 
HETATM   23  C   UNL     1     -42.101  58.179 -51.077  1.00  0.00     0.036 A 
HETATM   24  H   UNL     1     -41.215  61.159 -50.206  1.00  0.00     0.166 HD
HETATM   25  C   UNL     1     -40.213  59.344 -50.613  1.00  0.00     0.090 A 
HETATM   26  C   UNL     1     -40.683  58.101 -50.983  1.00  0.00     0.034 A 
ENDBRANCH   3  16
TORSDOF 4
ENDMDL
MODEL 4
REMARK VINA RESULT:      -7.3      0.918      2.449
REMARK  4 active torsions:
REMARK  status: ('A' for Active; 'I' for Inactive)
REMARK    1  A    between atoms: C_2  and  N_3 
REMARK    2  A    between atoms: C_2  and  C_4 
REMARK    3  A    between atoms: C_7  and  C_10 
REMARK       I    between atoms: C_10  and  N_12 
REMARK    4  A    between atoms: N_12  and  C_13 
ROOT
HETATM    1  C   UNL     1     -42.792  56.043 -56.113  1.00  0.00     0.226 C 
HETATM    2  O   UNL     1     -43.799  56.703 -55.861  1.00  0.00    -0.273 OA
HETATM    3  N   UNL     1     -42.455  55.641 -57.395  1.00  0.00    -0.326 N 
HETATM    4  H   UNL     1     -41.510  55.314 -57.545  1.00  0.00     0.169 HD
ENDROOT
BRANCH   1   5
HETATM    5  C   UNL     1     -41.875  55.524 -54.988  1.00  0.00     0.078 C 
HETATM    6  C   UNL     1     -41.114  54.282 -55.489  1.00  0.00     0.014 C 
HETATM    7  C   UNL     1     -40.173  53.700 -54.437  1.00  0.00     0.007 C 
HETATM    8  C   UNL     1     -40.913  53.373 -53.130  1.00  0.00     0.018 C 
HETATM    9  C   UNL     1     -41.628  54.633 -52.617  1.00  0.00     0.007 C 
HETATM   10  C   UNL     1     -42.583  55.213 -53.663  1.00  0.00     0.014 C 
BRANCH   8  11
HETATM   11  C   UNL     1     -39.973  52.712 -52.086  1.00  0.00     0.218 C 
HETATM   12  C   UNL     1     -40.539  52.641 -50.667  1.00  0.00     0.043 C 
BRANCH  11  13
HETATM   13  N   UNL     1     -39.622  51.355 -52.516  1.00  0.00     0.082 N 
HETATM   14  H   UNL     1     -39.205  50.844 -51.737  1.00  0.00     0.313 HD
HETATM   15  H   UNL     1     -38.904  51.398 -53.237  1.00  0.00     0.313 HD
ENDBRANCH  11  13
ENDBRANCH   8  11
ENDBRANCH   1   5
BRANCH   3  16
HETATM   16  C   UNL     1     -43.232  55.845 -58.556  1.00  0.00     0.050 A 
HETATM   17  C   UNL     1     -44.045  54.850 -59.123  1.00  0.00     0.047 A 
HETATM   18  C   UNL     1     -44.788  55.098 -60.270  1.00  0.00     0.092 A 
HETATM   19  N   UNL     1     -44.751  56.291 -60.872  1.00  0.00    -0.351 N 
HETATM   20  H   UNL     1     -45.304  56.460 -61.710  1.00  0.00     0.166 HD
HETATM   21  C   UNL     1     -43.961  57.265 -60.348  1.00  0.00     0.117 A 
HETATM   22  N   UNL     1     -43.797  58.541 -60.817  1.00  0.00    -0.352 N 
HETATM   23  C   UNL     1     -43.183  57.096 -59.210  1.00  0.00     0.036 A 
HETATM   24  H   UNL     1     -44.240  58.956 -61.629  1.00  0.00     0.166 HD
HETATM   25  C   UNL     1     -42.925  59.207 -59.993  1.00  0.00     0.090 A 
HETATM   26  C   UNL     1     -42.529  58.341 -58.995  1.00  0.00     0.034 A 
ENDBRANCH   3  16
TORSDOF 4
ENDMDL
MODEL 5
REMARK VINA RESULT:      -7.3      4.241      5.398
REMARK  4 active torsions:
REMARK  status: ('A' for Active; 'I' for Inactive)
REMARK    1  A    between atoms: C_2  and  N_3 
REMARK    2  A    between atoms: C_2  and  C_4 
REMARK    3  A    between atoms: C_7  and  C_10 
REMARK       I    between atoms: C_10  and  N_12 
REMARK    4  A    between atoms: N_12  and  C_13 
ROOT
HETATM    1  C   UNL     1     -42.370  55.695 -52.861  1.00  0.00     0.226 C 
HETATM    2  O   UNL     1     -41.525  56.586 -52.784  1.00  0.00    -0.273 OA
HETATM    3  N   UNL     1     -43.732  55.937 -52.779  1.00  0.00    -0.326 N 
HETATM    4  H   UNL     1     -44.353  55.199 -53.083  1.00  0.00     0.169 HD
ENDROOT
BRANCH   1   5
HETATM    5  C   UNL     1     -41.960  54.212 -52.952  1.00  0.00     0.078 C 
HETATM    6  C   UNL     1     -40.793  53.950 -51.982  1.00  0.00     0.014 C 
HETATM    7  C   UNL     1     -40.322  52.498 -52.002  1.00  0.00     0.007 C 
HETATM    8  C   UNL     1     -39.939  52.043 -53.419  1.00  0.00     0.018 C 
HETATM    9  C   UNL     1     -41.129  52.266 -54.368  1.00  0.00     0.007 C 
HETATM   10  C   UNL     1     -41.597  53.723 -54.361  1.00  0.00     0.014 C 
BRANCH   8  11
HETATM   11  C   UNL     1     -39.388  50.591 -53.430  1.00  0.00     0.218 C 
HETATM   12  C   UNL     1     -39.604  49.813 -52.132  1.00  0.00     0.043 C 
BRANCH  11  13
HETATM   13  N   UNL     1     -39.990  49.836 -54.533  1.00  0.00     0.082 N 
HETATM   14  H   UNL     1     -40.956  49.600 -54.302  1.00  0.00     0.313 HD
HETATM   15  H   UNL     1     -39.505  48.947 -54.645  1.00  0.00     0.313 HD
ENDBRANCH  11  13
ENDBRANCH   8  11
ENDBRANCH   1   5
BRANCH   3  16
HETATM   16  C   UNL     1     -44.335  57.187 -52.519  1.00  0.00     0.050 A 
HETATM   17  C   UNL     1     -44.601  57.658 -51.223  1.00  0.00     0.047 A 
HETATM   18  C   UNL     1     -45.201  58.893 -51.018  1.00  0.00     0.092 A 
HETATM   19  N   UNL     1     -45.547  59.672 -52.048  1.00  0.00    -0.351 N 
HETATM   20  H   UNL     1     -45.983  60.577 -51.884  1.00  0.00     0.166 HD
HETATM   21  C   UNL     1     -45.310  59.231 -53.312  1.00  0.00     0.117 A 
HETATM   22  N   UNL     1     -45.588  59.883 -54.484  1.00  0.00    -0.352 N 
HETATM   23  C   UNL     1     -44.722  58.006 -53.602  1.00  0.00     0.036 A 
HETATM   24  H   UNL     1     -46.013  60.796 -54.589  1.00  0.00     0.166 HD
HETATM   25  C   UNL     1     -45.181  59.099 -55.534  1.00  0.00     0.090 A 
HETATM   26  C   UNL     1     -44.645  57.936 -55.021  1.00  0.00     0.034 A 
ENDBRANCH   3  16
TORSDOF 4
ENDMDL
MODEL 6
REMARK VINA RESULT:      -7.1      1.948      7.868
REMARK  4 active torsions:
REMARK  status: ('A' for Active; 'I' for Inactive)
REMARK    1  A    between atoms: C_2  and  N_3 
REMARK    2  A    between atoms: C_2  and  C_4 
REMARK    3  A    between atoms: C_7  and  C_10 
REMARK       I    between atoms: C_10  and  N_12 
REMARK    4  A    between atoms: N_12  and  C_13 
ROOT
HETATM    1  C   UNL     1     -42.828  55.101 -54.475  1.00  0.00     0.226 C 
HETATM    2  O   UNL     1     -43.747  54.589 -53.837  1.00  0.00    -0.273 OA
HETATM    3  N   UNL     1     -41.494  54.948 -54.133  1.00  0.00    -0.326 N 
HETATM    4  H   UNL     1     -40.805  55.197 -54.830  1.00  0.00     0.169 HD
ENDROOT
BRANCH   1   5
HETATM    5  C   UNL     1     -43.109  56.047 -55.659  1.00  0.00     0.078 C 
HETATM    6  C   UNL     1     -42.819  55.306 -56.978  1.00  0.00     0.014 C 
HETATM    7  C   UNL     1     -43.076  56.168 -58.210  1.00  0.00     0.007 C 
HETATM    8  C   UNL     1     -42.282  57.483 -58.161  1.00  0.00     0.018 C 
HETATM    9  C   UNL     1     -42.616  58.235 -56.863  1.00  0.00     0.007 C 
HETATM   10  C   UNL     1     -42.348  57.379 -55.623  1.00  0.00     0.014 C 
BRANCH   8  11
HETATM   11  C   UNL     1     -42.483  58.327 -59.449  1.00  0.00     0.218 C 
HETATM   12  C   UNL     1     -42.163  59.815 -59.297  1.00  0.00     0.043 C 
BRANCH  11  13
HETATM   13  N   UNL     1     -41.668  57.782 -60.537  1.00  0.00     0.082 N 
HETATM   14  H   UNL     1     -41.017  58.495 -60.870  1.00  0.00     0.313 HD
HETATM   15  H   UNL     1     -42.262  57.555 -61.333  1.00  0.00     0.313 HD
ENDBRANCH  11  13
ENDBRANCH   8  11
ENDBRANCH   1   5
BRANCH   3  16
HETATM   16  C   UNL     1     -41.006  54.276 -52.991  1.00  0.00     0.050 A 
HETATM   17  C   UNL     1     -41.028  54.833 -51.702  1.00  0.00     0.047 A 
HETATM   18  C   UNL     1     -40.532  54.134 -50.610  1.00  0.00     0.092 A 
HETATM   19  N   UNL     1     -40.013  52.910 -50.752  1.00  0.00    -0.351 N 
HETATM   20  H   UNL     1     -39.656  52.407 -49.942  1.00  0.00     0.166 HD
HETATM   21  C   UNL     1     -39.970  52.355 -51.992  1.00  0.00     0.117 A 
HETATM   22  N   UNL     1     -39.485  51.121 -52.332  1.00  0.00    -0.352 N 
HETATM   23  C   UNL     1     -40.439  52.991 -53.135  1.00  0.00     0.036 A 
HETATM   24  H   UNL     1     -39.083  50.429 -51.711  1.00  0.00     0.166 HD
HETATM   25  C   UNL     1     -39.639  50.942 -53.684  1.00  0.00     0.090 A 
HETATM   26  C   UNL     1     -40.223  52.078 -54.206  1.00  0.00     0.034 A 
ENDBRANCH   3  16
TORSDOF 4
ENDMDL
MODEL 7
REMARK VINA RESULT:      -7.0     14.820     18.016
REMARK  4 active torsions:
REMARK  status: ('A' for Active; 'I' for Inactive)
REMARK    1  A    between atoms: C_2  and  N_3 
REMARK    2  A    between atoms: C_2  and  C_4 
REMARK    3  A    between atoms: C_7  and  C_10 
REMARK       I    between atoms: C_10  and  N_12 
REMARK    4  A    between atoms: N_12  and  C_13 
ROOT
HETATM    1  C   UNL     1     -35.474  41.847 -53.627  1.00  0.00     0.226 C 
HETATM    2  O   UNL     1     -35.606  42.684 -52.734  1.00  0.00    -0.273 OA
HETATM    3  N   UNL     1     -34.725  40.692 -53.473  1.00  0.00    -0.326 N 
HETATM    4  H   UNL     1     -34.859  39.959 -54.156  1.00  0.00     0.169 HD
ENDROOT
BRANCH   1   5
HETATM    5  C   UNL     1     -36.060  42.081 -55.033  1.00  0.00     0.078 C 
HETATM    6  C   UNL     1     -37.266  41.146 -55.239  1.00  0.00     0.014 C 
HETATM    7  C   UNL     1     -37.917  41.313 -56.610  1.00  0.00     0.007 C 
HETATM    8  C   UNL     1     -36.903  41.121 -57.748  1.00  0.00     0.018 C 
HETATM    9  C   UNL     1     -35.727  42.093 -57.556  1.00  0.00     0.007 C 
HETATM   10  C   UNL     1     -35.063  41.921 -56.189  1.00  0.00     0.014 C 
BRANCH   8  11
HETATM   11  C   UNL     1     -37.577  41.216 -59.144  1.00  0.00     0.218 C 
HETATM   12  C   UNL     1     -37.316  42.521 -59.896  1.00  0.00     0.043 C 
BRANCH  11  13
HETATM   13  N   UNL     1     -37.145  40.097 -59.986  1.00  0.00     0.082 N 
HETATM   14  H   UNL     1     -36.137  39.963 -59.889  1.00  0.00     0.313 HD
HETATM   15  H   UNL     1     -37.303  40.323 -60.966  1.00  0.00     0.313 HD
ENDBRANCH  11  13
ENDBRANCH   8  11
ENDBRANCH   1   5
BRANCH   3  16
HETATM   16  C   UNL     1     -33.954  40.351 -52.340  1.00  0.00     0.050 A 
HETATM   17  C   UNL     1     -32.561  40.520 -52.276  1.00  0.00     0.047 A 
HETATM   18  C   UNL     1     -31.847  40.166 -51.140  1.00  0.00     0.092 A 
HETATM   19  N   UNL     1     -32.462  39.648 -50.071  1.00  0.00    -0.351 N 
HETATM   20  H   UNL     1     -31.926  39.395 -49.243  1.00  0.00     0.166 HD
HETATM   21  C   UNL     1     -33.808  39.464 -50.115  1.00  0.00     0.117 A 
HETATM   22  N   UNL     1     -34.608  38.955 -49.126  1.00  0.00    -0.352 N 
HETATM   23  C   UNL     1     -34.594  39.786 -51.214  1.00  0.00     0.036 A 
HETATM   24  H   UNL     1     -34.319  38.639 -48.208  1.00  0.00     0.166 HD
HETATM   25  C   UNL     1     -35.907  38.949 -49.568  1.00  0.00     0.090 A 
HETATM   26  C   UNL     1     -35.929  39.453 -50.851  1.00  0.00     0.034 A 
ENDBRANCH   3  16
TORSDOF 4
ENDMDL
MODEL 8
REMARK VINA RESULT:      -6.8     14.794     17.981
REMARK  4 active torsions:
REMARK  status: ('A' for Active; 'I' for Inactive)
REMARK    1  A    between atoms: C_2  and  N_3 
REMARK    2  A    between atoms: C_2  and  C_4 
REMARK    3  A    between atoms: C_7  and  C_10 
REMARK       I    between atoms: C_10  and  N_12 
REMARK    4  A    between atoms: N_12  and  C_13 
ROOT
HETATM    1  C   UNL     1     -36.138  41.806 -53.600  1.00  0.00     0.226 C 
HETATM    2  O   UNL     1     -35.785  42.752 -52.896  1.00  0.00    -0.273 OA
HETATM    3  N   UNL     1     -36.069  40.488 -53.181  1.00  0.00    -0.326 N 
HETATM    4  H   UNL     1     -36.589  39.805 -53.715  1.00  0.00     0.169 HD
ENDROOT
BRANCH   1   5
HETATM    5  C   UNL     1     -36.593  42.022 -55.057  1.00  0.00     0.078 C 
HETATM    6  C   UNL     1     -37.664  40.974 -55.411  1.00  0.00     0.014 C 
HETATM    7  C   UNL     1     -38.180  41.116 -56.841  1.00  0.00     0.007 C 
HETATM    8  C   UNL     1     -37.036  41.065 -57.866  1.00  0.00     0.018 C 
HETATM    9  C   UNL     1     -35.997  42.146 -57.528  1.00  0.00     0.007 C 
HETATM   10  C   UNL     1     -35.467  42.002 -56.100  1.00  0.00     0.014 C 
BRANCH   8  11
HETATM   11  C   UNL     1     -37.564  41.132 -59.325  1.00  0.00     0.218 C 
HETATM   12  C   UNL     1     -37.323  42.466 -60.034  1.00  0.00     0.043 C 
BRANCH  11  13
HETATM   13  N   UNL     1     -36.963  40.062 -60.125  1.00  0.00     0.082 N 
HETATM   14  H   UNL     1     -36.740  40.413 -61.057  1.00  0.00     0.313 HD
HETATM   15  H   UNL     1     -37.640  39.314 -60.264  1.00  0.00     0.313 HD
ENDBRANCH  11  13
ENDBRANCH   8  11
ENDBRANCH   1   5
BRANCH   3  16
HETATM   16  C   UNL     1     -35.523  40.035 -51.960  1.00  0.00     0.050 A 
HETATM   17  C   UNL     1     -36.294  39.808 -50.809  1.00  0.00     0.047 A 
HETATM   18  C   UNL     1     -35.709  39.367 -49.629  1.00  0.00     0.092 A 
HETATM   19  N   UNL     1     -34.393  39.148 -49.552  1.00  0.00    -0.351 N 
HETATM   20  H   UNL     1     -33.978  38.820 -48.681  1.00  0.00     0.166 HD
HETATM   21  C   UNL     1     -33.625  39.372 -50.650  1.00  0.00     0.117 A 
HETATM   22  N   UNL     1     -32.271  39.202 -50.765  1.00  0.00    -0.352 N 
HETATM   23  C   UNL     1     -34.130  39.820 -51.864  1.00  0.00     0.036 A 
HETATM   24  H   UNL     1     -31.632  38.880 -50.047  1.00  0.00     0.166 HD
HETATM   25  C   UNL     1     -31.890  39.527 -52.042  1.00  0.00     0.090 A 
HETATM   26  C   UNL     1     -33.014  39.913 -52.742  1.00  0.00     0.034 A 
ENDBRANCH   3  16
TORSDOF 4
ENDMDL
MODEL 9
REMARK VINA RESULT:      -6.7      1.663      7.920
REMARK  4 active torsions:
REMARK  status: ('A' for Active; 'I' for Inactive)
REMARK    1  A    between atoms: C_2  and  N_3 
REMARK    2  A    between atoms: C_2  and  C_4 
REMARK    3  A    between atoms: C_7  and  C_10 
REMARK       I    between atoms: C_10  and  N_12 
REMARK    4  A    between atoms: N_12  and  C_13 
ROOT
HETATM    1  C   UNL     1     -41.835  56.146 -54.834  1.00  0.00     0.226 C 
HETATM    2  O   UNL     1     -41.143  56.911 -54.161  1.00  0.00    -0.273 OA
HETATM    3  N   UNL     1     -42.227  54.895 -54.389  1.00  0.00    -0.326 N 
HETATM    4  H   UNL     1     -42.974  54.437 -54.892  1.00  0.00     0.169 HD
ENDROOT
BRANCH   1   5
HETATM    5  C   UNL     1     -42.233  56.495 -56.281  1.00  0.00     0.078 C 
HETATM    6  C   UNL     1     -43.145  57.736 -56.269  1.00  0.00     0.014 C 
HETATM    7  C   UNL     1     -43.587  58.159 -57.667  1.00  0.00     0.007 C 
HETATM    8  C   UNL     1     -44.275  57.009 -58.420  1.00  0.00     0.018 C 
HETATM    9  C   UNL     1     -43.335  55.793 -58.466  1.00  0.00     0.007 C 
HETATM   10  C   UNL     1     -42.899  55.356 -57.066  1.00  0.00     0.014 C 
BRANCH   8  11
HETATM   11  C   UNL     1     -44.792  57.459 -59.813  1.00  0.00     0.218 C 
HETATM   12  C   UNL     1     -44.152  58.738 -60.353  1.00  0.00     0.043 C 
BRANCH  11  13
HETATM   13  N   UNL     1     -44.591  56.387 -60.792  1.00  0.00     0.082 N 
HETATM   14  H   UNL     1     -43.778  56.597 -61.371  1.00  0.00     0.313 HD
HETATM   15  H   UNL     1     -45.385  56.349 -61.429  1.00  0.00     0.313 HD
ENDBRANCH  11  13
ENDBRANCH   8  11
ENDBRANCH   1   5
BRANCH   3  16
HETATM   16  C   UNL     1     -41.836  54.289 -53.174  1.00  0.00     0.050 A 
HETATM   17  C   UNL     1     -42.316  54.699 -51.920  1.00  0.00     0.047 A 
HETATM   18  C   UNL     1     -41.898  54.074 -50.752  1.00  0.00     0.092 A 
HETATM   19  N   UNL     1     -41.022  53.065 -50.786  1.00  0.00    -0.351 N 
HETATM   20  H   UNL     1     -40.727  52.613 -49.922  1.00  0.00     0.166 HD
HETATM   21  C   UNL     1     -40.534  52.659 -51.987  1.00  0.00     0.117 A 
HETATM   22  N   UNL     1     -39.641  51.648 -52.222  1.00  0.00    -0.352 N 
HETATM   23  C   UNL     1     -40.896  53.235 -53.199  1.00  0.00     0.036 A 
HETATM   24  H   UNL     1     -39.205  51.046 -51.533  1.00  0.00     0.166 HD
HETATM   25  C   UNL     1     -39.421  51.555 -53.573  1.00  0.00     0.090 A 
HETATM   26  C   UNL     1     -40.180  52.521 -54.200  1.00  0.00     0.034 A 
ENDBRANCH   3  16
TORSDOF 4
ENDMDL
MODEL 10
REMARK VINA RESULT:      -6.7      1.632      8.204
REMARK  4 active torsions:
REMARK  status: ('A' for Active; 'I' for Inactive)
REMARK    1  A    between atoms: C_2  and  N_3 
REMARK    2  A    between atoms: C_2  and  C_4 
REMARK    3  A    between atoms: C_7  and  C_10 
REMARK       I    between atoms: C_10  and  N_12 
REMARK    4  A    between atoms: N_12  and  C_13 
ROOT
HETATM    1  C   UNL     1     -41.716  55.406 -54.887  1.00  0.00     0.226 C 
HETATM    2  O   UNL     1     -40.716  56.018 -54.514  1.00  0.00    -0.273 OA
HETATM    3  N   UNL     1     -41.986  54.101 -54.510  1.00  0.00    -0.326 N 
HETATM    4  H   UNL     1     -42.925  53.759 -54.663  1.00  0.00     0.169 HD
ENDROOT
BRANCH   1   5
HETATM    5  C   UNL     1     -42.700  56.025 -55.899  1.00  0.00     0.078 C 
HETATM    6  C   UNL     1     -42.681  55.196 -57.196  1.00  0.00     0.014 C 
HETATM    7  C   UNL     1     -43.634  55.736 -58.258  1.00  0.00     0.007 C 
HETATM    8  C   UNL     1     -43.356  57.214 -58.575  1.00  0.00     0.018 C 
HETATM    9  C   UNL     1     -43.425  58.038 -57.279  1.00  0.00     0.007 C 
HETATM   10  C   UNL     1     -42.461  57.508 -56.215  1.00  0.00     0.014 C 
BRANCH   8  11
HETATM   11  C   UNL     1     -44.274  57.744 -59.709  1.00  0.00     0.218 C 
HETATM   12  C   UNL     1     -43.760  58.998 -60.418  1.00  0.00     0.043 C 
BRANCH  11  13
HETATM   13  N   UNL     1     -44.490  56.696 -60.710  1.00  0.00     0.082 N 
HETATM   14  H   UNL     1     -43.662  56.607 -61.299  1.00  0.00     0.313 HD
HETATM   15  H   UNL     1     -45.248  56.968 -61.334  1.00  0.00     0.313 HD
ENDBRANCH  11  13
ENDBRANCH   8  11
ENDBRANCH   1   5
BRANCH   3  16
HETATM   16  C   UNL     1     -41.143  53.273 -53.736  1.00  0.00     0.050 A 
HETATM   17  C   UNL     1     -40.332  52.269 -54.290  1.00  0.00     0.047 A 
HETATM   18  C   UNL     1     -39.523  51.477 -53.486  1.00  0.00     0.092 A 
HETATM   19  N   UNL     1     -39.493  51.643 -52.160  1.00  0.00    -0.351 N 
HETATM   20  H   UNL     1     -38.892  51.057 -51.583  1.00  0.00     0.166 HD
HETATM   21  C   UNL     1     -40.279  52.600 -51.601  1.00  0.00     0.117 A 
HETATM   22  N   UNL     1     -40.381  52.919 -50.273  1.00  0.00    -0.352 N 
HETATM   23  C   UNL     1     -41.121  53.428 -52.333  1.00  0.00     0.036 A 
HETATM   24  H   UNL     1     -39.884  52.490 -49.501  1.00  0.00     0.166 HD
HETATM   25  C   UNL     1     -41.274  53.951 -50.132  1.00  0.00     0.090 A 
HETATM   26  C   UNL     1     -41.748  54.285 -51.384  1.00  0.00     0.034 A 
ENDBRANCH   3  16
TORSDOF 4
ENDMDL
