MODEL 1
REMARK VINA RESULT:      -8.8      0.000      0.000
REMARK  10 active torsions:
REMARK  status: ('A' for Active; 'I' for Inactive)
REMARK    1  A    between atoms: C_7  and  N_8 
REMARK    2  A    between atoms: C_9  and  S_10 
REMARK    3  A    between atoms: S_10  and  C_11 
REMARK    4  A    between atoms: C_11  and  C_12 
REMARK       I    between atoms: C_12  and  N_13 
REMARK    5  A    between atoms: N_13  and  C_14 
REMARK    6  A    between atoms: C_14  and  C_15 
REMARK    7  A    between atoms: C_15  and  C_16 
REMARK    8  A    between atoms: C_18  and  O_19 
REMARK    9  A    between atoms: C_21  and  O_22 
REMARK   10  A    between atoms: C_30  and  N_31 
ROOT
HETATM    1  N   UNL     1     -42.407  59.436 -58.752  1.00  0.00    -0.276 N 
HETATM    2  C   UNL     1     -42.250  59.974 -57.444  1.00  0.00     0.177 A 
HETATM    3  N   UNL     1     -41.640  61.096 -57.144  1.00  0.00    -0.204 NA
HETATM    4  C   UNL     1     -41.167  61.767 -58.216  1.00  0.00     0.162 A 
HETATM    5  C   UNL     1     -41.224  61.437 -59.540  1.00  0.00     0.081 A 
HETATM    6  C   UNL     1     -41.844  60.188 -59.871  1.00  0.00     0.124 A 
HETATM    7  N   UNL     1     -40.539  62.978 -58.173  1.00  0.00    -0.260 N 
HETATM    8  H   UNL     1     -40.324  63.540 -57.358  1.00  0.00     0.191 HD
HETATM    9  N   UNL     1     -40.197  63.438 -59.397  1.00  0.00    -0.177 NA
HETATM   10  C   UNL     1     -40.631  62.493 -60.248  1.00  0.00     0.068 A 
HETATM   11  C   UNL     1     -40.449  62.688 -61.705  1.00  0.00     0.073 C 
ENDROOT
BRANCH   2  12
HETATM   12  S   UNL     1     -42.968  59.144 -56.047  1.00  0.00    -0.082 SA
BRANCH  12  13
HETATM   13  C   UNL     1     -42.020  59.912 -54.703  1.00  0.00     0.185 C 
BRANCH  13  14
HETATM   14  C   UNL     1     -41.150  58.905 -53.964  1.00  0.00     0.227 C 
HETATM   15  N   UNL     1     -41.593  57.600 -54.109  1.00  0.00    -0.360 N 
HETATM   16  H   UNL     1     -42.519  57.445 -54.486  1.00  0.00     0.162 HD
HETATM   17  O   UNL     1     -40.185  59.204 -53.269  1.00  0.00    -0.273 OA
BRANCH  15  18
HETATM   18  C   UNL     1     -40.955  56.505 -53.393  1.00  0.00     0.127 C 
BRANCH  18  19
HETATM   19  C   UNL     1     -41.680  55.183 -53.640  1.00  0.00     0.058 C 
BRANCH  19  20
HETATM   20  C   UNL     1     -40.983  54.003 -53.012  1.00  0.00    -0.054 A 
HETATM   21  C   UNL     1     -40.438  52.992 -53.818  1.00  0.00     0.046 A 
HETATM   22  C   UNL     1     -39.801  51.884 -53.244  1.00  0.00     0.102 A 
HETATM   23  C   UNL     1     -39.702  51.786 -51.842  1.00  0.00     0.101 A 
HETATM   24  C   UNL     1     -40.228  52.805 -51.042  1.00  0.00     0.040 A 
HETATM   25  C   UNL     1     -40.862  53.906 -51.623  1.00  0.00     0.010 A 
BRANCH  22  26
HETATM   26  O   UNL     1     -39.253  50.847 -53.960  1.00  0.00    -0.353 OA
HETATM   27  C   UNL     1     -40.140  49.894 -54.527  1.00  0.00     0.210 C 
ENDBRANCH  22  26
BRANCH  23  28
HETATM   28  O   UNL     1     -39.067  50.670 -51.356  1.00  0.00    -0.353 OA
HETATM   29  C   UNL     1     -39.833  49.766 -50.574  1.00  0.00     0.210 C 
ENDBRANCH  23  28
ENDBRANCH  19  20
ENDBRANCH  18  19
ENDBRANCH  15  18
ENDBRANCH  13  14
ENDBRANCH  12  13
ENDBRANCH   2  12
BRANCH   1  30
HETATM   30  C   UNL     1     -43.087  58.204 -58.990  1.00  0.00     0.043 A 
HETATM   31  C   UNL     1     -42.384  57.001 -59.130  1.00  0.00     0.032 A 
HETATM   32  C   UNL     1     -43.061  55.821 -59.450  1.00  0.00     0.026 A 
HETATM   33  C   UNL     1     -44.442  55.832 -59.652  1.00  0.00     0.040 A 
HETATM   34  C   UNL     1     -45.170  57.024 -59.526  1.00  0.00    -0.038 A 
HETATM   35 CL   UNL     1     -45.210  54.345 -60.075  1.00  0.00    -0.084 Cl
HETATM   36  C   UNL     1     -46.658  57.071 -59.746  1.00  0.00     0.050 C 
HETATM   37  C   UNL     1     -44.481  58.201 -59.188  1.00  0.00     0.038 A 
ENDBRANCH   1  30
BRANCH   6  38
HETATM   38  N   UNL     1     -41.851  59.743 -61.113  1.00  0.00    -0.384 N 
HETATM   39  H   UNL     1     -42.212  60.296 -61.876  1.00  0.00     0.157 HD
HETATM   40  H   UNL     1     -41.451  58.838 -61.331  1.00  0.00     0.157 HD
ENDBRANCH   6  38
TORSDOF 10
ENDMDL
MODEL 2
REMARK VINA RESULT:      -8.8      0.694      1.586
REMARK  10 active torsions:
REMARK  status: ('A' for Active; 'I' for Inactive)
REMARK    1  A    between atoms: C_7  and  N_8 
REMARK    2  A    between atoms: C_9  and  S_10 
REMARK    3  A    between atoms: S_10  and  C_11 
REMARK    4  A    between atoms: C_11  and  C_12 
REMARK       I    between atoms: C_12  and  N_13 
REMARK    5  A    between atoms: N_13  and  C_14 
REMARK    6  A    between atoms: C_14  and  C_15 
REMARK    7  A    between atoms: C_15  and  C_16 
REMARK    8  A    between atoms: C_18  and  O_19 
REMARK    9  A    between atoms: C_21  and  O_22 
REMARK   10  A    between atoms: C_30  and  N_31 
ROOT
HETATM    1  N   UNL     1     -42.467  59.496 -58.750  1.00  0.00    -0.276 N 
HETATM    2  C   UNL     1     -42.358  60.045 -57.442  1.00  0.00     0.177 A 
HETATM    3  N   UNL     1     -41.755  61.167 -57.129  1.00  0.00    -0.204 NA
HETATM    4  C   UNL     1     -41.238  61.827 -58.188  1.00  0.00     0.162 A 
HETATM    5  C   UNL     1     -41.245  61.484 -59.511  1.00  0.00     0.081 A 
HETATM    6  C   UNL     1     -41.858  60.235 -59.853  1.00  0.00     0.124 A 
HETATM    7  N   UNL     1     -40.606  63.035 -58.132  1.00  0.00    -0.260 N 
HETATM    8  H   UNL     1     -40.420  63.603 -57.314  1.00  0.00     0.191 HD
HETATM    9  N   UNL     1     -40.215  63.482 -59.346  1.00  0.00    -0.177 NA
HETATM   10  C   UNL     1     -40.621  62.531 -60.204  1.00  0.00     0.068 A 
HETATM   11  C   UNL     1     -40.382  62.712 -61.655  1.00  0.00     0.073 C 
ENDROOT
BRANCH   2  12
HETATM   12  S   UNL     1     -43.133  59.231 -56.066  1.00  0.00    -0.082 SA
BRANCH  12  13
HETATM   13  C   UNL     1     -42.191  59.961 -54.697  1.00  0.00     0.185 C 
BRANCH  13  14
HETATM   14  C   UNL     1     -41.240  58.962 -54.055  1.00  0.00     0.227 C 
HETATM   15  N   UNL     1     -41.552  57.646 -54.362  1.00  0.00    -0.360 N 
HETATM   16  H   UNL     1     -42.452  57.449 -54.781  1.00  0.00     0.162 HD
HETATM   17  O   UNL     1     -40.321  59.266 -53.303  1.00  0.00    -0.273 OA
BRANCH  15  18
HETATM   18  C   UNL     1     -40.822  56.540 -53.760  1.00  0.00     0.127 C 
BRANCH  18  19
HETATM   19  C   UNL     1     -41.087  55.231 -54.503  1.00  0.00     0.058 C 
BRANCH  19  20
HETATM   20  C   UNL     1     -40.624  54.017 -53.738  1.00  0.00    -0.054 A 
HETATM   21  C   UNL     1     -40.607  54.029 -52.335  1.00  0.00     0.046 A 
HETATM   22  C   UNL     1     -40.163  52.912 -51.614  1.00  0.00     0.102 A 
HETATM   23  C   UNL     1     -39.735  51.763 -52.307  1.00  0.00     0.101 A 
HETATM   24  C   UNL     1     -39.772  51.745 -53.704  1.00  0.00     0.040 A 
HETATM   25  C   UNL     1     -40.214  52.865 -54.414  1.00  0.00     0.010 A 
BRANCH  22  26
HETATM   26  O   UNL     1     -40.104  52.847 -50.244  1.00  0.00    -0.353 OA
HETATM   27  C   UNL     1     -39.957  54.065 -49.530  1.00  0.00     0.210 C 
ENDBRANCH  22  26
BRANCH  23  28
HETATM   28  O   UNL     1     -39.312  50.711 -51.530  1.00  0.00    -0.353 OA
HETATM   29  C   UNL     1     -39.622  49.399 -51.978  1.00  0.00     0.210 C 
ENDBRANCH  23  28
ENDBRANCH  19  20
ENDBRANCH  18  19
ENDBRANCH  15  18
ENDBRANCH  13  14
ENDBRANCH  12  13
ENDBRANCH   2  12
BRANCH   1  30
HETATM   30  C   UNL     1     -43.143  58.265 -59.003  1.00  0.00     0.043 A 
HETATM   31  C   UNL     1     -42.443  57.054 -59.085  1.00  0.00     0.032 A 
HETATM   32  C   UNL     1     -43.111  55.874 -59.420  1.00  0.00     0.026 A 
HETATM   33  C   UNL     1     -44.479  55.890 -59.696  1.00  0.00     0.040 A 
HETATM   34  C   UNL     1     -45.204  57.090 -59.629  1.00  0.00    -0.038 A 
HETATM   35 CL   UNL     1     -45.235  54.402 -60.134  1.00  0.00    -0.084 Cl
HETATM   36  C   UNL     1     -46.677  57.143 -59.929  1.00  0.00     0.050 C 
HETATM   37  C   UNL     1     -44.524  58.268 -59.275  1.00  0.00     0.038 A 
ENDBRANCH   1  30
BRANCH   6  38
HETATM   38  N   UNL     1     -41.819  59.779 -61.091  1.00  0.00    -0.384 N 
HETATM   39  H   UNL     1     -41.391  58.894 -61.320  1.00  0.00     0.157 HD
HETATM   40  H   UNL     1     -42.259  60.300 -61.839  1.00  0.00     0.157 HD
ENDBRANCH   6  38
TORSDOF 10
ENDMDL
MODEL 3
REMARK VINA RESULT:      -8.5      1.368      2.055
REMARK  10 active torsions:
REMARK  status: ('A' for Active; 'I' for Inactive)
REMARK    1  A    between atoms: C_7  and  N_8 
REMARK    2  A    between atoms: C_9  and  S_10 
REMARK    3  A    between atoms: S_10  and  C_11 
REMARK    4  A    between atoms: C_11  and  C_12 
REMARK       I    between atoms: C_12  and  N_13 
REMARK    5  A    between atoms: N_13  and  C_14 
REMARK    6  A    between atoms: C_14  and  C_15 
REMARK    7  A    between atoms: C_15  and  C_16 
REMARK    8  A    between atoms: C_18  and  O_19 
REMARK    9  A    between atoms: C_21  and  O_22 
REMARK   10  A    between atoms: C_30  and  N_31 
ROOT
HETATM    1  N   UNL     1     -42.308  59.361 -58.818  1.00  0.00    -0.276 N 
HETATM    2  C   UNL     1     -41.966  59.783 -57.502  1.00  0.00     0.177 A 
HETATM    3  N   UNL     1     -41.335  60.889 -57.191  1.00  0.00    -0.204 NA
HETATM    4  C   UNL     1     -41.035  61.668 -58.253  1.00  0.00     0.162 A 
HETATM    5  C   UNL     1     -41.283  61.457 -59.580  1.00  0.00     0.081 A 
HETATM    6  C   UNL     1     -41.927  60.226 -59.932  1.00  0.00     0.124 A 
HETATM    7  N   UNL     1     -40.425  62.887 -58.190  1.00  0.00    -0.260 N 
HETATM    8  H   UNL     1     -40.099  63.378 -57.366  1.00  0.00     0.191 HD
HETATM    9  N   UNL     1     -40.274  63.464 -59.402  1.00  0.00    -0.177 NA
HETATM   10  C   UNL     1     -40.816  62.588 -60.265  1.00  0.00     0.068 A 
HETATM   11  C   UNL     1     -40.854  62.919 -61.709  1.00  0.00     0.073 C 
ENDROOT
BRANCH   2  12
HETATM   12  S   UNL     1     -42.458  58.811 -56.099  1.00  0.00    -0.082 SA
BRANCH  12  13
HETATM   13  C   UNL     1     -42.036  59.958 -54.757  1.00  0.00     0.185 C 
BRANCH  13  14
HETATM   14  C   UNL     1     -41.389  59.250 -53.576  1.00  0.00     0.227 C 
HETATM   15  N   UNL     1     -42.315  58.735 -52.682  1.00  0.00    -0.360 N 
HETATM   16  H   UNL     1     -43.278  59.035 -52.760  1.00  0.00     0.162 HD
HETATM   17  O   UNL     1     -40.179  59.176 -53.392  1.00  0.00    -0.273 OA
BRANCH  15  18
HETATM   18  C   UNL     1     -41.892  58.113 -51.436  1.00  0.00     0.127 C 
BRANCH  18  19
HETATM   19  C   UNL     1     -42.661  56.819 -51.173  1.00  0.00     0.058 C 
BRANCH  19  20
HETATM   20  C   UNL     1     -42.166  55.662 -52.003  1.00  0.00    -0.054 A 
HETATM   21  C   UNL     1     -42.777  55.358 -53.230  1.00  0.00     0.046 A 
HETATM   22  C   UNL     1     -42.335  54.276 -54.002  1.00  0.00     0.102 A 
HETATM   23  C   UNL     1     -41.262  53.486 -53.544  1.00  0.00     0.101 A 
HETATM   24  C   UNL     1     -40.641  53.803 -52.332  1.00  0.00     0.040 A 
HETATM   25  C   UNL     1     -41.091  54.883 -51.568  1.00  0.00     0.010 A 
BRANCH  22  26
HETATM   26  O   UNL     1     -42.885  53.906 -55.205  1.00  0.00    -0.353 OA
HETATM   27  C   UNL     1     -42.883  54.861 -56.255  1.00  0.00     0.210 C 
ENDBRANCH  22  26
BRANCH  23  28
HETATM   28  O   UNL     1     -40.889  52.443 -54.355  1.00  0.00    -0.353 OA
HETATM   29  C   UNL     1     -40.028  51.458 -53.804  1.00  0.00     0.210 C 
ENDBRANCH  23  28
ENDBRANCH  19  20
ENDBRANCH  18  19
ENDBRANCH  15  18
ENDBRANCH  13  14
ENDBRANCH  12  13
ENDBRANCH   2  12
BRANCH   1  30
HETATM   30  C   UNL     1     -42.998  58.138 -59.068  1.00  0.00     0.043 A 
HETATM   31  C   UNL     1     -42.306  56.968 -59.406  1.00  0.00     0.032 A 
HETATM   32  C   UNL     1     -43.005  55.803 -59.734  1.00  0.00     0.026 A 
HETATM   33  C   UNL     1     -44.401  55.797 -59.744  1.00  0.00     0.040 A 
HETATM   34  C   UNL     1     -45.120  56.956 -59.416  1.00  0.00    -0.038 A 
HETATM   35 CL   UNL     1     -45.201  54.333 -60.188  1.00  0.00    -0.084 Cl
HETATM   36  C   UNL     1     -46.624  56.985 -59.427  1.00  0.00     0.050 C 
HETATM   37  C   UNL     1     -44.406  58.117 -59.074  1.00  0.00     0.038 A 
ENDBRANCH   1  30
BRANCH   6  38
HETATM   38  N   UNL     1     -42.111  59.895 -61.196  1.00  0.00    -0.384 N 
HETATM   39  H   UNL     1     -42.968  59.468 -61.515  1.00  0.00     0.157 HD
HETATM   40  H   UNL     1     -41.399  60.104 -61.885  1.00  0.00     0.157 HD
ENDBRANCH   6  38
TORSDOF 10
ENDMDL
MODEL 4
REMARK VINA RESULT:      -8.1      4.030     10.272
REMARK  10 active torsions:
REMARK  status: ('A' for Active; 'I' for Inactive)
REMARK    1  A    between atoms: C_7  and  N_8 
REMARK    2  A    between atoms: C_9  and  S_10 
REMARK    3  A    between atoms: S_10  and  C_11 
REMARK    4  A    between atoms: C_11  and  C_12 
REMARK       I    between atoms: C_12  and  N_13 
REMARK    5  A    between atoms: N_13  and  C_14 
REMARK    6  A    between atoms: C_14  and  C_15 
REMARK    7  A    between atoms: C_15  and  C_16 
REMARK    8  A    between atoms: C_18  and  O_19 
REMARK    9  A    between atoms: C_21  and  O_22 
REMARK   10  A    between atoms: C_30  and  N_31 
ROOT
HETATM    1  N   UNL     1     -41.172  54.654 -52.312  1.00  0.00    -0.276 N 
HETATM    2  C   UNL     1     -40.731  54.455 -53.650  1.00  0.00     0.177 A 
HETATM    3  N   UNL     1     -40.129  53.383 -54.108  1.00  0.00    -0.204 NA
HETATM    4  C   UNL     1     -39.970  52.408 -53.189  1.00  0.00     0.162 A 
HETATM    5  C   UNL     1     -40.330  52.391 -51.870  1.00  0.00     0.081 A 
HETATM    6  C   UNL     1     -40.942  53.578 -51.351  1.00  0.00     0.124 A 
HETATM    7  N   UNL     1     -39.419  51.182 -53.427  1.00  0.00    -0.260 N 
HETATM    8  H   UNL     1     -39.043  50.827 -54.298  1.00  0.00     0.191 HD
HETATM    9  N   UNL     1     -39.412  50.386 -52.335  1.00  0.00    -0.177 NA
HETATM   10  C   UNL     1     -39.988  51.126 -51.372  1.00  0.00     0.068 A 
HETATM   11  C   UNL     1     -40.178  50.543 -50.023  1.00  0.00     0.073 C 
ENDROOT
BRANCH   2  12
HETATM   12  S   UNL     1     -41.039  55.696 -54.884  1.00  0.00    -0.082 SA
BRANCH  12  13
HETATM   13  C   UNL     1     -42.378  54.894 -55.810  1.00  0.00     0.185 C 
BRANCH  13  14
HETATM   14  C   UNL     1     -43.051  55.845 -56.789  1.00  0.00     0.227 C 
HETATM   15  N   UNL     1     -42.861  55.480 -58.113  1.00  0.00    -0.360 N 
HETATM   16  H   UNL     1     -42.157  54.785 -58.324  1.00  0.00     0.162 HD
HETATM   17  O   UNL     1     -43.659  56.858 -56.462  1.00  0.00    -0.273 OA
BRANCH  15  18
HETATM   18  C   UNL     1     -43.339  56.321 -59.200  1.00  0.00     0.127 C 
BRANCH  18  19
HETATM   19  C   UNL     1     -42.177  56.890 -60.014  1.00  0.00     0.058 C 
BRANCH  19  20
HETATM   20  C   UNL     1     -41.982  58.370 -59.806  1.00  0.00    -0.054 A 
HETATM   21  C   UNL     1     -41.778  58.883 -58.516  1.00  0.00     0.046 A 
HETATM   22  C   UNL     1     -41.611  60.259 -58.309  1.00  0.00     0.102 A 
HETATM   23  C   UNL     1     -41.645  61.136 -59.411  1.00  0.00     0.101 A 
HETATM   24  C   UNL     1     -41.828  60.621 -60.698  1.00  0.00     0.040 A 
HETATM   25  C   UNL     1     -41.995  59.248 -60.893  1.00  0.00     0.010 A 
BRANCH  22  26
HETATM   26  O   UNL     1     -41.420  60.841 -57.080  1.00  0.00    -0.353 OA
HETATM   27  C   UNL     1     -42.291  60.462 -56.026  1.00  0.00     0.210 C 
ENDBRANCH  22  26
BRANCH  23  28
HETATM   28  O   UNL     1     -41.477  62.470 -59.127  1.00  0.00    -0.353 OA
HETATM   29  C   UNL     1     -41.017  63.311 -60.174  1.00  0.00     0.210 C 
ENDBRANCH  23  28
ENDBRANCH  19  20
ENDBRANCH  18  19
ENDBRANCH  15  18
ENDBRANCH  13  14
ENDBRANCH  12  13
ENDBRANCH   2  12
BRANCH   1  30
HETATM   30  C   UNL     1     -41.820  55.856 -51.897  1.00  0.00     0.043 A 
HETATM   31  C   UNL     1     -43.200  56.034 -52.061  1.00  0.00     0.032 A 
HETATM   32  C   UNL     1     -43.800  57.250 -51.730  1.00  0.00     0.026 A 
HETATM   33  C   UNL     1     -43.029  58.310 -51.248  1.00  0.00     0.040 A 
HETATM   34  C   UNL     1     -41.644  58.163 -51.080  1.00  0.00    -0.038 A 
HETATM   35 CL   UNL     1     -43.830  59.796 -50.887  1.00  0.00    -0.084 Cl
HETATM   36  C   UNL     1     -40.784  59.287 -50.572  1.00  0.00     0.050 C 
HETATM   37  C   UNL     1     -41.054  56.929 -51.403  1.00  0.00     0.038 A 
ENDBRANCH   1  30
BRANCH   6  38
HETATM   38  N   UNL     1     -41.227  53.687 -50.067  1.00  0.00    -0.384 N 
HETATM   39  H   UNL     1     -42.136  53.984 -49.746  1.00  0.00     0.157 HD
HETATM   40  H   UNL     1     -40.538  53.432 -49.370  1.00  0.00     0.157 HD
ENDBRANCH   6  38
TORSDOF 10
ENDMDL
MODEL 5
REMARK VINA RESULT:      -8.0      2.549      4.416
REMARK  10 active torsions:
REMARK  status: ('A' for Active; 'I' for Inactive)
REMARK    1  A    between atoms: C_7  and  N_8 
REMARK    2  A    between atoms: C_9  and  S_10 
REMARK    3  A    between atoms: S_10  and  C_11 
REMARK    4  A    between atoms: C_11  and  C_12 
REMARK       I    between atoms: C_12  and  N_13 
REMARK    5  A    between atoms: N_13  and  C_14 
REMARK    6  A    between atoms: C_14  and  C_15 
REMARK    7  A    between atoms: C_15  and  C_16 
REMARK    8  A    between atoms: C_18  and  O_19 
REMARK    9  A    between atoms: C_21  and  O_22 
REMARK   10  A    between atoms: C_30  and  N_31 
ROOT
HETATM    1  N   UNL     1     -42.465  60.860 -57.802  1.00  0.00    -0.276 N 
HETATM    2  C   UNL     1     -43.265  60.056 -58.662  1.00  0.00     0.177 A 
HETATM    3  N   UNL     1     -43.236  60.071 -59.973  1.00  0.00    -0.204 NA
HETATM    4  C   UNL     1     -42.325  60.923 -60.492  1.00  0.00     0.162 A 
HETATM    5  C   UNL     1     -41.460  61.763 -59.851  1.00  0.00     0.081 A 
HETATM    6  C   UNL     1     -41.522  61.789 -58.419  1.00  0.00     0.124 A 
HETATM    7  N   UNL     1     -42.068  61.087 -61.822  1.00  0.00    -0.260 N 
HETATM    8  H   UNL     1     -42.512  60.621 -62.604  1.00  0.00     0.191 HD
HETATM    9  N   UNL     1     -41.084  61.981 -62.062  1.00  0.00    -0.177 NA
HETATM   10  C   UNL     1     -40.695  62.393 -60.843  1.00  0.00     0.068 A 
HETATM   11  C   UNL     1     -39.588  63.371 -60.726  1.00  0.00     0.073 C 
ENDROOT
BRANCH   2  12
HETATM   12  S   UNL     1     -44.384  58.858 -57.976  1.00  0.00    -0.082 SA
BRANCH  12  13
HETATM   13  C   UNL     1     -43.377  57.357 -58.139  1.00  0.00     0.185 C 
BRANCH  13  14
HETATM   14  C   UNL     1     -43.234  56.614 -56.819  1.00  0.00     0.227 C 
HETATM   15  N   UNL     1     -42.406  55.505 -56.911  1.00  0.00    -0.360 N 
HETATM   16  H   UNL     1     -42.150  55.170 -57.830  1.00  0.00     0.162 HD
HETATM   17  O   UNL     1     -43.821  56.918 -55.786  1.00  0.00    -0.273 OA
BRANCH  15  18
HETATM   18  C   UNL     1     -42.226  54.606 -55.781  1.00  0.00     0.127 C 
BRANCH  18  19
HETATM   19  C   UNL     1     -40.988  54.978 -54.967  1.00  0.00     0.058 C 
BRANCH  19  20
HETATM   20  C   UNL     1     -40.630  53.942 -53.932  1.00  0.00    -0.054 A 
HETATM   21  C   UNL     1     -40.786  54.222 -52.567  1.00  0.00     0.046 A 
HETATM   22  C   UNL     1     -40.443  53.271 -51.596  1.00  0.00     0.102 A 
HETATM   23  C   UNL     1     -39.940  52.018 -51.997  1.00  0.00     0.101 A 
HETATM   24  C   UNL     1     -39.805  51.733 -53.359  1.00  0.00     0.040 A 
HETATM   25  C   UNL     1     -40.149  52.688 -54.319  1.00  0.00     0.010 A 
BRANCH  22  26
HETATM   26  O   UNL     1     -40.553  53.471 -50.242  1.00  0.00    -0.353 OA
HETATM   27  C   UNL     1     -39.662  54.394 -49.634  1.00  0.00     0.210 C 
ENDBRANCH  22  26
BRANCH  23  28
HETATM   28  O   UNL     1     -39.624  51.142 -50.987  1.00  0.00    -0.353 OA
HETATM   29  C   UNL     1     -39.561  49.761 -51.312  1.00  0.00     0.210 C 
ENDBRANCH  23  28
ENDBRANCH  19  20
ENDBRANCH  18  19
ENDBRANCH  15  18
ENDBRANCH  13  14
ENDBRANCH  12  13
ENDBRANCH   2  12
BRANCH   1  30
HETATM   30  C   UNL     1     -42.562  60.780 -56.380  1.00  0.00     0.043 A 
HETATM   31  C   UNL     1     -43.328  61.698 -55.651  1.00  0.00     0.032 A 
HETATM   32  C   UNL     1     -43.338  61.657 -54.254  1.00  0.00     0.026 A 
HETATM   33  C   UNL     1     -42.572  60.712 -53.570  1.00  0.00     0.040 A 
HETATM   34  C   UNL     1     -41.790  59.785 -54.274  1.00  0.00    -0.038 A 
HETATM   35 CL   UNL     1     -42.607  60.737 -51.844  1.00  0.00    -0.084 Cl
HETATM   36  C   UNL     1     -40.946  58.761 -53.567  1.00  0.00     0.050 C 
HETATM   37  C   UNL     1     -41.799  59.827 -55.679  1.00  0.00     0.038 A 
ENDBRANCH   1  30
BRANCH   6  38
HETATM   38  N   UNL     1     -40.796  62.645 -57.725  1.00  0.00    -0.384 N 
HETATM   39  H   UNL     1     -40.649  62.537 -56.733  1.00  0.00     0.157 HD
HETATM   40  H   UNL     1     -40.334  63.415 -58.192  1.00  0.00     0.157 HD
ENDBRANCH   6  38
TORSDOF 10
ENDMDL
MODEL 6
REMARK VINA RESULT:      -8.0      2.778      4.571
REMARK  10 active torsions:
REMARK  status: ('A' for Active; 'I' for Inactive)
REMARK    1  A    between atoms: C_7  and  N_8 
REMARK    2  A    between atoms: C_9  and  S_10 
REMARK    3  A    between atoms: S_10  and  C_11 
REMARK    4  A    between atoms: C_11  and  C_12 
REMARK       I    between atoms: C_12  and  N_13 
REMARK    5  A    between atoms: N_13  and  C_14 
REMARK    6  A    between atoms: C_14  and  C_15 
REMARK    7  A    between atoms: C_15  and  C_16 
REMARK    8  A    between atoms: C_18  and  O_19 
REMARK    9  A    between atoms: C_21  and  O_22 
REMARK   10  A    between atoms: C_30  and  N_31 
ROOT
HETATM    1  N   UNL     1     -44.779  58.944 -58.183  1.00  0.00    -0.276 N 
HETATM    2  C   UNL     1     -43.480  59.337 -58.612  1.00  0.00     0.177 A 
HETATM    3  N   UNL     1     -42.538  59.837 -57.848  1.00  0.00    -0.204 NA
HETATM    4  C   UNL     1     -42.882  59.937 -56.547  1.00  0.00     0.162 A 
HETATM    5  C   UNL     1     -44.058  59.607 -55.932  1.00  0.00     0.081 A 
HETATM    6  C   UNL     1     -45.108  59.108 -56.769  1.00  0.00     0.124 A 
HETATM    7  N   UNL     1     -42.066  60.380 -55.547  1.00  0.00    -0.260 N 
HETATM    8  H   UNL     1     -41.109  60.705 -55.623  1.00  0.00     0.191 HD
HETATM    9  N   UNL     1     -42.654  60.347 -54.331  1.00  0.00    -0.177 NA
HETATM   10  C   UNL     1     -43.884  59.856 -54.563  1.00  0.00     0.068 A 
HETATM   11  C   UNL     1     -44.811  59.650 -53.426  1.00  0.00     0.073 C 
ENDROOT
BRANCH   2  12
HETATM   12  S   UNL     1     -42.992  59.103 -60.304  1.00  0.00    -0.082 SA
BRANCH  12  13
HETATM   13  C   UNL     1     -41.822  57.729 -60.108  1.00  0.00     0.185 C 
BRANCH  13  14
HETATM   14  C   UNL     1     -42.474  56.502 -59.486  1.00  0.00     0.227 C 
HETATM   15  N   UNL     1     -42.356  56.470 -58.105  1.00  0.00    -0.360 N 
HETATM   16  H   UNL     1     -41.705  57.105 -57.662  1.00  0.00     0.162 HD
HETATM   17  O   UNL     1     -43.006  55.602 -60.127  1.00  0.00    -0.273 OA
BRANCH  15  18
HETATM   18  C   UNL     1     -42.824  55.326 -57.337  1.00  0.00     0.127 C 
BRANCH  18  19
HETATM   19  C   UNL     1     -43.095  55.708 -55.882  1.00  0.00     0.058 C 
BRANCH  19  20
HETATM   20  C   UNL     1     -42.257  54.925 -54.904  1.00  0.00    -0.054 A 
HETATM   21  C   UNL     1     -42.741  54.654 -53.615  1.00  0.00     0.046 A 
HETATM   22  C   UNL     1     -41.965  53.941 -52.692  1.00  0.00     0.102 A 
HETATM   23  C   UNL     1     -40.685  53.486 -53.065  1.00  0.00     0.101 A 
HETATM   24  C   UNL     1     -40.212  53.738 -54.357  1.00  0.00     0.040 A 
HETATM   25  C   UNL     1     -40.993  54.452 -55.269  1.00  0.00     0.010 A 
BRANCH  22  26
HETATM   26  O   UNL     1     -42.359  53.646 -51.410  1.00  0.00    -0.353 OA
HETATM   27  C   UNL     1     -42.384  54.706 -50.466  1.00  0.00     0.210 C 
ENDBRANCH  22  26
BRANCH  23  28
HETATM   28  O   UNL     1     -39.984  52.797 -52.105  1.00  0.00    -0.353 OA
HETATM   29  C   UNL     1     -39.689  51.431 -52.361  1.00  0.00     0.210 C 
ENDBRANCH  23  28
ENDBRANCH  19  20
ENDBRANCH  18  19
ENDBRANCH  15  18
ENDBRANCH  13  14
ENDBRANCH  12  13
ENDBRANCH   2  12
BRANCH   1  30
HETATM   30  C   UNL     1     -45.747  58.407 -59.084  1.00  0.00     0.043 A 
HETATM   31  C   UNL     1     -45.950  57.026 -59.195  1.00  0.00     0.032 A 
HETATM   32  C   UNL     1     -46.838  56.517 -60.145  1.00  0.00     0.026 A 
HETATM   33  C   UNL     1     -47.520  57.378 -61.007  1.00  0.00     0.040 A 
HETATM   34  C   UNL     1     -47.330  58.765 -60.924  1.00  0.00    -0.038 A 
HETATM   35 CL   UNL     1     -48.579  56.680 -62.178  1.00  0.00    -0.084 Cl
HETATM   36  C   UNL     1     -48.042  59.719 -61.843  1.00  0.00     0.050 C 
HETATM   37  C   UNL     1     -46.445  59.266 -59.953  1.00  0.00     0.038 A 
ENDBRANCH   1  30
BRANCH   6  38
HETATM   38  N   UNL     1     -46.308  58.863 -56.276  1.00  0.00    -0.384 N 
HETATM   39  H   UNL     1     -46.548  57.966 -55.880  1.00  0.00     0.157 HD
HETATM   40  H   UNL     1     -47.007  59.595 -56.252  1.00  0.00     0.157 HD
ENDBRANCH   6  38
TORSDOF 10
ENDMDL
MODEL 7
REMARK VINA RESULT:      -8.0      2.634      4.943
REMARK  10 active torsions:
REMARK  status: ('A' for Active; 'I' for Inactive)
REMARK    1  A    between atoms: C_7  and  N_8 
REMARK    2  A    between atoms: C_9  and  S_10 
REMARK    3  A    between atoms: S_10  and  C_11 
REMARK    4  A    between atoms: C_11  and  C_12 
REMARK       I    between atoms: C_12  and  N_13 
REMARK    5  A    between atoms: N_13  and  C_14 
REMARK    6  A    between atoms: C_14  and  C_15 
REMARK    7  A    between atoms: C_15  and  C_16 
REMARK    8  A    between atoms: C_18  and  O_19 
REMARK    9  A    between atoms: C_21  and  O_22 
REMARK   10  A    between atoms: C_30  and  N_31 
ROOT
HETATM    1  N   UNL     1     -43.412  58.949 -58.907  1.00  0.00    -0.276 N 
HETATM    2  C   UNL     1     -42.945  58.444 -57.661  1.00  0.00     0.177 A 
HETATM    3  N   UNL     1     -43.018  57.196 -57.263  1.00  0.00    -0.204 NA
HETATM    4  C   UNL     1     -43.568  56.362 -58.171  1.00  0.00     0.162 A 
HETATM    5  C   UNL     1     -44.061  56.637 -59.415  1.00  0.00     0.081 A 
HETATM    6  C   UNL     1     -44.032  58.007 -59.836  1.00  0.00     0.124 A 
HETATM    7  N   UNL     1     -43.712  55.014 -58.017  1.00  0.00    -0.260 N 
HETATM    8  H   UNL     1     -43.449  54.447 -57.219  1.00  0.00     0.191 HD
HETATM    9  N   UNL     1     -44.265  54.416 -59.095  1.00  0.00    -0.177 NA
HETATM   10  C   UNL     1     -44.471  55.416 -59.969  1.00  0.00     0.068 A 
HETATM   11  C   UNL     1     -45.047  55.111 -61.300  1.00  0.00     0.073 C 
ENDROOT
BRANCH   2  12
HETATM   12  S   UNL     1     -42.123  59.523 -56.514  1.00  0.00    -0.082 SA
BRANCH  12  13
HETATM   13  C   UNL     1     -43.143  59.250 -55.038  1.00  0.00     0.185 C 
BRANCH  13  14
HETATM   14  C   UNL     1     -42.467  58.326 -54.035  1.00  0.00     0.227 C 
HETATM   15  N   UNL     1     -41.581  57.440 -54.628  1.00  0.00    -0.360 N 
HETATM   16  H   UNL     1     -41.608  57.333 -55.634  1.00  0.00     0.162 HD
HETATM   17  O   UNL     1     -42.707  58.317 -52.832  1.00  0.00    -0.273 OA
BRANCH  15  18
HETATM   18  C   UNL     1     -40.915  56.408 -53.848  1.00  0.00     0.127 C 
BRANCH  18  19
HETATM   19  C   UNL     1     -41.081  55.032 -54.493  1.00  0.00     0.058 C 
BRANCH  19  20
HETATM   20  C   UNL     1     -40.665  53.903 -53.585  1.00  0.00    -0.054 A 
HETATM   21  C   UNL     1     -40.763  54.043 -52.192  1.00  0.00     0.046 A 
HETATM   22  C   UNL     1     -40.366  53.006 -51.337  1.00  0.00     0.102 A 
HETATM   23  C   UNL     1     -39.867  51.807 -51.884  1.00  0.00     0.101 A 
HETATM   24  C   UNL     1     -39.789  51.662 -53.273  1.00  0.00     0.040 A 
HETATM   25  C   UNL     1     -40.186  52.703 -54.116  1.00  0.00     0.010 A 
BRANCH  22  26
HETATM   26  O   UNL     1     -40.418  53.067 -49.967  1.00  0.00    -0.353 OA
HETATM   27  C   UNL     1     -39.747  54.142 -49.327  1.00  0.00     0.210 C 
ENDBRANCH  22  26
BRANCH  23  28
HETATM   28  O   UNL     1     -39.495  50.840 -50.983  1.00  0.00    -0.353 OA
HETATM   29  C   UNL     1     -39.553  49.487 -51.411  1.00  0.00     0.210 C 
ENDBRANCH  23  28
ENDBRANCH  19  20
ENDBRANCH  18  19
ENDBRANCH  15  18
ENDBRANCH  13  14
ENDBRANCH  12  13
ENDBRANCH   2  12
BRANCH   1  30
HETATM   30  C   UNL     1     -43.294  60.327 -59.260  1.00  0.00     0.043 A 
HETATM   31  C   UNL     1     -44.321  61.239 -58.989  1.00  0.00     0.032 A 
HETATM   32  C   UNL     1     -44.223  62.563 -59.422  1.00  0.00     0.026 A 
HETATM   33  C   UNL     1     -43.107  62.989 -60.146  1.00  0.00     0.040 A 
HETATM   34  C   UNL     1     -42.067  62.095 -60.439  1.00  0.00    -0.038 A 
HETATM   35 CL   UNL     1     -43.064  64.630 -60.677  1.00  0.00    -0.084 Cl
HETATM   36  C   UNL     1     -40.856  62.518 -61.225  1.00  0.00     0.050 C 
HETATM   37  C   UNL     1     -42.171  60.769 -59.985  1.00  0.00     0.038 A 
ENDBRANCH   1  30
BRANCH   6  38
HETATM   38  N   UNL     1     -44.580  58.377 -60.978  1.00  0.00    -0.384 N 
HETATM   39  H   UNL     1     -45.437  58.909 -61.010  1.00  0.00     0.157 HD
HETATM   40  H   UNL     1     -44.121  58.162 -61.855  1.00  0.00     0.157 HD
ENDBRANCH   6  38
TORSDOF 10
ENDMDL
MODEL 8
REMARK VINA RESULT:      -7.9      1.743      2.290
REMARK  10 active torsions:
REMARK  status: ('A' for Active; 'I' for Inactive)
REMARK    1  A    between atoms: C_7  and  N_8 
REMARK    2  A    between atoms: C_9  and  S_10 
REMARK    3  A    between atoms: S_10  and  C_11 
REMARK    4  A    between atoms: C_11  and  C_12 
REMARK       I    between atoms: C_12  and  N_13 
REMARK    5  A    between atoms: N_13  and  C_14 
REMARK    6  A    between atoms: C_14  and  C_15 
REMARK    7  A    between atoms: C_15  and  C_16 
REMARK    8  A    between atoms: C_18  and  O_19 
REMARK    9  A    between atoms: C_21  and  O_22 
REMARK   10  A    between atoms: C_30  and  N_31 
ROOT
HETATM    1  N   UNL     1     -42.589  60.306 -59.492  1.00  0.00    -0.276 N 
HETATM    2  C   UNL     1     -42.401  60.787 -58.166  1.00  0.00     0.177 A 
HETATM    3  N   UNL     1     -41.554  61.719 -57.800  1.00  0.00    -0.204 NA
HETATM    4  C   UNL     1     -40.848  62.250 -58.821  1.00  0.00     0.162 A 
HETATM    5  C   UNL     1     -40.885  61.945 -60.152  1.00  0.00     0.081 A 
HETATM    6  C   UNL     1     -41.772  60.892 -60.552  1.00  0.00     0.124 A 
HETATM    7  N   UNL     1     -39.941  63.264 -58.709  1.00  0.00    -0.260 N 
HETATM    8  H   UNL     1     -39.655  63.753 -57.869  1.00  0.00     0.191 HD
HETATM    9  N   UNL     1     -39.403  63.623 -59.895  1.00  0.00    -0.177 NA
HETATM   10  C   UNL     1     -39.995  62.818 -60.794  1.00  0.00     0.068 A 
HETATM   11  C   UNL     1     -39.659  62.962 -62.230  1.00  0.00     0.073 C 
ENDROOT
BRANCH   2  12
HETATM   12  S   UNL     1     -43.409  60.164 -56.842  1.00  0.00    -0.082 SA
BRANCH  12  13
HETATM   13  C   UNL     1     -42.326  58.850 -56.213  1.00  0.00     0.185 C 
BRANCH  13  14
HETATM   14  C   UNL     1     -42.981  57.478 -56.289  1.00  0.00     0.227 C 
HETATM   15  N   UNL     1     -42.070  56.438 -56.181  1.00  0.00    -0.360 N 
HETATM   16  H   UNL     1     -41.085  56.650 -56.273  1.00  0.00     0.162 HD
HETATM   17  O   UNL     1     -44.179  57.293 -56.476  1.00  0.00    -0.273 OA
BRANCH  15  18
HETATM   18  C   UNL     1     -42.489  55.053 -56.334  1.00  0.00     0.127 C 
BRANCH  18  19
HETATM   19  C   UNL     1     -43.198  54.546 -55.079  1.00  0.00     0.058 C 
BRANCH  19  20
HETATM   20  C   UNL     1     -42.256  54.323 -53.922  1.00  0.00    -0.054 A 
HETATM   21  C   UNL     1     -41.475  53.160 -53.860  1.00  0.00     0.046 A 
HETATM   22  C   UNL     1     -40.608  52.934 -52.782  1.00  0.00     0.102 A 
HETATM   23  C   UNL     1     -40.516  53.891 -51.752  1.00  0.00     0.101 A 
HETATM   24  C   UNL     1     -41.280  55.060 -51.827  1.00  0.00     0.040 A 
HETATM   25  C   UNL     1     -42.143  55.274 -52.904  1.00  0.00     0.010 A 
BRANCH  22  26
HETATM   26  O   UNL     1     -39.820  51.819 -52.640  1.00  0.00    -0.353 OA
HETATM   27  C   UNL     1     -39.621  51.000 -53.783  1.00  0.00     0.210 C 
ENDBRANCH  22  26
BRANCH  23  28
HETATM   28  O   UNL     1     -39.647  53.598 -50.730  1.00  0.00    -0.353 OA
HETATM   29  C   UNL     1     -40.154  53.643 -49.404  1.00  0.00     0.210 C 
ENDBRANCH  23  28
ENDBRANCH  19  20
ENDBRANCH  18  19
ENDBRANCH  15  18
ENDBRANCH  13  14
ENDBRANCH  12  13
ENDBRANCH   2  12
BRANCH   1  30
HETATM   30  C   UNL     1     -43.536  59.285 -59.803  1.00  0.00     0.043 A 
HETATM   31  C   UNL     1     -44.880  59.590 -60.053  1.00  0.00     0.032 A 
HETATM   32  C   UNL     1     -45.808  58.569 -60.268  1.00  0.00     0.026 A 
HETATM   33  C   UNL     1     -45.411  57.232 -60.219  1.00  0.00     0.040 A 
HETATM   34  C   UNL     1     -44.073  56.896 -59.963  1.00  0.00    -0.038 A 
HETATM   35 CL   UNL     1     -46.615  56.020 -60.463  1.00  0.00    -0.084 Cl
HETATM   36  C   UNL     1     -43.614  55.465 -59.894  1.00  0.00     0.050 C 
HETATM   37  C   UNL     1     -43.146  57.933 -59.763  1.00  0.00     0.038 A 
ENDBRANCH   1  30
BRANCH   6  38
HETATM   38  N   UNL     1     -41.796  60.464 -61.800  1.00  0.00    -0.384 N 
HETATM   39  H   UNL     1     -42.549  59.893 -62.153  1.00  0.00     0.157 HD
HETATM   40  H   UNL     1     -41.065  60.738 -62.445  1.00  0.00     0.157 HD
ENDBRANCH   6  38
TORSDOF 10
ENDMDL
MODEL 9
REMARK VINA RESULT:      -7.9      2.680      4.431
REMARK  10 active torsions:
REMARK  status: ('A' for Active; 'I' for Inactive)
REMARK    1  A    between atoms: C_7  and  N_8 
REMARK    2  A    between atoms: C_9  and  S_10 
REMARK    3  A    between atoms: S_10  and  C_11 
REMARK    4  A    between atoms: C_11  and  C_12 
REMARK       I    between atoms: C_12  and  N_13 
REMARK    5  A    between atoms: N_13  and  C_14 
REMARK    6  A    between atoms: C_14  and  C_15 
REMARK    7  A    between atoms: C_15  and  C_16 
REMARK    8  A    between atoms: C_18  and  O_19 
REMARK    9  A    between atoms: C_21  and  O_22 
REMARK   10  A    between atoms: C_30  and  N_31 
ROOT
HETATM    1  N   UNL     1     -42.718  60.479 -57.674  1.00  0.00    -0.276 N 
HETATM    2  C   UNL     1     -43.684  59.764 -58.434  1.00  0.00     0.177 A 
HETATM    3  N   UNL     1     -43.822  59.810 -59.738  1.00  0.00    -0.204 NA
HETATM    4  C   UNL     1     -42.919  60.601 -60.358  1.00  0.00     0.162 A 
HETATM    5  C   UNL     1     -41.913  61.353 -59.821  1.00  0.00     0.081 A 
HETATM    6  C   UNL     1     -41.789  61.347 -58.394  1.00  0.00     0.124 A 
HETATM    7  N   UNL     1     -42.822  60.778 -61.707  1.00  0.00    -0.260 N 
HETATM    8  H   UNL     1     -43.400  60.369 -62.432  1.00  0.00     0.191 HD
HETATM    9  N   UNL     1     -41.807  61.599 -62.059  1.00  0.00    -0.177 NA
HETATM   10  C   UNL     1     -41.233  61.946 -60.895  1.00  0.00     0.068 A 
HETATM   11  C   UNL     1     -40.045  62.831 -60.907  1.00  0.00     0.073 C 
ENDROOT
BRANCH   2  12
HETATM   12  S   UNL     1     -44.800  58.640 -57.628  1.00  0.00    -0.082 SA
BRANCH  12  13
HETATM   13  C   UNL     1     -44.685  57.220 -58.753  1.00  0.00     0.185 C 
BRANCH  13  14
HETATM   14  C   UNL     1     -43.657  56.199 -58.287  1.00  0.00     0.227 C 
HETATM   15  N   UNL     1     -43.489  56.191 -56.911  1.00  0.00    -0.360 N 
HETATM   16  H   UNL     1     -43.873  56.958 -56.374  1.00  0.00     0.162 HD
HETATM   17  O   UNL     1     -43.000  55.487 -59.038  1.00  0.00    -0.273 OA
BRANCH  15  18
HETATM   18  C   UNL     1     -42.476  55.357 -56.282  1.00  0.00     0.127 C 
BRANCH  18  19
HETATM   19  C   UNL     1     -43.112  54.276 -55.408  1.00  0.00     0.058 C 
BRANCH  19  20
HETATM   20  C   UNL     1     -42.314  53.982 -54.162  1.00  0.00    -0.054 A 
HETATM   21  C   UNL     1     -41.267  53.049 -54.196  1.00  0.00     0.046 A 
HETATM   22  C   UNL     1     -40.528  52.757 -53.042  1.00  0.00     0.102 A 
HETATM   23  C   UNL     1     -40.839  53.413 -51.834  1.00  0.00     0.101 A 
HETATM   24  C   UNL     1     -41.869  54.358 -51.807  1.00  0.00     0.040 A 
HETATM   25  C   UNL     1     -42.600  54.640 -52.963  1.00  0.00     0.010 A 
BRANCH  22  26
HETATM   26  O   UNL     1     -39.499  51.850 -52.988  1.00  0.00    -0.353 OA
HETATM   27  C   UNL     1     -39.556  50.733 -53.862  1.00  0.00     0.210 C 
ENDBRANCH  22  26
BRANCH  23  28
HETATM   28  O   UNL     1     -40.073  53.071 -50.746  1.00  0.00    -0.353 OA
HETATM   29  C   UNL     1     -39.744  54.101 -49.826  1.00  0.00     0.210 C 
ENDBRANCH  23  28
ENDBRANCH  19  20
ENDBRANCH  18  19
ENDBRANCH  15  18
ENDBRANCH  13  14
ENDBRANCH  12  13
ENDBRANCH   2  12
BRANCH   1  30
HETATM   30  C   UNL     1     -42.638  60.370 -56.253  1.00  0.00     0.043 A 
HETATM   31  C   UNL     1     -43.161  61.365 -55.416  1.00  0.00     0.032 A 
HETATM   32  C   UNL     1     -42.994  61.283 -54.032  1.00  0.00     0.026 A 
HETATM   33  C   UNL     1     -42.289  60.219 -53.467  1.00  0.00     0.040 A 
HETATM   34  C   UNL     1     -41.748  59.212 -54.281  1.00  0.00    -0.038 A 
HETATM   35 CL   UNL     1     -42.093  60.195 -51.753  1.00  0.00    -0.084 Cl
HETATM   36  C   UNL     1     -40.975  58.058 -53.705  1.00  0.00     0.050 C 
HETATM   37  C   UNL     1     -41.935  59.298 -55.671  1.00  0.00     0.038 A 
ENDBRANCH   1  30
BRANCH   6  38
HETATM   38  N   UNL     1     -40.912  62.124 -57.786  1.00  0.00    -0.384 N 
HETATM   39  H   UNL     1     -41.143  63.062 -57.495  1.00  0.00     0.157 HD
HETATM   40  H   UNL     1     -39.989  61.772 -57.564  1.00  0.00     0.157 HD
ENDBRANCH   6  38
TORSDOF 10
ENDMDL
MODEL 10
REMARK VINA RESULT:      -7.8      3.997      9.411
REMARK  10 active torsions:
REMARK  status: ('A' for Active; 'I' for Inactive)
REMARK    1  A    between atoms: C_7  and  N_8 
REMARK    2  A    between atoms: C_9  and  S_10 
REMARK    3  A    between atoms: S_10  and  C_11 
REMARK    4  A    between atoms: C_11  and  C_12 
REMARK       I    between atoms: C_12  and  N_13 
REMARK    5  A    between atoms: N_13  and  C_14 
REMARK    6  A    between atoms: C_14  and  C_15 
REMARK    7  A    between atoms: C_15  and  C_16 
REMARK    8  A    between atoms: C_18  and  O_19 
REMARK    9  A    between atoms: C_21  and  O_22 
REMARK   10  A    between atoms: C_30  and  N_31 
ROOT
HETATM    1  N   UNL     1     -41.527  55.106 -53.041  1.00  0.00    -0.276 N 
HETATM    2  C   UNL     1     -41.394  54.976 -54.452  1.00  0.00     0.177 A 
HETATM    3  N   UNL     1     -40.825  53.976 -55.080  1.00  0.00    -0.204 NA
HETATM    4  C   UNL     1     -40.370  53.001 -54.263  1.00  0.00     0.162 A 
HETATM    5  C   UNL     1     -40.410  52.925 -52.899  1.00  0.00     0.081 A 
HETATM    6  C   UNL     1     -40.985  54.038 -52.204  1.00  0.00     0.124 A 
HETATM    7  N   UNL     1     -39.785  51.839 -54.672  1.00  0.00    -0.260 N 
HETATM    8  H   UNL     1     -39.594  51.538 -55.621  1.00  0.00     0.191 HD
HETATM    9  N   UNL     1     -39.454  51.025 -53.645  1.00  0.00    -0.177 NA
HETATM   10  C   UNL     1     -39.851  51.688 -52.546  1.00  0.00     0.068 A 
HETATM   11  C   UNL     1     -39.669  51.063 -51.215  1.00  0.00     0.073 C 
ENDROOT
BRANCH   2  12
HETATM   12  S   UNL     1     -42.089  56.206 -55.529  1.00  0.00    -0.082 SA
BRANCH  12  13
HETATM   13  C   UNL     1     -42.784  55.137 -56.821  1.00  0.00     0.185 C 
BRANCH  13  14
HETATM   14  C   UNL     1     -43.186  55.921 -58.062  1.00  0.00     0.227 C 
HETATM   15  N   UNL     1     -44.463  56.453 -57.974  1.00  0.00    -0.360 N 
HETATM   16  H   UNL     1     -45.073  56.122 -57.237  1.00  0.00     0.162 HD
HETATM   17  O   UNL     1     -42.488  56.038 -59.063  1.00  0.00    -0.273 OA
BRANCH  15  18
HETATM   18  C   UNL     1     -45.068  57.147 -59.101  1.00  0.00     0.127 C 
BRANCH  18  19
HETATM   19  C   UNL     1     -45.476  58.570 -58.721  1.00  0.00     0.058 C 
BRANCH  19  20
HETATM   20  C   UNL     1     -44.653  59.137 -57.592  1.00  0.00    -0.054 A 
HETATM   21  C   UNL     1     -43.403  59.719 -57.851  1.00  0.00     0.046 A 
HETATM   22  C   UNL     1     -42.623  60.235 -56.807  1.00  0.00     0.102 A 
HETATM   23  C   UNL     1     -43.102  60.171 -55.484  1.00  0.00     0.101 A 
HETATM   24  C   UNL     1     -44.357  59.609 -55.231  1.00  0.00     0.040 A 
HETATM   25  C   UNL     1     -45.126  59.096 -56.278  1.00  0.00     0.010 A 
BRANCH  22  26
HETATM   26  O   UNL     1     -41.387  60.809 -56.974  1.00  0.00    -0.353 OA
HETATM   27  C   UNL     1     -41.177  61.603 -58.131  1.00  0.00     0.210 C 
ENDBRANCH  22  26
BRANCH  23  28
HETATM   28  O   UNL     1     -42.279  60.695 -54.517  1.00  0.00    -0.353 OA
HETATM   29  C   UNL     1     -42.823  61.685 -53.657  1.00  0.00     0.210 C 
ENDBRANCH  23  28
ENDBRANCH  19  20
ENDBRANCH  18  19
ENDBRANCH  15  18
ENDBRANCH  13  14
ENDBRANCH  12  13
ENDBRANCH   2  12
BRANCH   1  30
HETATM   30  C   UNL     1     -42.162  56.233 -52.438  1.00  0.00     0.043 A 
HETATM   31  C   UNL     1     -43.557  56.313 -52.336  1.00  0.00     0.032 A 
HETATM   32  C   UNL     1     -44.162  57.463 -51.824  1.00  0.00     0.026 A 
HETATM   33  C   UNL     1     -43.386  58.552 -51.423  1.00  0.00     0.040 A 
HETATM   34  C   UNL     1     -41.987  58.502 -51.521  1.00  0.00    -0.038 A 
HETATM   35 CL   UNL     1     -44.200  59.952 -50.828  1.00  0.00    -0.084 Cl
HETATM   36  C   UNL     1     -41.122  59.661 -51.107  1.00  0.00     0.050 C 
HETATM   37  C   UNL     1     -41.389  57.334 -52.024  1.00  0.00     0.038 A 
ENDBRANCH   1  30
BRANCH   6  38
HETATM   38  N   UNL     1     -40.971  54.094 -50.886  1.00  0.00    -0.384 N 
HETATM   39  H   UNL     1     -41.820  54.164 -50.346  1.00  0.00     0.157 HD
HETATM   40  H   UNL     1     -40.094  54.027 -50.384  1.00  0.00     0.157 HD
ENDBRANCH   6  38
TORSDOF 10
ENDMDL
