MODEL 1
REMARK VINA RESULT:      -8.2      0.000      0.000
REMARK  7 active torsions:
REMARK  status: ('A' for Active; 'I' for Inactive)
REMARK    1  A    between atoms: C_3  and  C_4 
REMARK    2  A    between atoms: N_5  and  C_7 
REMARK    3  A    between atoms: N_10  and  C_11 
REMARK    4  A    between atoms: C_14  and  C_15 
REMARK       I    between atoms: C_15  and  N_16 
REMARK    5  A    between atoms: N_16  and  C_17 
REMARK    6  A    between atoms: C_17  and  C_18 
REMARK    7  A    between atoms: C_18  and  N_19 
ROOT
HETATM    1  C   UNL     1     -41.228  53.831 -53.720  1.00  0.00     0.192 C 
HETATM    2  C   UNL     1     -42.573  53.510 -54.346  1.00  0.00     0.053 C 
HETATM    3  C   UNL     1     -43.429  54.726 -54.644  1.00  0.00     0.125 C 
HETATM    4  N   UNL     1     -42.687  55.729 -55.433  1.00  0.00    -0.381 N 
HETATM    5  C   UNL     1     -41.349  56.102 -54.948  1.00  0.00     0.125 C 
HETATM    6  C   UNL     1     -40.501  54.905 -54.532  1.00  0.00     0.053 C 
ENDROOT
BRANCH   4   7
HETATM    7  C   UNL     1     -43.505  56.794 -55.901  1.00  0.00     0.030 A 
HETATM    8  C   UNL     1     -44.319  57.571 -55.054  1.00  0.00     0.030 A 
HETATM    9  C   UNL     1     -45.189  58.556 -55.548  1.00  0.00     0.019 A 
HETATM   10  C   UNL     1     -45.252  58.806 -56.917  1.00  0.00     0.032 A 
HETATM   11  C   UNL     1     -44.414  58.103 -57.778  1.00  0.00     0.019 A 
HETATM   12  C   UNL     1     -43.538  57.135 -57.267  1.00  0.00     0.030 A 
BRANCH  10  13
HETATM   13  C   UNL     1     -46.255  59.733 -57.491  1.00  0.00     0.251 C 
HETATM   14  N   UNL     1     -47.580  59.443 -57.262  1.00  0.00    -0.355 N 
HETATM   15  H   UNL     1     -47.790  58.628 -56.693  1.00  0.00     0.162 HD
HETATM   16  O   UNL     1     -45.892  60.709 -58.141  1.00  0.00    -0.268 OA
BRANCH  14  17
HETATM   17  C   UNL     1     -48.699  60.042 -57.986  1.00  0.00     0.150 C 
BRANCH  17  18
HETATM   18  C   UNL     1     -49.512  61.135 -57.254  1.00  0.00     0.254 C 
BRANCH  18  19
HETATM   19  N   UNL     1     -50.728  60.599 -56.538  1.00  0.00    -0.066 N 
HETATM   20  H   UNL     1     -50.407  59.733 -56.051  1.00  0.00     0.280 HD
HETATM   21  C   UNL     1     -51.294  61.503 -55.457  1.00  0.00     0.261 C 
HETATM   22  C   UNL     1     -52.469  60.799 -54.764  1.00  0.00     0.195 C 
HETATM   23  O   UNL     1     -53.482  60.443 -55.711  1.00  0.00    -0.388 OA
HETATM   24  C   UNL     1     -52.980  59.533 -56.695  1.00  0.00     0.195 C 
HETATM   25  C   UNL     1     -51.829  60.162 -57.490  1.00  0.00     0.261 C 
ENDBRANCH  18  19
ENDBRANCH  17  18
ENDBRANCH  14  17
ENDBRANCH  10  13
ENDBRANCH   4   7
BRANCH   1  26
HETATM   26  N   UNL     1     -41.209  54.123 -52.210  1.00  0.00    -0.056 N 
HETATM   27  C   UNL     1     -39.970  53.533 -51.473  1.00  0.00     0.257 C 
HETATM   28  C   UNL     1     -39.865  54.244 -50.111  1.00  0.00     0.041 C 
HETATM   29  C   UNL     1     -41.138  54.121 -49.277  1.00  0.00     0.004 C 
HETATM   30  C   UNL     1     -42.353  54.599 -50.056  1.00  0.00     0.028 C 
HETATM   31  C   UNL     1     -42.479  53.920 -51.414  1.00  0.00     0.236 C 
HETATM   32  H   UNL     1     -41.037  55.134 -52.164  1.00  0.00     0.281 HD
BRANCH  27  33
HETATM   33  C   UNL     1     -39.961  52.036 -51.298  1.00  0.00     0.136 A 
HETATM   34  N   UNL     1     -39.614  51.137 -52.287  1.00  0.00    -0.346 N 
HETATM   35  C   UNL     1     -39.202  51.430 -53.641  1.00  0.00     0.157 C 
HETATM   36  C   UNL     1     -39.702  49.879 -51.759  1.00  0.00     0.111 A 
HETATM   37  C   UNL     1     -40.086  50.056 -50.454  1.00  0.00     0.136 A 
HETATM   38  N   UNL     1     -40.245  51.388 -50.180  1.00  0.00    -0.244 NA
ENDBRANCH  27  33
ENDBRANCH   1  26
TORSDOF 7
ENDMDL
MODEL 2
REMARK VINA RESULT:      -8.1      4.830      6.545
REMARK  7 active torsions:
REMARK  status: ('A' for Active; 'I' for Inactive)
REMARK    1  A    between atoms: C_3  and  C_4 
REMARK    2  A    between atoms: N_5  and  C_7 
REMARK    3  A    between atoms: N_10  and  C_11 
REMARK    4  A    between atoms: C_14  and  C_15 
REMARK       I    between atoms: C_15  and  N_16 
REMARK    5  A    between atoms: N_16  and  C_17 
REMARK    6  A    between atoms: C_17  and  C_18 
REMARK    7  A    between atoms: C_18  and  N_19 
ROOT
HETATM    1  C   UNL     1     -41.771  53.752 -53.235  1.00  0.00     0.192 C 
HETATM    2  C   UNL     1     -43.134  54.271 -53.654  1.00  0.00     0.053 C 
HETATM    3  C   UNL     1     -43.148  55.732 -54.062  1.00  0.00     0.125 C 
HETATM    4  N   UNL     1     -42.120  56.016 -55.084  1.00  0.00    -0.381 N 
HETATM    5  C   UNL     1     -40.758  55.532 -54.812  1.00  0.00     0.125 C 
HETATM    6  C   UNL     1     -40.718  54.100 -54.290  1.00  0.00     0.053 C 
ENDROOT
BRANCH   4   7
HETATM    7  C   UNL     1     -42.224  57.322 -55.637  1.00  0.00     0.030 A 
HETATM    8  C   UNL     1     -42.448  57.565 -57.006  1.00  0.00     0.030 A 
HETATM    9  C   UNL     1     -42.455  58.861 -57.546  1.00  0.00     0.019 A 
HETATM   10  C   UNL     1     -42.259  59.962 -56.715  1.00  0.00     0.032 A 
HETATM   11  C   UNL     1     -42.101  59.764 -55.346  1.00  0.00     0.019 A 
HETATM   12  C   UNL     1     -42.113  58.465 -54.821  1.00  0.00     0.030 A 
BRANCH  10  13
HETATM   13  C   UNL     1     -42.118  61.332 -57.262  1.00  0.00     0.251 C 
HETATM   14  N   UNL     1     -41.106  61.544 -58.169  1.00  0.00    -0.355 N 
HETATM   15  H   UNL     1     -40.534  60.745 -58.429  1.00  0.00     0.162 HD
HETATM   16  O   UNL     1     -42.884  62.221 -56.903  1.00  0.00    -0.268 OA
BRANCH  14  17
HETATM   17  C   UNL     1     -40.617  62.859 -58.577  1.00  0.00     0.150 C 
BRANCH  17  18
HETATM   18  C   UNL     1     -39.461  62.897 -59.604  1.00  0.00     0.254 C 
BRANCH  18  19
HETATM   19  N   UNL     1     -39.908  63.267 -60.997  1.00  0.00    -0.066 N 
HETATM   20  H   UNL     1     -40.428  64.166 -60.894  1.00  0.00     0.280 HD
HETATM   21  C   UNL     1     -38.788  63.540 -61.985  1.00  0.00     0.261 C 
HETATM   22  C   UNL     1     -39.386  63.981 -63.328  1.00  0.00     0.195 C 
HETATM   23  O   UNL     1     -40.283  62.989 -63.838  1.00  0.00    -0.388 OA
HETATM   24  C   UNL     1     -41.384  62.773 -62.948  1.00  0.00     0.195 C 
HETATM   25  C   UNL     1     -40.897  62.274 -61.583  1.00  0.00     0.261 C 
ENDBRANCH  18  19
ENDBRANCH  17  18
ENDBRANCH  14  17
ENDBRANCH  10  13
ENDBRANCH   4   7
BRANCH   1  26
HETATM   26  N   UNL     1     -41.303  54.079 -51.808  1.00  0.00    -0.056 N 
HETATM   27  C   UNL     1     -39.940  53.428 -51.429  1.00  0.00     0.257 C 
HETATM   28  C   UNL     1     -39.408  54.164 -50.186  1.00  0.00     0.041 C 
HETATM   29  C   UNL     1     -40.393  54.146 -49.019  1.00  0.00     0.004 C 
HETATM   30  C   UNL     1     -41.752  54.683 -49.439  1.00  0.00     0.028 C 
HETATM   31  C   UNL     1     -42.300  53.980 -50.675  1.00  0.00     0.236 C 
HETATM   32  H   UNL     1     -41.069  55.077 -51.856  1.00  0.00     0.281 HD
BRANCH  27  33
HETATM   33  C   UNL     1     -39.964  51.938 -51.202  1.00  0.00     0.136 A 
HETATM   34  N   UNL     1     -39.608  50.998 -52.148  1.00  0.00    -0.346 N 
HETATM   35  C   UNL     1     -39.154  51.234 -53.499  1.00  0.00     0.157 C 
HETATM   36  C   UNL     1     -39.736  49.762 -51.578  1.00  0.00     0.111 A 
HETATM   37  C   UNL     1     -40.151  49.993 -50.291  1.00  0.00     0.136 A 
HETATM   38  N   UNL     1     -40.291  51.337 -50.069  1.00  0.00    -0.244 NA
ENDBRANCH  27  33
ENDBRANCH   1  26
TORSDOF 7
ENDMDL
MODEL 3
REMARK VINA RESULT:      -7.5      3.727      4.308
REMARK  7 active torsions:
REMARK  status: ('A' for Active; 'I' for Inactive)
REMARK    1  A    between atoms: C_3  and  C_4 
REMARK    2  A    between atoms: N_5  and  C_7 
REMARK    3  A    between atoms: N_10  and  C_11 
REMARK    4  A    between atoms: C_14  and  C_15 
REMARK       I    between atoms: C_15  and  N_16 
REMARK    5  A    between atoms: N_16  and  C_17 
REMARK    6  A    between atoms: C_17  and  C_18 
REMARK    7  A    between atoms: C_18  and  N_19 
ROOT
HETATM    1  C   UNL     1     -41.972  53.753 -53.142  1.00  0.00     0.192 C 
HETATM    2  C   UNL     1     -43.305  54.373 -53.519  1.00  0.00     0.053 C 
HETATM    3  C   UNL     1     -43.209  55.798 -54.030  1.00  0.00     0.125 C 
HETATM    4  N   UNL     1     -42.225  55.914 -55.126  1.00  0.00    -0.381 N 
HETATM    5  C   UNL     1     -40.900  55.319 -54.898  1.00  0.00     0.125 C 
HETATM    6  C   UNL     1     -40.960  53.927 -54.277  1.00  0.00     0.053 C 
ENDROOT
BRANCH   4   7
HETATM    7  C   UNL     1     -42.243  57.184 -55.765  1.00  0.00     0.030 A 
HETATM    8  C   UNL     1     -42.367  57.345 -57.158  1.00  0.00     0.030 A 
HETATM    9  C   UNL     1     -42.290  58.604 -57.777  1.00  0.00     0.019 A 
HETATM   10  C   UNL     1     -42.105  59.749 -57.005  1.00  0.00     0.032 A 
HETATM   11  C   UNL     1     -42.045  59.634 -55.618  1.00  0.00     0.019 A 
HETATM   12  C   UNL     1     -42.142  58.373 -55.015  1.00  0.00     0.030 A 
BRANCH  10  13
HETATM   13  C   UNL     1     -41.877  61.074 -57.625  1.00  0.00     0.251 C 
HETATM   14  N   UNL     1     -42.986  61.842 -57.891  1.00  0.00    -0.355 N 
HETATM   15  H   UNL     1     -43.892  61.466 -57.623  1.00  0.00     0.162 HD
HETATM   16  O   UNL     1     -40.736  61.446 -57.881  1.00  0.00    -0.268 OA
BRANCH  14  17
HETATM   17  C   UNL     1     -42.997  63.015 -58.762  1.00  0.00     0.150 C 
BRANCH  17  18
HETATM   18  C   UNL     1     -43.003  62.763 -60.288  1.00  0.00     0.254 C 
BRANCH  18  19
HETATM   19  N   UNL     1     -44.342  62.309 -60.815  1.00  0.00    -0.066 N 
HETATM   20  H   UNL     1     -44.378  62.634 -61.806  1.00  0.00     0.280 HD
HETATM   21  C   UNL     1     -44.545  60.805 -60.860  1.00  0.00     0.261 C 
HETATM   22  C   UNL     1     -45.909  60.490 -61.489  1.00  0.00     0.195 C 
HETATM   23  O   UNL     1     -46.966  61.124 -60.761  1.00  0.00    -0.388 OA
HETATM   24  C   UNL     1     -46.827  62.549 -60.773  1.00  0.00     0.195 C 
HETATM   25  C   UNL     1     -45.511  62.978 -60.112  1.00  0.00     0.261 C 
ENDBRANCH  18  19
ENDBRANCH  17  18
ENDBRANCH  14  17
ENDBRANCH  10  13
ENDBRANCH   4   7
BRANCH   1  26
HETATM   26  N   UNL     1     -41.386  54.128 -51.771  1.00  0.00    -0.056 N 
HETATM   27  C   UNL     1     -39.994  53.489 -51.487  1.00  0.00     0.257 C 
HETATM   28  C   UNL     1     -39.362  54.265 -50.317  1.00  0.00     0.041 C 
HETATM   29  C   UNL     1     -40.245  54.286 -49.072  1.00  0.00     0.004 C 
HETATM   30  C   UNL     1     -41.636  54.809 -49.393  1.00  0.00     0.028 C 
HETATM   31  C   UNL     1     -42.284  54.066 -50.555  1.00  0.00     0.236 C 
HETATM   32  H   UNL     1     -41.160  55.124 -51.871  1.00  0.00     0.281 HD
BRANCH  27  33
HETATM   33  C   UNL     1     -39.995  52.007 -51.209  1.00  0.00     0.136 A 
HETATM   34  N   UNL     1     -39.620  51.042 -52.122  1.00  0.00    -0.346 N 
HETATM   35  C   UNL     1     -39.163  51.239 -53.479  1.00  0.00     0.157 C 
HETATM   36  C   UNL     1     -39.729  49.824 -51.511  1.00  0.00     0.111 A 
HETATM   37  C   UNL     1     -40.154  50.091 -50.234  1.00  0.00     0.136 A 
HETATM   38  N   UNL     1     -40.317  51.440 -50.059  1.00  0.00    -0.244 NA
ENDBRANCH  27  33
ENDBRANCH   1  26
TORSDOF 7
ENDMDL
MODEL 4
REMARK VINA RESULT:      -7.5     17.424     19.999
REMARK  7 active torsions:
REMARK  status: ('A' for Active; 'I' for Inactive)
REMARK    1  A    between atoms: C_3  and  C_4 
REMARK    2  A    between atoms: N_5  and  C_7 
REMARK    3  A    between atoms: N_10  and  C_11 
REMARK    4  A    between atoms: C_14  and  C_15 
REMARK       I    between atoms: C_15  and  N_16 
REMARK    5  A    between atoms: N_16  and  C_17 
REMARK    6  A    between atoms: C_17  and  C_18 
REMARK    7  A    between atoms: C_18  and  N_19 
ROOT
HETATM    1  C   UNL     1     -35.427  40.689 -50.600  1.00  0.00     0.192 C 
HETATM    2  C   UNL     1     -34.938  41.900 -51.373  1.00  0.00     0.053 C 
HETATM    3  C   UNL     1     -35.133  41.804 -52.873  1.00  0.00     0.125 C 
HETATM    4  N   UNL     1     -36.531  41.469 -53.216  1.00  0.00    -0.381 N 
HETATM    5  C   UNL     1     -37.135  40.331 -52.507  1.00  0.00     0.125 C 
HETATM    6  C   UNL     1     -36.860  40.337 -51.007  1.00  0.00     0.053 C 
ENDROOT
BRANCH   4   7
HETATM    7  C   UNL     1     -36.805  41.560 -54.608  1.00  0.00     0.030 A 
HETATM    8  C   UNL     1     -37.984  41.062 -55.196  1.00  0.00     0.030 A 
HETATM    9  C   UNL     1     -38.193  41.080 -56.585  1.00  0.00     0.019 A 
HETATM   10  C   UNL     1     -37.227  41.624 -57.428  1.00  0.00     0.032 A 
HETATM   11  C   UNL     1     -36.079  42.186 -56.876  1.00  0.00     0.019 A 
HETATM   12  C   UNL     1     -35.892  42.176 -55.487  1.00  0.00     0.030 A 
BRANCH  10  13
HETATM   13  C   UNL     1     -37.344  41.535 -58.902  1.00  0.00     0.251 C 
HETATM   14  N   UNL     1     -37.705  40.317 -59.430  1.00  0.00    -0.355 N 
HETATM   15  H   UNL     1     -37.895  39.561 -58.777  1.00  0.00     0.162 HD
HETATM   16  O   UNL     1     -37.120  42.520 -59.598  1.00  0.00    -0.268 OA
BRANCH  14  17
HETATM   17  C   UNL     1     -37.574  39.949 -60.838  1.00  0.00     0.150 C 
BRANCH  17  18
HETATM   18  C   UNL     1     -37.788  38.462 -61.203  1.00  0.00     0.254 C 
BRANCH  18  19
HETATM   19  N   UNL     1     -36.610  37.845 -61.917  1.00  0.00    -0.066 N 
HETATM   20  H   UNL     1     -36.727  36.814 -61.810  1.00  0.00     0.280 HD
HETATM   21  C   UNL     1     -36.549  38.108 -63.412  1.00  0.00     0.261 C 
HETATM   22  C   UNL     1     -35.354  37.358 -64.016  1.00  0.00     0.195 C 
HETATM   23  O   UNL     1     -34.131  37.748 -63.380  1.00  0.00    -0.388 OA
HETATM   24  C   UNL     1     -34.148  37.440 -61.982  1.00  0.00     0.195 C 
HETATM   25  C   UNL     1     -35.280  38.187 -61.267  1.00  0.00     0.261 C 
ENDBRANCH  18  19
ENDBRANCH  17  18
ENDBRANCH  14  17
ENDBRANCH  10  13
ENDBRANCH   4   7
BRANCH   1  26
HETATM   26  N   UNL     1     -34.507  39.458 -50.568  1.00  0.00    -0.056 N 
HETATM   27  C   UNL     1     -35.226  38.147 -50.130  1.00  0.00     0.257 C 
HETATM   28  C   UNL     1     -34.327  36.968 -50.546  1.00  0.00     0.041 C 
HETATM   29  C   UNL     1     -32.917  37.065 -49.970  1.00  0.00     0.004 C 
HETATM   30  C   UNL     1     -32.272  38.398 -50.315  1.00  0.00     0.028 C 
HETATM   31  C   UNL     1     -33.144  39.585 -49.924  1.00  0.00     0.236 C 
HETATM   32  H   UNL     1     -34.305  39.283 -51.559  1.00  0.00     0.281 HD
BRANCH  27  33
HETATM   33  C   UNL     1     -35.592  38.054 -48.670  1.00  0.00     0.136 A 
HETATM   34  N   UNL     1     -36.859  37.775 -48.200  1.00  0.00    -0.346 N 
HETATM   35  C   UNL     1     -38.053  37.523 -48.974  1.00  0.00     0.157 C 
HETATM   36  C   UNL     1     -36.802  37.753 -46.834  1.00  0.00     0.111 A 
HETATM   37  C   UNL     1     -35.491  38.003 -46.518  1.00  0.00     0.136 A 
HETATM   38  N   UNL     1     -34.753  38.189 -47.656  1.00  0.00    -0.244 NA
ENDBRANCH  27  33
ENDBRANCH   1  26
TORSDOF 7
ENDMDL
MODEL 5
REMARK VINA RESULT:      -7.5      4.051      5.290
REMARK  7 active torsions:
REMARK  status: ('A' for Active; 'I' for Inactive)
REMARK    1  A    between atoms: C_3  and  C_4 
REMARK    2  A    between atoms: N_5  and  C_7 
REMARK    3  A    between atoms: N_10  and  C_11 
REMARK    4  A    between atoms: C_14  and  C_15 
REMARK       I    between atoms: C_15  and  N_16 
REMARK    5  A    between atoms: N_16  and  C_17 
REMARK    6  A    between atoms: C_17  and  C_18 
REMARK    7  A    between atoms: C_18  and  N_19 
ROOT
HETATM    1  C   UNL     1     -41.008  56.942 -52.922  1.00  0.00     0.192 C 
HETATM    2  C   UNL     1     -40.607  58.327 -53.397  1.00  0.00     0.053 C 
HETATM    3  C   UNL     1     -41.672  59.388 -53.199  1.00  0.00     0.125 C 
HETATM    4  N   UNL     1     -42.160  59.411 -51.805  1.00  0.00    -0.381 N 
HETATM    5  C   UNL     1     -42.550  58.121 -51.215  1.00  0.00     0.125 C 
HETATM    6  C   UNL     1     -41.551  57.003 -51.492  1.00  0.00     0.053 C 
ENDROOT
BRANCH   4   7
HETATM    7  C   UNL     1     -43.014  60.514 -51.527  1.00  0.00     0.030 A 
HETATM    8  C   UNL     1     -43.334  60.931 -50.221  1.00  0.00     0.030 A 
HETATM    9  C   UNL     1     -44.251  61.964 -49.968  1.00  0.00     0.019 A 
HETATM   10  C   UNL     1     -44.863  62.627 -51.030  1.00  0.00     0.032 A 
HETATM   11  C   UNL     1     -44.521  62.285 -52.335  1.00  0.00     0.019 A 
HETATM   12  C   UNL     1     -43.590  61.264 -52.571  1.00  0.00     0.030 A 
BRANCH  10  13
HETATM   13  C   UNL     1     -45.939  63.621 -50.808  1.00  0.00     0.251 C 
HETATM   14  N   UNL     1     -47.234  63.194 -50.984  1.00  0.00    -0.355 N 
HETATM   15  H   UNL     1     -47.376  62.217 -51.229  1.00  0.00     0.162 HD
HETATM   16  O   UNL     1     -45.658  64.771 -50.484  1.00  0.00    -0.268 OA
BRANCH  14  17
HETATM   17  C   UNL     1     -48.391  64.076 -51.115  1.00  0.00     0.150 C 
BRANCH  17  18
HETATM   18  C   UNL     1     -48.972  64.276 -52.535  1.00  0.00     0.254 C 
BRANCH  18  19
HETATM   19  N   UNL     1     -50.367  63.724 -52.693  1.00  0.00    -0.066 N 
HETATM   20  H   UNL     1     -50.833  63.871 -51.771  1.00  0.00     0.280 HD
HETATM   21  C   UNL     1     -51.232  64.435 -53.719  1.00  0.00     0.261 C 
HETATM   22  C   UNL     1     -52.640  63.824 -53.715  1.00  0.00     0.195 C 
HETATM   23  O   UNL     1     -52.587  62.418 -53.982  1.00  0.00    -0.388 OA
HETATM   24  C   UNL     1     -51.834  61.724 -52.980  1.00  0.00     0.195 C 
HETATM   25  C   UNL     1     -50.385  62.224 -52.938  1.00  0.00     0.261 C 
ENDBRANCH  18  19
ENDBRANCH  17  18
ENDBRANCH  14  17
ENDBRANCH  10  13
ENDBRANCH   4   7
BRANCH   1  26
HETATM   26  N   UNL     1     -41.904  56.112 -53.856  1.00  0.00    -0.056 N 
HETATM   27  C   UNL     1     -42.374  54.762 -53.239  1.00  0.00     0.257 C 
HETATM   28  C   UNL     1     -43.564  54.261 -54.078  1.00  0.00     0.041 C 
HETATM   29  C   UNL     1     -43.228  54.125 -55.562  1.00  0.00     0.004 C 
HETATM   30  C   UNL     1     -42.666  55.423 -56.120  1.00  0.00     0.028 C 
HETATM   31  C   UNL     1     -41.492  55.949 -55.302  1.00  0.00     0.236 C 
HETATM   32  H   UNL     1     -42.774  56.654 -53.898  1.00  0.00     0.281 HD
BRANCH  27  33
HETATM   33  C   UNL     1     -41.318  53.693 -53.115  1.00  0.00     0.136 A 
HETATM   34  N   UNL     1     -40.836  53.207 -51.915  1.00  0.00    -0.346 N 
HETATM   35  C   UNL     1     -41.227  53.603 -50.582  1.00  0.00     0.157 C 
HETATM   36  C   UNL     1     -39.911  52.240 -52.198  1.00  0.00     0.111 A 
HETATM   37  C   UNL     1     -39.873  52.157 -53.566  1.00  0.00     0.136 A 
HETATM   38  N   UNL     1     -40.742  53.058 -54.122  1.00  0.00    -0.244 NA
ENDBRANCH  27  33
ENDBRANCH   1  26
TORSDOF 7
ENDMDL
MODEL 6
REMARK VINA RESULT:      -7.4     17.425     19.498
REMARK  7 active torsions:
REMARK  status: ('A' for Active; 'I' for Inactive)
REMARK    1  A    between atoms: C_3  and  C_4 
REMARK    2  A    between atoms: N_5  and  C_7 
REMARK    3  A    between atoms: N_10  and  C_11 
REMARK    4  A    between atoms: C_14  and  C_15 
REMARK       I    between atoms: C_15  and  N_16 
REMARK    5  A    between atoms: N_16  and  C_17 
REMARK    6  A    between atoms: C_17  and  C_18 
REMARK    7  A    between atoms: C_18  and  N_19 
ROOT
HETATM    1  C   UNL     1     -35.387  40.633 -50.604  1.00  0.00     0.192 C 
HETATM    2  C   UNL     1     -34.926  41.878 -51.341  1.00  0.00     0.053 C 
HETATM    3  C   UNL     1     -35.100  41.813 -52.846  1.00  0.00     0.125 C 
HETATM    4  N   UNL     1     -36.481  41.442 -53.215  1.00  0.00    -0.381 N 
HETATM    5  C   UNL     1     -37.058  40.268 -52.542  1.00  0.00     0.125 C 
HETATM    6  C   UNL     1     -36.802  40.246 -51.039  1.00  0.00     0.053 C 
ENDROOT
BRANCH   4   7
HETATM    7  C   UNL     1     -36.741  41.560 -54.608  1.00  0.00     0.030 A 
HETATM    8  C   UNL     1     -37.947  41.146 -55.205  1.00  0.00     0.030 A 
HETATM    9  C   UNL     1     -38.147  41.186 -56.595  1.00  0.00     0.019 A 
HETATM   10  C   UNL     1     -37.140  41.666 -57.430  1.00  0.00     0.032 A 
HETATM   11  C   UNL     1     -35.960  42.145 -56.869  1.00  0.00     0.019 A 
HETATM   12  C   UNL     1     -35.783  42.115 -55.479  1.00  0.00     0.030 A 
BRANCH  10  13
HETATM   13  C   UNL     1     -37.255  41.593 -58.905  1.00  0.00     0.251 C 
HETATM   14  N   UNL     1     -37.468  40.351 -59.456  1.00  0.00    -0.355 N 
HETATM   15  H   UNL     1     -37.561  39.565 -58.819  1.00  0.00     0.162 HD
HETATM   16  O   UNL     1     -37.157  42.612 -59.582  1.00  0.00    -0.268 OA
BRANCH  14  17
HETATM   17  C   UNL     1     -37.302  40.030 -60.872  1.00  0.00     0.150 C 
BRANCH  17  18
HETATM   18  C   UNL     1     -37.003  38.556 -61.233  1.00  0.00     0.254 C 
BRANCH  18  19
HETATM   19  N   UNL     1     -38.232  37.779 -61.638  1.00  0.00    -0.066 N 
HETATM   20  H   UNL     1     -38.022  36.783 -61.404  1.00  0.00     0.280 HD
HETATM   21  C   UNL     1     -39.500  38.131 -60.881  1.00  0.00     0.261 C 
HETATM   22  C   UNL     1     -40.641  37.211 -61.337  1.00  0.00     0.195 C 
HETATM   23  O   UNL     1     -40.847  37.315 -62.750  1.00  0.00    -0.388 OA
HETATM   24  C   UNL     1     -39.680  36.916 -63.479  1.00  0.00     0.195 C 
HETATM   25  C   UNL     1     -38.485  37.813 -63.136  1.00  0.00     0.261 C 
ENDBRANCH  18  19
ENDBRANCH  17  18
ENDBRANCH  14  17
ENDBRANCH  10  13
ENDBRANCH   4   7
BRANCH   1  26
HETATM   26  N   UNL     1     -34.428  39.431 -50.590  1.00  0.00    -0.056 N 
HETATM   27  C   UNL     1     -35.090  38.105 -50.112  1.00  0.00     0.257 C 
HETATM   28  C   UNL     1     -34.170  36.949 -50.545  1.00  0.00     0.041 C 
HETATM   29  C   UNL     1     -32.744  37.097 -50.020  1.00  0.00     0.004 C 
HETATM   30  C   UNL     1     -32.154  38.445 -50.402  1.00  0.00     0.028 C 
HETATM   31  C   UNL     1     -33.048  39.609 -49.995  1.00  0.00     0.236 C 
HETATM   32  H   UNL     1     -34.255  39.250 -51.585  1.00  0.00     0.281 HD
BRANCH  27  33
HETATM   33  C   UNL     1     -35.402  38.019 -48.639  1.00  0.00     0.136 A 
HETATM   34  N   UNL     1     -36.661  37.794 -48.120  1.00  0.00    -0.346 N 
HETATM   35  C   UNL     1     -37.894  37.598 -48.848  1.00  0.00     0.157 C 
HETATM   36  C   UNL     1     -36.552  37.760 -46.758  1.00  0.00     0.111 A 
HETATM   37  C   UNL     1     -35.220  37.952 -46.492  1.00  0.00     0.136 A 
HETATM   38  N   UNL     1     -34.520  38.112 -47.658  1.00  0.00    -0.244 NA
ENDBRANCH  27  33
ENDBRANCH   1  26
TORSDOF 7
ENDMDL
MODEL 7
REMARK VINA RESULT:      -7.4      4.433     11.056
REMARK  7 active torsions:
REMARK  status: ('A' for Active; 'I' for Inactive)
REMARK    1  A    between atoms: C_3  and  C_4 
REMARK    2  A    between atoms: N_5  and  C_7 
REMARK    3  A    between atoms: N_10  and  C_11 
REMARK    4  A    between atoms: C_14  and  C_15 
REMARK       I    between atoms: C_15  and  N_16 
REMARK    5  A    between atoms: N_16  and  C_17 
REMARK    6  A    between atoms: C_17  and  C_18 
REMARK    7  A    between atoms: C_18  and  N_19 
ROOT
HETATM    1  C   UNL     1     -44.882  59.403 -57.032  1.00  0.00     0.192 C 
HETATM    2  C   UNL     1     -45.456  58.182 -56.337  1.00  0.00     0.053 C 
HETATM    3  C   UNL     1     -44.520  57.539 -55.332  1.00  0.00     0.125 C 
HETATM    4  N   UNL     1     -44.008  58.528 -54.361  1.00  0.00    -0.381 N 
HETATM    5  C   UNL     1     -43.455  59.775 -54.909  1.00  0.00     0.125 C 
HETATM    6  C   UNL     1     -44.319  60.389 -56.006  1.00  0.00     0.053 C 
ENDROOT
BRANCH   4   7
HETATM    7  C   UNL     1     -43.286  57.938 -53.287  1.00  0.00     0.030 A 
HETATM    8  C   UNL     1     -41.890  58.048 -53.144  1.00  0.00     0.030 A 
HETATM    9  C   UNL     1     -41.186  57.381 -52.128  1.00  0.00     0.019 A 
HETATM   10  C   UNL     1     -41.873  56.595 -51.205  1.00  0.00     0.032 A 
HETATM   11  C   UNL     1     -43.261  56.517 -51.276  1.00  0.00     0.019 A 
HETATM   12  C   UNL     1     -43.950  57.203 -52.285  1.00  0.00     0.030 A 
BRANCH  10  13
HETATM   13  C   UNL     1     -41.158  55.765 -50.209  1.00  0.00     0.251 C 
HETATM   14  N   UNL     1     -40.324  54.783 -50.692  1.00  0.00    -0.355 N 
HETATM   15  H   UNL     1     -40.229  54.705 -51.701  1.00  0.00     0.162 HD
HETATM   16  O   UNL     1     -41.323  55.963 -49.009  1.00  0.00    -0.268 OA
BRANCH  14  17
HETATM   17  C   UNL     1     -39.785  53.683 -49.896  1.00  0.00     0.150 C 
BRANCH  17  18
HETATM   18  C   UNL     1     -40.410  52.284 -50.108  1.00  0.00     0.254 C 
BRANCH  18  19
HETATM   19  N   UNL     1     -39.800  51.524 -51.260  1.00  0.00    -0.066 N 
HETATM   20  H   UNL     1     -38.771  51.681 -51.185  1.00  0.00     0.280 HD
HETATM   21  C   UNL     1     -39.998  50.018 -51.220  1.00  0.00     0.261 C 
HETATM   22  C   UNL     1     -39.260  49.373 -52.401  1.00  0.00     0.195 C 
HETATM   23  O   UNL     1     -39.717  49.913 -53.646  1.00  0.00    -0.388 OA
HETATM   24  C   UNL     1     -39.470  51.321 -53.726  1.00  0.00     0.195 C 
HETATM   25  C   UNL     1     -40.212  52.074 -52.615  1.00  0.00     0.261 C 
ENDBRANCH  18  19
ENDBRANCH  17  18
ENDBRANCH  14  17
ENDBRANCH  10  13
ENDBRANCH   4   7
BRANCH   1  26
HETATM   26  N   UNL     1     -43.914  59.156 -58.201  1.00  0.00    -0.056 N 
HETATM   27  C   UNL     1     -44.612  59.098 -59.592  1.00  0.00     0.257 C 
HETATM   28  C   UNL     1     -43.519  59.273 -60.663  1.00  0.00     0.041 C 
HETATM   29  C   UNL     1     -42.399  58.242 -60.542  1.00  0.00     0.004 C 
HETATM   30  C   UNL     1     -41.805  58.238 -59.143  1.00  0.00     0.028 C 
HETATM   31  C   UNL     1     -42.865  58.076 -58.060  1.00  0.00     0.236 C 
HETATM   32  H   UNL     1     -43.377  60.028 -58.256  1.00  0.00     0.281 HD
BRANCH  27  33
HETATM   33  C   UNL     1     -45.435  57.864 -59.864  1.00  0.00     0.136 A 
HETATM   34  N   UNL     1     -46.734  57.880 -60.333  1.00  0.00    -0.346 N 
HETATM   35  C   UNL     1     -47.543  59.034 -60.651  1.00  0.00     0.157 C 
HETATM   36  C   UNL     1     -47.142  56.583 -60.476  1.00  0.00     0.111 A 
HETATM   37  C   UNL     1     -46.068  55.817 -60.103  1.00  0.00     0.136 A 
HETATM   38  N   UNL     1     -45.021  56.616 -59.726  1.00  0.00    -0.244 NA
ENDBRANCH  27  33
ENDBRANCH   1  26
TORSDOF 7
ENDMDL
MODEL 8
REMARK VINA RESULT:      -7.3      3.178      3.763
REMARK  7 active torsions:
REMARK  status: ('A' for Active; 'I' for Inactive)
REMARK    1  A    between atoms: C_3  and  C_4 
REMARK    2  A    between atoms: N_5  and  C_7 
REMARK    3  A    between atoms: N_10  and  C_11 
REMARK    4  A    between atoms: C_14  and  C_15 
REMARK       I    between atoms: C_15  and  N_16 
REMARK    5  A    between atoms: N_16  and  C_17 
REMARK    6  A    between atoms: C_17  and  C_18 
REMARK    7  A    between atoms: C_18  and  N_19 
ROOT
HETATM    1  C   UNL     1     -41.651  53.852 -53.267  1.00  0.00     0.192 C 
HETATM    2  C   UNL     1     -43.073  54.207 -53.663  1.00  0.00     0.053 C 
HETATM    3  C   UNL     1     -43.292  55.681 -53.945  1.00  0.00     0.125 C 
HETATM    4  N   UNL     1     -42.310  56.196 -54.921  1.00  0.00    -0.381 N 
HETATM    5  C   UNL     1     -40.895  55.888 -54.668  1.00  0.00     0.125 C 
HETATM    6  C   UNL     1     -40.654  54.435 -54.270  1.00  0.00     0.053 C 
ENDROOT
BRANCH   4   7
HETATM    7  C   UNL     1     -42.598  57.517 -55.363  1.00  0.00     0.030 A 
HETATM    8  C   UNL     1     -43.512  57.803 -56.395  1.00  0.00     0.030 A 
HETATM    9  C   UNL     1     -43.712  59.107 -56.878  1.00  0.00     0.019 A 
HETATM   10  C   UNL     1     -43.009  60.172 -56.319  1.00  0.00     0.032 A 
HETATM   11  C   UNL     1     -42.146  59.935 -55.252  1.00  0.00     0.019 A 
HETATM   12  C   UNL     1     -41.970  58.631 -54.770  1.00  0.00     0.030 A 
BRANCH  10  13
HETATM   13  C   UNL     1     -43.083  61.537 -56.891  1.00  0.00     0.251 C 
HETATM   14  N   UNL     1     -42.778  62.585 -56.054  1.00  0.00    -0.355 N 
HETATM   15  H   UNL     1     -42.495  62.359 -55.104  1.00  0.00     0.162 HD
HETATM   16  O   UNL     1     -43.408  61.697 -58.063  1.00  0.00    -0.268 OA
BRANCH  14  17
HETATM   17  C   UNL     1     -43.086  63.986 -56.330  1.00  0.00     0.150 C 
BRANCH  17  18
HETATM   18  C   UNL     1     -44.478  64.503 -55.897  1.00  0.00     0.254 C 
BRANCH  18  19
HETATM   19  N   UNL     1     -45.090  63.705 -54.772  1.00  0.00    -0.066 N 
HETATM   20  H   UNL     1     -44.451  62.893 -54.625  1.00  0.00     0.280 HD
HETATM   21  C   UNL     1     -45.169  64.424 -53.436  1.00  0.00     0.261 C 
HETATM   22  C   UNL     1     -45.733  63.472 -52.374  1.00  0.00     0.195 C 
HETATM   23  O   UNL     1     -47.020  62.977 -52.762  1.00  0.00    -0.388 OA
HETATM   24  C   UNL     1     -46.947  62.235 -53.984  1.00  0.00     0.195 C 
HETATM   25  C   UNL     1     -46.443  63.116 -55.134  1.00  0.00     0.261 C 
ENDBRANCH  18  19
ENDBRANCH  17  18
ENDBRANCH  14  17
ENDBRANCH  10  13
ENDBRANCH   4   7
BRANCH   1  26
HETATM   26  N   UNL     1     -41.241  54.117 -51.809  1.00  0.00    -0.056 N 
HETATM   27  C   UNL     1     -39.896  53.445 -51.402  1.00  0.00     0.257 C 
HETATM   28  C   UNL     1     -39.415  54.126 -50.108  1.00  0.00     0.041 C 
HETATM   29  C   UNL     1     -40.447  54.063 -48.985  1.00  0.00     0.004 C 
HETATM   30  C   UNL     1     -41.787  54.623 -49.437  1.00  0.00     0.028 C 
HETATM   31  C   UNL     1     -42.284  53.975 -50.723  1.00  0.00     0.236 C 
HETATM   32  H   UNL     1     -41.003  55.115 -51.805  1.00  0.00     0.281 HD
BRANCH  27  33
HETATM   33  C   UNL     1     -39.934  51.947 -51.239  1.00  0.00     0.136 A 
HETATM   34  N   UNL     1     -39.605  51.045 -52.231  1.00  0.00    -0.346 N 
HETATM   35  C   UNL     1     -39.171  51.334 -53.578  1.00  0.00     0.157 C 
HETATM   36  C   UNL     1     -39.736  49.787 -51.712  1.00  0.00     0.111 A 
HETATM   37  C   UNL     1     -40.127  49.966 -50.410  1.00  0.00     0.136 A 
HETATM   38  N   UNL     1     -40.248  51.301 -50.128  1.00  0.00    -0.244 NA
ENDBRANCH  27  33
ENDBRANCH   1  26
TORSDOF 7
ENDMDL
MODEL 9
REMARK VINA RESULT:      -7.2      2.243      3.133
REMARK  7 active torsions:
REMARK  status: ('A' for Active; 'I' for Inactive)
REMARK    1  A    between atoms: C_3  and  C_4 
REMARK    2  A    between atoms: N_5  and  C_7 
REMARK    3  A    between atoms: N_10  and  C_11 
REMARK    4  A    between atoms: C_14  and  C_15 
REMARK       I    between atoms: C_15  and  N_16 
REMARK    5  A    between atoms: N_16  and  C_17 
REMARK    6  A    between atoms: C_17  and  C_18 
REMARK    7  A    between atoms: C_18  and  N_19 
ROOT
HETATM    1  C   UNL     1     -41.218  53.762 -53.704  1.00  0.00     0.192 C 
HETATM    2  C   UNL     1     -42.563  53.454 -54.338  1.00  0.00     0.053 C 
HETATM    3  C   UNL     1     -43.393  54.680 -54.667  1.00  0.00     0.125 C 
HETATM    4  N   UNL     1     -42.624  55.653 -55.469  1.00  0.00    -0.381 N 
HETATM    5  C   UNL     1     -41.285  56.010 -54.978  1.00  0.00     0.125 C 
HETATM    6  C   UNL     1     -40.463  54.806 -54.531  1.00  0.00     0.053 C 
ENDROOT
BRANCH   4   7
HETATM    7  C   UNL     1     -43.418  56.724 -55.965  1.00  0.00     0.030 A 
HETATM    8  C   UNL     1     -43.286  57.243 -57.267  1.00  0.00     0.030 A 
HETATM    9  C   UNL     1     -44.015  58.360 -57.706  1.00  0.00     0.019 A 
HETATM   10  C   UNL     1     -44.922  58.980 -56.849  1.00  0.00     0.032 A 
HETATM   11  C   UNL     1     -45.127  58.453 -55.577  1.00  0.00     0.019 A 
HETATM   12  C   UNL     1     -44.404  57.327 -55.160  1.00  0.00     0.030 A 
BRANCH  10  13
HETATM   13  C   UNL     1     -45.605  60.241 -57.221  1.00  0.00     0.251 C 
HETATM   14  N   UNL     1     -46.831  60.483 -56.647  1.00  0.00    -0.355 N 
HETATM   15  H   UNL     1     -47.182  59.798 -55.984  1.00  0.00     0.162 HD
HETATM   16  O   UNL     1     -45.077  61.017 -58.012  1.00  0.00    -0.268 OA
BRANCH  14  17
HETATM   17  C   UNL     1     -47.781  61.492 -57.111  1.00  0.00     0.150 C 
BRANCH  17  18
HETATM   18  C   UNL     1     -48.680  61.119 -58.313  1.00  0.00     0.254 C 
BRANCH  18  19
HETATM   19  N   UNL     1     -47.918  60.975 -59.608  1.00  0.00    -0.066 N 
HETATM   20  H   UNL     1     -47.031  60.485 -59.358  1.00  0.00     0.280 HD
HETATM   21  C   UNL     1     -48.591  60.113 -60.662  1.00  0.00     0.261 C 
HETATM   22  C   UNL     1     -47.672  59.989 -61.885  1.00  0.00     0.195 C 
HETATM   23  O   UNL     1     -47.349  61.280 -62.414  1.00  0.00    -0.388 OA
HETATM   24  C   UNL     1     -46.650  62.079 -61.453  1.00  0.00     0.195 C 
HETATM   25  C   UNL     1     -47.507  62.311 -60.203  1.00  0.00     0.261 C 
ENDBRANCH  18  19
ENDBRANCH  17  18
ENDBRANCH  14  17
ENDBRANCH  10  13
ENDBRANCH   4   7
BRANCH   1  26
HETATM   26  N   UNL     1     -41.207  54.084 -52.201  1.00  0.00    -0.056 N 
HETATM   27  C   UNL     1     -39.972  53.509 -51.445  1.00  0.00     0.257 C 
HETATM   28  C   UNL     1     -39.875  54.247 -50.097  1.00  0.00     0.041 C 
HETATM   29  C   UNL     1     -41.153  54.139 -49.268  1.00  0.00     0.004 C 
HETATM   30  C   UNL     1     -42.364  54.601 -50.062  1.00  0.00     0.028 C 
HETATM   31  C   UNL     1     -42.481  53.895 -51.408  1.00  0.00     0.236 C 
HETATM   32  H   UNL     1     -41.037  55.095 -52.173  1.00  0.00     0.281 HD
BRANCH  27  33
HETATM   33  C   UNL     1     -39.962  52.016 -51.242  1.00  0.00     0.136 A 
HETATM   34  N   UNL     1     -39.584  51.100 -52.203  1.00  0.00    -0.346 N 
HETATM   35  C   UNL     1     -39.134  51.368 -53.549  1.00  0.00     0.157 C 
HETATM   36  C   UNL     1     -39.683  49.852 -51.653  1.00  0.00     0.111 A 
HETATM   37  C   UNL     1     -40.105  50.052 -50.363  1.00  0.00     0.136 A 
HETATM   38  N   UNL     1     -40.276  51.389 -50.120  1.00  0.00    -0.244 NA
ENDBRANCH  27  33
ENDBRANCH   1  26
TORSDOF 7
ENDMDL
MODEL 10
REMARK VINA RESULT:      -7.2      3.727      5.462
REMARK  7 active torsions:
REMARK  status: ('A' for Active; 'I' for Inactive)
REMARK    1  A    between atoms: C_3  and  C_4 
REMARK    2  A    between atoms: N_5  and  C_7 
REMARK    3  A    between atoms: N_10  and  C_11 
REMARK    4  A    between atoms: C_14  and  C_15 
REMARK       I    between atoms: C_15  and  N_16 
REMARK    5  A    between atoms: N_16  and  C_17 
REMARK    6  A    between atoms: C_17  and  C_18 
REMARK    7  A    between atoms: C_18  and  N_19 
ROOT
HETATM    1  C   UNL     1     -41.613  53.678 -53.584  1.00  0.00     0.192 C 
HETATM    2  C   UNL     1     -43.045  53.757 -54.082  1.00  0.00     0.053 C 
HETATM    3  C   UNL     1     -43.508  55.158 -54.431  1.00  0.00     0.125 C 
HETATM    4  N   UNL     1     -42.571  55.822 -55.361  1.00  0.00    -0.381 N 
HETATM    5  C   UNL     1     -41.144  55.785 -55.007  1.00  0.00     0.125 C 
HETATM    6  C   UNL     1     -40.671  54.411 -54.542  1.00  0.00     0.053 C 
ENDROOT
BRANCH   4   7
HETATM    7  C   UNL     1     -43.062  57.057 -55.867  1.00  0.00     0.030 A 
HETATM    8  C   UNL     1     -43.121  57.358 -57.240  1.00  0.00     0.030 A 
HETATM    9  C   UNL     1     -43.523  58.618 -57.714  1.00  0.00     0.019 A 
HETATM   10  C   UNL     1     -43.901  59.612 -56.814  1.00  0.00     0.032 A 
HETATM   11  C   UNL     1     -43.919  59.328 -55.452  1.00  0.00     0.019 A 
HETATM   12  C   UNL     1     -43.532  58.060 -54.996  1.00  0.00     0.030 A 
BRANCH  10  13
HETATM   13  C   UNL     1     -44.194  60.994 -57.262  1.00  0.00     0.251 C 
HETATM   14  N   UNL     1     -44.673  61.150 -58.541  1.00  0.00    -0.355 N 
HETATM   15  H   UNL     1     -44.822  60.309 -59.092  1.00  0.00     0.162 HD
HETATM   16  O   UNL     1     -44.005  61.940 -56.504  1.00  0.00    -0.268 OA
BRANCH  14  17
HETATM   17  C   UNL     1     -44.726  62.421 -59.261  1.00  0.00     0.150 C 
BRANCH  17  18
HETATM   18  C   UNL     1     -43.555  62.740 -60.220  1.00  0.00     0.254 C 
BRANCH  18  19
HETATM   19  N   UNL     1     -42.261  63.041 -59.505  1.00  0.00    -0.066 N 
HETATM   20  H   UNL     1     -42.434  62.810 -58.502  1.00  0.00     0.280 HD
HETATM   21  C   UNL     1     -41.074  62.194 -59.931  1.00  0.00     0.261 C 
HETATM   22  C   UNL     1     -39.855  62.550 -59.070  1.00  0.00     0.195 C 
HETATM   23  O   UNL     1     -39.547  63.945 -59.171  1.00  0.00    -0.388 OA
HETATM   24  C   UNL     1     -40.632  64.755 -58.704  1.00  0.00     0.195 C 
HETATM   25  C   UNL     1     -41.895  64.515 -59.539  1.00  0.00     0.261 C 
ENDBRANCH  18  19
ENDBRANCH  17  18
ENDBRANCH  14  17
ENDBRANCH  10  13
ENDBRANCH   4   7
BRANCH   1  26
HETATM   26  N   UNL     1     -41.360  54.049 -52.114  1.00  0.00    -0.056 N 
HETATM   27  C   UNL     1     -40.022  53.488 -51.546  1.00  0.00     0.257 C 
HETATM   28  C   UNL     1     -39.706  54.268 -50.257  1.00  0.00     0.041 C 
HETATM   29  C   UNL     1     -40.835  54.200 -49.231  1.00  0.00     0.004 C 
HETATM   30  C   UNL     1     -42.156  54.647 -49.836  1.00  0.00     0.028 C 
HETATM   31  C   UNL     1     -42.491  53.899 -51.121  1.00  0.00     0.236 C 
HETATM   32  H   UNL     1     -41.183  55.059 -52.148  1.00  0.00     0.281 HD
BRANCH  27  33
HETATM   33  C   UNL     1     -39.986  52.002 -51.296  1.00  0.00     0.136 A 
HETATM   34  N   UNL     1     -39.586  51.063 -52.227  1.00  0.00    -0.346 N 
HETATM   35  C   UNL     1     -39.136  51.298 -53.580  1.00  0.00     0.157 C 
HETATM   36  C   UNL     1     -39.665  49.832 -51.639  1.00  0.00     0.111 A 
HETATM   37  C   UNL     1     -40.096  50.064 -50.358  1.00  0.00     0.136 A 
HETATM   38  N   UNL     1     -40.293  51.405 -50.157  1.00  0.00    -0.244 NA
ENDBRANCH  27  33
ENDBRANCH   1  26
TORSDOF 7
ENDMDL
