MODEL 1
REMARK VINA RESULT:      -9.1      0.000      0.000
REMARK  4 active torsions:
REMARK  status: ('A' for Active; 'I' for Inactive)
REMARK    1  A    between atoms: C_7  and  C_8 
REMARK    2  A    between atoms: N_9  and  N_10 
REMARK       I    between atoms: N_10  and  C_11 
REMARK    3  A    between atoms: C_11  and  C_12 
REMARK    4  A    between atoms: C_16  and  C_17 
ROOT
HETATM    1  N   UNL     1     -41.751  54.976 -55.745  1.00  0.00    -0.242 N 
HETATM    2  C   UNL     1     -42.868  55.796 -55.751  1.00  0.00     0.289 C 
HETATM    3  O   UNL     1     -43.754  55.766 -54.900  1.00  0.00    -0.264 OA
HETATM    4  H   UNL     1     -41.056  55.048 -56.475  1.00  0.00     0.192 HD
ENDROOT
BRANCH   2   5
HETATM    5  C   UNL     1     -42.934  56.723 -56.854  1.00  0.00     0.121 A 
HETATM    6  N   UNL     1     -43.964  56.679 -57.750  1.00  0.00    -0.272 N 
HETATM    7  H   UNL     1     -44.747  56.032 -57.740  1.00  0.00     0.189 HD
HETATM    8  N   UNL     1     -43.891  57.601 -58.719  1.00  0.00    -0.174 NA
HETATM    9  C   UNL     1     -42.767  58.287 -58.459  1.00  0.00     0.089 A 
HETATM   10  C   UNL     1     -42.137  57.762 -57.292  1.00  0.00     0.071 A 
BRANCH   9  11
HETATM   11  C   UNL     1     -42.332  59.401 -59.313  1.00  0.00    -0.003 A 
HETATM   12  C   UNL     1     -41.776  60.565 -58.759  1.00  0.00     0.053 A 
HETATM   13  C   UNL     1     -41.387  61.577 -59.615  1.00  0.00     0.106 A 
HETATM   14  C   UNL     1     -41.529  61.475 -60.978  1.00  0.00     0.105 A 
HETATM   15  O   UNL     1     -40.835  62.762 -59.238  1.00  0.00    -0.323 OA
HETATM   16  O   UNL     1     -41.084  62.581 -61.632  1.00  0.00    -0.323 OA
HETATM   17  C   UNL     1     -42.067  60.354 -61.565  1.00  0.00     0.040 A 
HETATM   18  C   UNL     1     -40.645  63.394 -60.523  1.00  0.00     0.352 A 
HETATM   19  C   UNL     1     -42.470  59.312 -60.721  1.00  0.00     0.017 A 
ENDBRANCH   9  11
ENDBRANCH   2   5
BRANCH   1  20
HETATM   20  N   UNL     1     -41.583  54.058 -54.747  1.00  0.00    -0.183 NA
HETATM   21  C   UNL     1     -40.675  54.331 -53.867  1.00  0.00     0.153 C 
BRANCH  21  22
HETATM   22  C   UNL     1     -40.420  53.420 -52.767  1.00  0.00     0.018 A 
HETATM   23  C   UNL     1     -40.445  53.718 -51.410  1.00  0.00     0.018 A 
HETATM   24  C   UNL     1     -40.725  54.991 -50.690  1.00  0.00     0.069 C 
HETATM   25  N   UNL     1     -40.146  52.568 -50.723  1.00  0.00    -0.358 N 
HETATM   26  H   UNL     1     -40.094  52.491 -49.717  1.00  0.00     0.166 HD
HETATM   27  C   UNL     1     -39.927  51.526 -51.592  1.00  0.00     0.043 A 
HETATM   28  C   UNL     1     -40.091  52.028 -52.883  1.00  0.00     0.004 A 
HETATM   29  C   UNL     1     -39.598  50.192 -51.329  1.00  0.00     0.030 A 
HETATM   30  C   UNL     1     -39.916  51.141 -53.968  1.00  0.00     0.014 A 
HETATM   31  C   UNL     1     -39.587  49.803 -53.724  1.00  0.00     0.001 A 
HETATM   32  C   UNL     1     -39.432  49.337 -52.421  1.00  0.00     0.002 A 
ENDBRANCH  21  22
ENDBRANCH   1  20
TORSDOF 4
ENDMDL
MODEL 2
REMARK VINA RESULT:      -8.9      3.525      4.934
REMARK  4 active torsions:
REMARK  status: ('A' for Active; 'I' for Inactive)
REMARK    1  A    between atoms: C_7  and  C_8 
REMARK    2  A    between atoms: N_9  and  N_10 
REMARK       I    between atoms: N_10  and  C_11 
REMARK    3  A    between atoms: C_11  and  C_12 
REMARK    4  A    between atoms: C_16  and  C_17 
ROOT
HETATM    1  N   UNL     1     -41.877  55.049 -56.045  1.00  0.00    -0.242 N 
HETATM    2  C   UNL     1     -42.287  56.359 -56.236  1.00  0.00     0.289 C 
HETATM    3  O   UNL     1     -42.047  57.279 -55.460  1.00  0.00    -0.264 OA
HETATM    4  H   UNL     1     -42.106  54.334 -56.722  1.00  0.00     0.192 HD
ENDROOT
BRANCH   2   5
HETATM    5  C   UNL     1     -43.040  56.587 -57.446  1.00  0.00     0.121 A 
HETATM    6  N   UNL     1     -42.513  56.285 -58.670  1.00  0.00    -0.272 N 
HETATM    7  H   UNL     1     -41.594  55.891 -58.853  1.00  0.00     0.189 HD
HETATM    8  N   UNL     1     -43.327  56.550 -59.700  1.00  0.00    -0.174 NA
HETATM    9  C   UNL     1     -44.440  57.050 -59.141  1.00  0.00     0.089 A 
HETATM   10  C   UNL     1     -44.296  57.088 -57.722  1.00  0.00     0.071 A 
BRANCH   9  11
HETATM   11  C   UNL     1     -45.588  57.469 -59.957  1.00  0.00    -0.003 A 
HETATM   12  C   UNL     1     -46.456  56.523 -60.527  1.00  0.00     0.053 A 
HETATM   13  C   UNL     1     -47.517  56.980 -61.285  1.00  0.00     0.106 A 
HETATM   14  C   UNL     1     -47.742  58.320 -61.493  1.00  0.00     0.105 A 
HETATM   15  O   UNL     1     -48.443  56.197 -61.902  1.00  0.00    -0.323 OA
HETATM   16  O   UNL     1     -48.836  58.550 -62.265  1.00  0.00    -0.323 OA
HETATM   17  C   UNL     1     -46.919  59.281 -60.954  1.00  0.00     0.040 A 
HETATM   18  C   UNL     1     -49.277  57.200 -62.521  1.00  0.00     0.352 A 
HETATM   19  C   UNL     1     -45.835  58.846 -60.182  1.00  0.00     0.017 A 
ENDBRANCH   9  11
ENDBRANCH   2   5
BRANCH   1  20
HETATM   20  N   UNL     1     -41.156  54.714 -54.934  1.00  0.00    -0.183 NA
HETATM   21  C   UNL     1     -41.660  53.790 -54.183  1.00  0.00     0.153 C 
BRANCH  21  22
HETATM   22  C   UNL     1     -40.969  53.364 -52.979  1.00  0.00     0.018 A 
HETATM   23  C   UNL     1     -40.115  52.277 -52.845  1.00  0.00     0.018 A 
HETATM   24  C   UNL     1     -39.658  51.260 -53.832  1.00  0.00     0.069 C 
HETATM   25  N   UNL     1     -39.686  52.239 -51.542  1.00  0.00    -0.358 N 
HETATM   26  H   UNL     1     -39.053  51.551 -51.160  1.00  0.00     0.166 HD
HETATM   27  C   UNL     1     -40.235  53.271 -50.820  1.00  0.00     0.043 A 
HETATM   28  C   UNL     1     -41.046  53.996 -51.693  1.00  0.00     0.004 A 
HETATM   29  C   UNL     1     -40.074  53.610 -49.472  1.00  0.00     0.030 A 
HETATM   30  C   UNL     1     -41.732  55.121 -51.185  1.00  0.00     0.014 A 
HETATM   31  C   UNL     1     -41.582  55.475 -49.839  1.00  0.00     0.001 A 
HETATM   32  C   UNL     1     -40.763  54.728 -48.996  1.00  0.00     0.002 A 
ENDBRANCH  21  22
ENDBRANCH   1  20
TORSDOF 4
ENDMDL
MODEL 3
REMARK VINA RESULT:      -8.6      4.288      4.907
REMARK  4 active torsions:
REMARK  status: ('A' for Active; 'I' for Inactive)
REMARK    1  A    between atoms: C_7  and  C_8 
REMARK    2  A    between atoms: N_9  and  N_10 
REMARK       I    between atoms: N_10  and  C_11 
REMARK    3  A    between atoms: C_11  and  C_12 
REMARK    4  A    between atoms: C_16  and  C_17 
ROOT
HETATM    1  N   UNL     1     -43.660  55.735 -56.458  1.00  0.00    -0.242 N 
HETATM    2  C   UNL     1     -43.307  56.675 -57.414  1.00  0.00     0.289 C 
HETATM    3  O   UNL     1     -42.318  57.400 -57.339  1.00  0.00    -0.264 OA
HETATM    4  H   UNL     1     -44.487  55.167 -56.576  1.00  0.00     0.192 HD
ENDROOT
BRANCH   2   5
HETATM    5  C   UNL     1     -44.200  56.755 -58.543  1.00  0.00     0.121 A 
HETATM    6  N   UNL     1     -43.930  56.085 -59.703  1.00  0.00    -0.272 N 
HETATM    7  H   UNL     1     -43.124  55.495 -59.887  1.00  0.00     0.189 HD
HETATM    8  N   UNL     1     -44.850  56.253 -60.663  1.00  0.00    -0.174 NA
HETATM    9  C   UNL     1     -45.769  57.068 -60.122  1.00  0.00     0.089 A 
HETATM   10  C   UNL     1     -45.394  57.405 -58.787  1.00  0.00     0.071 A 
BRANCH   9  11
HETATM   11  C   UNL     1     -46.955  57.494 -60.876  1.00  0.00    -0.003 A 
HETATM   12  C   UNL     1     -47.352  58.841 -60.905  1.00  0.00     0.053 A 
HETATM   13  C   UNL     1     -48.477  59.178 -61.632  1.00  0.00     0.106 A 
HETATM   14  C   UNL     1     -49.210  58.240 -62.319  1.00  0.00     0.105 A 
HETATM   15  O   UNL     1     -48.990  60.432 -61.759  1.00  0.00    -0.323 OA
HETATM   16  O   UNL     1     -50.275  58.784 -62.965  1.00  0.00    -0.323 OA
HETATM   17  C   UNL     1     -48.859  56.911 -62.320  1.00  0.00     0.040 A 
HETATM   18  C   UNL     1     -50.130  60.174 -62.607  1.00  0.00     0.352 A 
HETATM   19  C   UNL     1     -47.723  56.540 -61.591  1.00  0.00     0.017 A 
ENDBRANCH   9  11
ENDBRANCH   2   5
BRANCH   1  20
HETATM   20  N   UNL     1     -42.886  55.570 -55.344  1.00  0.00    -0.183 NA
HETATM   21  C   UNL     1     -43.168  54.552 -54.598  1.00  0.00     0.153 C 
BRANCH  21  22
HETATM   22  C   UNL     1     -42.403  54.291 -53.392  1.00  0.00     0.018 A 
HETATM   23  C   UNL     1     -42.525  54.936 -52.168  1.00  0.00     0.018 A 
HETATM   24  C   UNL     1     -43.424  56.037 -51.723  1.00  0.00     0.069 C 
HETATM   25  N   UNL     1     -41.612  54.379 -51.308  1.00  0.00    -0.358 N 
HETATM   26  H   UNL     1     -41.480  54.654 -50.345  1.00  0.00     0.166 HD
HETATM   27  C   UNL     1     -40.898  53.387 -51.935  1.00  0.00     0.043 A 
HETATM   28  C   UNL     1     -41.370  53.306 -53.245  1.00  0.00     0.004 A 
HETATM   29  C   UNL     1     -39.878  52.565 -51.441  1.00  0.00     0.030 A 
HETATM   30  C   UNL     1     -40.787  52.350 -54.104  1.00  0.00     0.014 A 
HETATM   31  C   UNL     1     -39.766  51.519 -53.627  1.00  0.00     0.001 A 
HETATM   32  C   UNL     1     -39.320  51.627 -52.313  1.00  0.00     0.002 A 
ENDBRANCH  21  22
ENDBRANCH   1  20
TORSDOF 4
ENDMDL
MODEL 4
REMARK VINA RESULT:      -8.6      6.450     10.849
REMARK  4 active torsions:
REMARK  status: ('A' for Active; 'I' for Inactive)
REMARK    1  A    between atoms: C_7  and  C_8 
REMARK    2  A    between atoms: N_9  and  N_10 
REMARK       I    between atoms: N_10  and  C_11 
REMARK    3  A    between atoms: C_11  and  C_12 
REMARK    4  A    between atoms: C_16  and  C_17 
ROOT
HETATM    1  N   UNL     1     -42.242  59.046 -50.910  1.00  0.00    -0.242 N 
HETATM    2  C   UNL     1     -41.714  58.957 -52.189  1.00  0.00     0.289 C 
HETATM    3  O   UNL     1     -41.401  59.924 -52.877  1.00  0.00    -0.264 OA
HETATM    4  H   UNL     1     -42.481  58.211 -50.393  1.00  0.00     0.192 HD
ENDROOT
BRANCH   2   5
HETATM    5  C   UNL     1     -41.546  57.612 -52.682  1.00  0.00     0.121 A 
HETATM    6  N   UNL     1     -41.998  57.255 -53.921  1.00  0.00    -0.272 N 
HETATM    7  H   UNL     1     -42.471  57.857 -54.589  1.00  0.00     0.189 HD
HETATM    8  N   UNL     1     -41.771  55.974 -54.242  1.00  0.00    -0.174 NA
HETATM    9  C   UNL     1     -41.143  55.457 -53.175  1.00  0.00     0.089 A 
HETATM   10  C   UNL     1     -40.983  56.458 -52.172  1.00  0.00     0.071 A 
BRANCH   9  11
HETATM   11  C   UNL     1     -40.720  54.050 -53.141  1.00  0.00    -0.003 A 
HETATM   12  C   UNL     1     -40.497  53.389 -51.922  1.00  0.00     0.053 A 
HETATM   13  C   UNL     1     -40.100  52.066 -51.957  1.00  0.00     0.106 A 
HETATM   14  C   UNL     1     -39.920  51.389 -53.139  1.00  0.00     0.105 A 
HETATM   15  O   UNL     1     -39.844  51.289 -50.870  1.00  0.00    -0.323 OA
HETATM   16  O   UNL     1     -39.529  50.101 -52.946  1.00  0.00    -0.323 OA
HETATM   17  C   UNL     1     -40.127  51.995 -54.355  1.00  0.00     0.040 A 
HETATM   18  C   UNL     1     -39.483  50.044 -51.505  1.00  0.00     0.352 A 
HETATM   19  C   UNL     1     -40.530  53.336 -54.351  1.00  0.00     0.017 A 
ENDBRANCH   9  11
ENDBRANCH   2   5
BRANCH   1  20
HETATM   20  N   UNL     1     -42.445  60.270 -50.339  1.00  0.00    -0.183 NA
HETATM   21  C   UNL     1     -43.677  60.636 -50.194  1.00  0.00     0.153 C 
BRANCH  21  22
HETATM   22  C   UNL     1     -43.996  61.921 -49.597  1.00  0.00     0.018 A 
HETATM   23  C   UNL     1     -43.862  63.173 -50.184  1.00  0.00     0.018 A 
HETATM   24  C   UNL     1     -43.378  63.577 -51.533  1.00  0.00     0.069 C 
HETATM   25  N   UNL     1     -44.277  64.109 -49.271  1.00  0.00    -0.358 N 
HETATM   26  H   UNL     1     -44.288  65.107 -49.430  1.00  0.00     0.166 HD
HETATM   27  C   UNL     1     -44.678  63.506 -48.104  1.00  0.00     0.043 A 
HETATM   28  C   UNL     1     -44.514  62.132 -48.275  1.00  0.00     0.004 A 
HETATM   29  C   UNL     1     -45.168  64.073 -46.922  1.00  0.00     0.030 A 
HETATM   30  C   UNL     1     -44.861  61.281 -47.203  1.00  0.00     0.014 A 
HETATM   31  C   UNL     1     -45.353  61.831 -46.013  1.00  0.00     0.001 A 
HETATM   32  C   UNL     1     -45.504  63.208 -45.877  1.00  0.00     0.002 A 
ENDBRANCH  21  22
ENDBRANCH   1  20
TORSDOF 4
ENDMDL
MODEL 5
REMARK VINA RESULT:      -8.6      7.091     11.142
REMARK  4 active torsions:
REMARK  status: ('A' for Active; 'I' for Inactive)
REMARK    1  A    between atoms: C_7  and  C_8 
REMARK    2  A    between atoms: N_9  and  N_10 
REMARK       I    between atoms: N_10  and  C_11 
REMARK    3  A    between atoms: C_11  and  C_12 
REMARK    4  A    between atoms: C_16  and  C_17 
ROOT
HETATM    1  N   UNL     1     -45.163  58.656 -50.293  1.00  0.00    -0.242 N 
HETATM    2  C   UNL     1     -45.058  58.537 -51.669  1.00  0.00     0.289 C 
HETATM    3  O   UNL     1     -45.557  59.321 -52.472  1.00  0.00    -0.264 OA
HETATM    4  H   UNL     1     -44.730  57.977 -49.682  1.00  0.00     0.192 HD
ENDROOT
BRANCH   2   5
HETATM    5  C   UNL     1     -44.300  57.397 -52.122  1.00  0.00     0.121 A 
HETATM    6  N   UNL     1     -44.510  56.859 -53.360  1.00  0.00    -0.272 N 
HETATM    7  H   UNL     1     -45.178  57.181 -54.055  1.00  0.00     0.189 HD
HETATM    8  N   UNL     1     -43.732  55.805 -53.642  1.00  0.00    -0.174 NA
HETATM    9  C   UNL     1     -42.974  55.633 -52.548  1.00  0.00     0.089 A 
HETATM   10  C   UNL     1     -43.304  56.617 -51.569  1.00  0.00     0.071 A 
BRANCH   9  11
HETATM   11  C   UNL     1     -41.977  54.557 -52.466  1.00  0.00    -0.003 A 
HETATM   12  C   UNL     1     -41.770  53.677 -53.540  1.00  0.00     0.053 A 
HETATM   13  C   UNL     1     -40.817  52.686 -53.402  1.00  0.00     0.106 A 
HETATM   14  C   UNL     1     -40.076  52.541 -52.253  1.00  0.00     0.105 A 
HETATM   15  O   UNL     1     -40.499  51.758 -54.345  1.00  0.00    -0.323 OA
HETATM   16  O   UNL     1     -39.198  51.506 -52.328  1.00  0.00    -0.323 OA
HETATM   17  C   UNL     1     -40.244  53.380 -51.177  1.00  0.00     0.040 A 
HETATM   18  C   UNL     1     -39.470  51.014 -53.657  1.00  0.00     0.352 A 
HETATM   19  C   UNL     1     -41.203  54.394 -51.289  1.00  0.00     0.017 A 
ENDBRANCH   9  11
ENDBRANCH   2   5
BRANCH   1  20
HETATM   20  N   UNL     1     -45.859  59.700 -49.749  1.00  0.00    -0.183 NA
HETATM   21  C   UNL     1     -45.167  60.749 -49.443  1.00  0.00     0.153 C 
BRANCH  21  22
HETATM   22  C   UNL     1     -45.814  61.911 -48.860  1.00  0.00     0.018 A 
HETATM   23  C   UNL     1     -46.649  62.815 -49.504  1.00  0.00     0.018 A 
HETATM   24  C   UNL     1     -47.121  62.881 -50.915  1.00  0.00     0.069 C 
HETATM   25  N   UNL     1     -47.036  63.756 -48.584  1.00  0.00    -0.358 N 
HETATM   26  H   UNL     1     -47.647  64.538 -48.776  1.00  0.00     0.166 HD
HETATM   27  C   UNL     1     -46.479  63.493 -47.356  1.00  0.00     0.043 A 
HETATM   28  C   UNL     1     -45.706  62.340 -47.495  1.00  0.00     0.004 A 
HETATM   29  C   UNL     1     -46.604  64.185 -46.146  1.00  0.00     0.030 A 
HETATM   30  C   UNL     1     -45.021  61.858 -46.359  1.00  0.00     0.014 A 
HETATM   31  C   UNL     1     -45.134  62.538 -45.140  1.00  0.00     0.001 A 
HETATM   32  C   UNL     1     -45.916  63.685 -45.038  1.00  0.00     0.002 A 
ENDBRANCH  21  22
ENDBRANCH   1  20
TORSDOF 4
ENDMDL
MODEL 6
REMARK VINA RESULT:      -8.5      1.217      2.894
REMARK  4 active torsions:
REMARK  status: ('A' for Active; 'I' for Inactive)
REMARK    1  A    between atoms: C_7  and  C_8 
REMARK    2  A    between atoms: N_9  and  N_10 
REMARK       I    between atoms: N_10  and  C_11 
REMARK    3  A    between atoms: C_11  and  C_12 
REMARK    4  A    between atoms: C_16  and  C_17 
ROOT
HETATM    1  N   UNL     1     -41.595  55.268 -55.900  1.00  0.00    -0.242 N 
HETATM    2  C   UNL     1     -42.527  56.288 -56.013  1.00  0.00     0.289 C 
HETATM    3  O   UNL     1     -43.380  56.543 -55.167  1.00  0.00    -0.264 OA
HETATM    4  H   UNL     1     -40.917  55.106 -56.631  1.00  0.00     0.192 HD
ENDROOT
BRANCH   2   5
HETATM    5  C   UNL     1     -42.432  57.063 -57.226  1.00  0.00     0.121 A 
HETATM    6  N   UNL     1     -42.561  56.471 -58.450  1.00  0.00    -0.272 N 
HETATM    7  H   UNL     1     -42.728  55.485 -58.632  1.00  0.00     0.189 HD
HETATM    8  N   UNL     1     -42.451  57.316 -59.485  1.00  0.00    -0.174 NA
HETATM    9  C   UNL     1     -42.238  58.518 -58.927  1.00  0.00     0.089 A 
HETATM   10  C   UNL     1     -42.220  58.398 -57.505  1.00  0.00     0.071 A 
BRANCH   9  11
HETATM   11  C   UNL     1     -42.063  59.724 -59.747  1.00  0.00    -0.003 A 
HETATM   12  C   UNL     1     -42.347  59.714 -61.123  1.00  0.00     0.053 A 
HETATM   13  C   UNL     1     -42.162  60.880 -61.839  1.00  0.00     0.106 A 
HETATM   14  C   UNL     1     -41.711  62.036 -61.248  1.00  0.00     0.105 A 
HETATM   15  O   UNL     1     -42.390  61.034 -63.172  1.00  0.00    -0.323 OA
HETATM   16  O   UNL     1     -41.599  63.063 -62.132  1.00  0.00    -0.323 OA
HETATM   17  C   UNL     1     -41.420  62.093 -59.905  1.00  0.00     0.040 A 
HETATM   18  C   UNL     1     -42.032  62.422 -63.350  1.00  0.00     0.352 A 
HETATM   19  C   UNL     1     -41.599  60.925 -59.154  1.00  0.00     0.017 A 
ENDBRANCH   9  11
ENDBRANCH   2   5
BRANCH   1  20
HETATM   20  N   UNL     1     -41.590  54.468 -54.792  1.00  0.00    -0.183 NA
HETATM   21  C   UNL     1     -40.541  54.543 -54.039  1.00  0.00     0.153 C 
BRANCH  21  22
HETATM   22  C   UNL     1     -40.439  53.733 -52.838  1.00  0.00     0.018 A 
HETATM   23  C   UNL     1     -40.112  52.385 -52.763  1.00  0.00     0.018 A 
HETATM   24  C   UNL     1     -39.780  51.395 -53.824  1.00  0.00     0.069 C 
HETATM   25  N   UNL     1     -40.132  52.023 -51.439  1.00  0.00    -0.358 N 
HETATM   26  H   UNL     1     -39.932  51.096 -51.089  1.00  0.00     0.166 HD
HETATM   27  C   UNL     1     -40.462  53.095 -50.647  1.00  0.00     0.043 A 
HETATM   28  C   UNL     1     -40.662  54.185 -51.494  1.00  0.00     0.004 A 
HETATM   29  C   UNL     1     -40.597  53.176 -49.256  1.00  0.00     0.030 A 
HETATM   30  C   UNL     1     -41.015  55.423 -50.914  1.00  0.00     0.014 A 
HETATM   31  C   UNL     1     -41.155  55.523 -49.524  1.00  0.00     0.001 A 
HETATM   32  C   UNL     1     -40.947  54.414 -48.709  1.00  0.00     0.002 A 
ENDBRANCH  21  22
ENDBRANCH   1  20
TORSDOF 4
ENDMDL
MODEL 7
REMARK VINA RESULT:      -8.5      1.878      2.334
REMARK  4 active torsions:
REMARK  status: ('A' for Active; 'I' for Inactive)
REMARK    1  A    between atoms: C_7  and  C_8 
REMARK    2  A    between atoms: N_9  and  N_10 
REMARK       I    between atoms: N_10  and  C_11 
REMARK    3  A    between atoms: C_11  and  C_12 
REMARK    4  A    between atoms: C_16  and  C_17 
ROOT
HETATM    1  N   UNL     1     -42.111  55.724 -54.904  1.00  0.00    -0.242 N 
HETATM    2  C   UNL     1     -42.805  55.380 -56.053  1.00  0.00     0.289 C 
HETATM    3  O   UNL     1     -43.301  54.276 -56.258  1.00  0.00    -0.264 OA
HETATM    4  H   UNL     1     -41.725  56.651 -54.793  1.00  0.00     0.192 HD
ENDROOT
BRANCH   2   5
HETATM    5  C   UNL     1     -42.917  56.435 -57.031  1.00  0.00     0.121 A 
HETATM    6  N   UNL     1     -41.874  57.284 -57.272  1.00  0.00    -0.272 N 
HETATM    7  H   UNL     1     -40.964  57.268 -56.821  1.00  0.00     0.189 HD
HETATM    8  N   UNL     1     -42.123  58.211 -58.207  1.00  0.00    -0.174 NA
HETATM    9  C   UNL     1     -43.383  57.971 -58.603  1.00  0.00     0.089 A 
HETATM   10  C   UNL     1     -43.915  56.860 -57.885  1.00  0.00     0.071 A 
BRANCH   9  11
HETATM   11  C   UNL     1     -44.032  58.791 -59.635  1.00  0.00    -0.003 A 
HETATM   12  C   UNL     1     -43.274  59.492 -60.587  1.00  0.00     0.053 A 
HETATM   13  C   UNL     1     -43.943  60.246 -61.532  1.00  0.00     0.106 A 
HETATM   14  C   UNL     1     -45.315  60.327 -61.564  1.00  0.00     0.105 A 
HETATM   15  O   UNL     1     -43.358  60.980 -62.517  1.00  0.00    -0.323 OA
HETATM   16  O   UNL     1     -45.766  61.120 -62.571  1.00  0.00    -0.323 OA
HETATM   17  C   UNL     1     -46.097  59.657 -60.652  1.00  0.00     0.040 A 
HETATM   18  C   UNL     1     -44.521  61.531 -63.172  1.00  0.00     0.352 A 
HETATM   19  C   UNL     1     -45.445  58.886 -59.683  1.00  0.00     0.017 A 
ENDBRANCH   9  11
ENDBRANCH   2   5
BRANCH   1  20
HETATM   20  N   UNL     1     -41.944  54.804 -53.907  1.00  0.00    -0.183 NA
HETATM   21  C   UNL     1     -40.722  54.519 -53.593  1.00  0.00     0.153 C 
BRANCH  21  22
HETATM   22  C   UNL     1     -40.439  53.554 -52.546  1.00  0.00     0.018 A 
HETATM   23  C   UNL     1     -40.410  53.789 -51.177  1.00  0.00     0.018 A 
HETATM   24  C   UNL     1     -40.647  55.030 -50.389  1.00  0.00     0.069 C 
HETATM   25  N   UNL     1     -40.102  52.605 -50.555  1.00  0.00    -0.358 N 
HETATM   26  H   UNL     1     -40.014  52.480 -49.556  1.00  0.00     0.166 HD
HETATM   27  C   UNL     1     -39.928  51.602 -51.478  1.00  0.00     0.043 A 
HETATM   28  C   UNL     1     -40.133  52.165 -52.739  1.00  0.00     0.004 A 
HETATM   29  C   UNL     1     -39.608  50.253 -51.290  1.00  0.00     0.030 A 
HETATM   30  C   UNL     1     -40.009  51.329 -53.869  1.00  0.00     0.014 A 
HETATM   31  C   UNL     1     -39.689  49.976 -53.699  1.00  0.00     0.001 A 
HETATM   32  C   UNL     1     -39.492  49.448 -52.426  1.00  0.00     0.002 A 
ENDBRANCH  21  22
ENDBRANCH   1  20
TORSDOF 4
ENDMDL
MODEL 8
REMARK VINA RESULT:      -8.4      3.779     10.763
REMARK  4 active torsions:
REMARK  status: ('A' for Active; 'I' for Inactive)
REMARK    1  A    between atoms: C_7  and  C_8 
REMARK    2  A    between atoms: N_9  and  N_10 
REMARK       I    between atoms: N_10  and  C_11 
REMARK    3  A    between atoms: C_11  and  C_12 
REMARK    4  A    between atoms: C_16  and  C_17 
ROOT
HETATM    1  N   UNL     1     -43.833  56.686 -57.074  1.00  0.00    -0.242 N 
HETATM    2  C   UNL     1     -42.602  57.146 -56.634  1.00  0.00     0.289 C 
HETATM    3  O   UNL     1     -42.035  58.141 -57.079  1.00  0.00    -0.264 OA
HETATM    4  H   UNL     1     -44.249  55.859 -56.668  1.00  0.00     0.192 HD
ENDROOT
BRANCH   2   5
HETATM    5  C   UNL     1     -42.003  56.361 -55.582  1.00  0.00     0.121 A 
HETATM    6  N   UNL     1     -41.522  56.953 -54.449  1.00  0.00    -0.272 N 
HETATM    7  H   UNL     1     -41.533  57.946 -54.234  1.00  0.00     0.189 HD
HETATM    8  N   UNL     1     -40.996  56.098 -53.562  1.00  0.00    -0.174 NA
HETATM    9  C   UNL     1     -41.131  54.888 -54.126  1.00  0.00     0.089 A 
HETATM   10  C   UNL     1     -41.761  55.014 -55.400  1.00  0.00     0.071 A 
BRANCH   9  11
HETATM   11  C   UNL     1     -40.665  53.670 -53.451  1.00  0.00    -0.003 A 
HETATM   12  C   UNL     1     -40.515  52.463 -54.153  1.00  0.00     0.053 A 
HETATM   13  C   UNL     1     -40.073  51.352 -53.461  1.00  0.00     0.106 A 
HETATM   14  C   UNL     1     -39.781  51.397 -52.119  1.00  0.00     0.105 A 
HETATM   15  O   UNL     1     -39.877  50.115 -53.994  1.00  0.00    -0.323 OA
HETATM   16  O   UNL     1     -39.364  50.196 -51.637  1.00  0.00    -0.323 OA
HETATM   17  C   UNL     1     -39.913  52.556 -51.391  1.00  0.00     0.040 A 
HETATM   18  C   UNL     1     -39.427  49.387 -52.831  1.00  0.00     0.352 A 
HETATM   19  C   UNL     1     -40.359  53.698 -52.067  1.00  0.00     0.017 A 
ENDBRANCH   9  11
ENDBRANCH   2   5
BRANCH   1  20
HETATM   20  N   UNL     1     -44.495  57.351 -58.067  1.00  0.00    -0.183 NA
HETATM   21  C   UNL     1     -45.640  57.862 -57.748  1.00  0.00     0.153 C 
BRANCH  21  22
HETATM   22  C   UNL     1     -46.420  58.589 -58.733  1.00  0.00     0.018 A 
HETATM   23  C   UNL     1     -46.713  59.947 -58.732  1.00  0.00     0.018 A 
HETATM   24  C   UNL     1     -46.344  61.030 -57.779  1.00  0.00     0.069 C 
HETATM   25  N   UNL     1     -47.475  60.211 -59.843  1.00  0.00    -0.358 N 
HETATM   26  H   UNL     1     -47.833  61.122 -60.097  1.00  0.00     0.166 HD
HETATM   27  C   UNL     1     -47.688  59.066 -60.570  1.00  0.00     0.043 A 
HETATM   28  C   UNL     1     -47.039  58.028 -59.900  1.00  0.00     0.004 A 
HETATM   29  C   UNL     1     -48.401  58.876 -61.759  1.00  0.00     0.030 A 
HETATM   30  C   UNL     1     -47.109  56.732 -60.454  1.00  0.00     0.014 A 
HETATM   31  C   UNL     1     -47.818  56.523 -61.644  1.00  0.00     0.001 A 
HETATM   32  C   UNL     1     -48.454  57.583 -62.285  1.00  0.00     0.002 A 
ENDBRANCH  21  22
ENDBRANCH   1  20
TORSDOF 4
ENDMDL
MODEL 9
REMARK VINA RESULT:      -8.4      2.731     10.906
REMARK  4 active torsions:
REMARK  status: ('A' for Active; 'I' for Inactive)
REMARK    1  A    between atoms: C_7  and  C_8 
REMARK    2  A    between atoms: N_9  and  N_10 
REMARK       I    between atoms: N_10  and  C_11 
REMARK    3  A    between atoms: C_11  and  C_12 
REMARK    4  A    between atoms: C_16  and  C_17 
ROOT
HETATM    1  N   UNL     1     -42.264  57.240 -57.077  1.00  0.00    -0.242 N 
HETATM    2  C   UNL     1     -42.518  57.333 -55.717  1.00  0.00     0.289 C 
HETATM    3  O   UNL     1     -43.220  58.199 -55.202  1.00  0.00    -0.264 OA
HETATM    4  H   UNL     1     -41.676  56.503 -57.441  1.00  0.00     0.192 HD
ENDROOT
BRANCH   2   5
HETATM    5  C   UNL     1     -41.887  56.316 -54.913  1.00  0.00     0.121 A 
HETATM    6  N   UNL     1     -41.251  56.635 -53.746  1.00  0.00    -0.272 N 
HETATM    7  H   UNL     1     -41.158  57.563 -53.342  1.00  0.00     0.189 HD
HETATM    8  N   UNL     1     -40.714  55.588 -53.107  1.00  0.00    -0.174 NA
HETATM    9  C   UNL     1     -41.003  54.528 -53.878  1.00  0.00     0.089 A 
HETATM   10  C   UNL     1     -41.741  54.947 -55.024  1.00  0.00     0.071 A 
BRANCH   9  11
HETATM   11  C   UNL     1     -40.576  53.171 -53.509  1.00  0.00    -0.003 A 
HETATM   12  C   UNL     1     -40.382  52.812 -52.165  1.00  0.00     0.053 A 
HETATM   13  C   UNL     1     -39.981  51.521 -51.883  1.00  0.00     0.106 A 
HETATM   14  C   UNL     1     -39.768  50.590 -52.872  1.00  0.00     0.105 A 
HETATM   15  O   UNL     1     -39.750  51.019 -50.640  1.00  0.00    -0.323 OA
HETATM   16  O   UNL     1     -39.378  49.385 -52.377  1.00  0.00    -0.323 OA
HETATM   17  C   UNL     1     -39.947  50.896 -54.200  1.00  0.00     0.040 A 
HETATM   18  C   UNL     1     -39.369  49.663 -50.961  1.00  0.00     0.352 A 
HETATM   19  C   UNL     1     -40.353  52.198 -54.515  1.00  0.00     0.017 A 
ENDBRANCH   9  11
ENDBRANCH   2   5
BRANCH   1  20
HETATM   20  N   UNL     1     -42.810  58.150 -57.937  1.00  0.00    -0.183 NA
HETATM   21  C   UNL     1     -43.385  57.667 -58.990  1.00  0.00     0.153 C 
BRANCH  21  22
HETATM   22  C   UNL     1     -43.996  58.552 -59.965  1.00  0.00     0.018 A 
HETATM   23  C   UNL     1     -45.337  58.603 -60.324  1.00  0.00     0.018 A 
HETATM   24  C   UNL     1     -46.510  57.816 -59.854  1.00  0.00     0.069 C 
HETATM   25  N   UNL     1     -45.478  59.580 -61.278  1.00  0.00    -0.358 N 
HETATM   26  H   UNL     1     -46.350  59.836 -61.721  1.00  0.00     0.166 HD
HETATM   27  C   UNL     1     -44.268  60.170 -61.552  1.00  0.00     0.043 A 
HETATM   28  C   UNL     1     -43.316  59.547 -60.744  1.00  0.00     0.004 A 
HETATM   29  C   UNL     1     -43.952  61.197 -62.448  1.00  0.00     0.030 A 
HETATM   30  C   UNL     1     -41.976  59.980 -60.842  1.00  0.00     0.014 A 
HETATM   31  C   UNL     1     -41.641  61.007 -61.732  1.00  0.00     0.001 A 
HETATM   32  C   UNL     1     -42.618  61.606 -62.523  1.00  0.00     0.002 A 
ENDBRANCH  21  22
ENDBRANCH   1  20
TORSDOF 4
ENDMDL
MODEL 10
REMARK VINA RESULT:      -8.3     16.639     21.538
REMARK  4 active torsions:
REMARK  status: ('A' for Active; 'I' for Inactive)
REMARK    1  A    between atoms: C_7  and  C_8 
REMARK    2  A    between atoms: N_9  and  N_10 
REMARK       I    between atoms: N_10  and  C_11 
REMARK    3  A    between atoms: C_11  and  C_12 
REMARK    4  A    between atoms: C_16  and  C_17 
ROOT
HETATM    1  N   UNL     1     -33.729  40.253 -51.600  1.00  0.00    -0.242 N 
HETATM    2  C   UNL     1     -33.773  39.201 -50.698  1.00  0.00     0.289 C 
HETATM    3  O   UNL     1     -34.556  38.258 -50.773  1.00  0.00    -0.264 OA
HETATM    4  H   UNL     1     -33.060  41.002 -51.485  1.00  0.00     0.192 HD
ENDROOT
BRANCH   2   5
HETATM    5  C   UNL     1     -32.809  39.280 -49.628  1.00  0.00     0.121 A 
HETATM    6  N   UNL     1     -31.562  39.795 -49.841  1.00  0.00    -0.272 N 
HETATM    7  H   UNL     1     -31.198  40.156 -50.718  1.00  0.00     0.189 HD
HETATM    8  N   UNL     1     -30.777  39.805 -48.755  1.00  0.00    -0.174 NA
HETATM    9  C   UNL     1     -31.531  39.274 -47.780  1.00  0.00     0.089 A 
HETATM   10  C   UNL     1     -32.818  38.932 -48.292  1.00  0.00     0.071 A 
BRANCH   9  11
HETATM   11  C   UNL     1     -31.016  39.112 -46.413  1.00  0.00    -0.003 A 
HETATM   12  C   UNL     1     -29.987  39.933 -45.924  1.00  0.00     0.053 A 
HETATM   13  C   UNL     1     -29.545  39.731 -44.631  1.00  0.00     0.106 A 
HETATM   14  C   UNL     1     -30.081  38.758 -43.821  1.00  0.00     0.105 A 
HETATM   15  O   UNL     1     -28.562  40.438 -44.012  1.00  0.00    -0.323 OA
HETATM   16  O   UNL     1     -29.503  38.730 -42.590  1.00  0.00    -0.323 OA
HETATM   17  C   UNL     1     -31.090  37.932 -44.257  1.00  0.00     0.040 A 
HETATM   18  C   UNL     1     -28.541  39.797 -42.717  1.00  0.00     0.352 A 
HETATM   19  C   UNL     1     -31.556  38.114 -45.564  1.00  0.00     0.017 A 
ENDBRANCH   9  11
ENDBRANCH   2   5
BRANCH   1  20
HETATM   20  N   UNL     1     -34.595  40.284 -52.656  1.00  0.00    -0.183 NA
HETATM   21  C   UNL     1     -35.500  41.208 -52.626  1.00  0.00     0.153 C 
BRANCH  21  22
HETATM   22  C   UNL     1     -36.468  41.324 -53.702  1.00  0.00     0.018 A 
HETATM   23  C   UNL     1     -37.847  41.192 -53.604  1.00  0.00     0.018 A 
HETATM   24  C   UNL     1     -38.726  40.907 -52.436  1.00  0.00     0.069 C 
HETATM   25  N   UNL     1     -38.375  41.376 -54.858  1.00  0.00    -0.358 N 
HETATM   26  H   UNL     1     -39.359  41.336 -55.084  1.00  0.00     0.166 HD
HETATM   27  C   UNL     1     -37.380  41.625 -55.772  1.00  0.00     0.043 A 
HETATM   28  C   UNL     1     -36.170  41.599 -55.078  1.00  0.00     0.004 A 
HETATM   29  C   UNL     1     -37.465  41.867 -57.147  1.00  0.00     0.030 A 
HETATM   30  C   UNL     1     -34.982  41.829 -55.805  1.00  0.00     0.014 A 
HETATM   31  C   UNL     1     -35.047  42.073 -57.182  1.00  0.00     0.001 A 
HETATM   32  C   UNL     1     -36.273  42.092 -57.841  1.00  0.00     0.002 A 
ENDBRANCH  21  22
ENDBRANCH   1  20
TORSDOF 4
ENDMDL
