MODEL 1
REMARK VINA RESULT:      -6.9      0.000      0.000
REMARK  11 active torsions:
REMARK  status: ('A' for Active; 'I' for Inactive)
REMARK    1  A    between atoms: C_2  and  C_3 
REMARK    2  A    between atoms: C_3  and  N_4 
REMARK    3  A    between atoms: N_4  and  C_6 
REMARK    4  A    between atoms: N_4  and  C_30 
REMARK    5  A    between atoms: C_6  and  C_7 
REMARK    6  A    between atoms: N_8  and  C_9 
REMARK    7  A    between atoms: C_13  and  N_14 
REMARK    8  A    between atoms: C_17  and  C_18 
REMARK       I    between atoms: C_18  and  N_19 
REMARK    9  A    between atoms: N_19  and  N_20 
REMARK   10  A    between atoms: C_21  and  C_22 
REMARK   11  A    between atoms: C_30  and  C_31 
ROOT
HETATM    1  C   UNL     1     -44.379  60.114 -51.217  1.00  0.00     0.096 A 
HETATM    2  N   UNL     1     -45.085  61.039 -50.446  1.00  0.00    -0.215 N 
HETATM    3  N   UNL     1     -45.991  60.361 -49.686  1.00  0.00     0.012 NA
HETATM    4  N   UNL     1     -45.962  59.078 -50.002  1.00  0.00    -0.152 NA
HETATM    5  C   UNL     1     -44.999  58.901 -50.947  1.00  0.00     0.170 A 
ENDROOT
BRANCH   5   6
HETATM    6  C   UNL     1     -44.680  57.616 -51.552  1.00  0.00     0.293 C 
HETATM    7  N   UNL     1     -44.037  56.738 -50.705  1.00  0.00    -0.242 N 
HETATM    8  H   UNL     1     -43.836  57.006 -49.744  1.00  0.00     0.192 HD
HETATM    9  O   UNL     1     -44.991  57.405 -52.723  1.00  0.00    -0.264 OA
BRANCH   7  10
HETATM   10  N   UNL     1     -43.552  55.564 -51.200  1.00  0.00    -0.184 NA
HETATM   11  C   UNL     1     -42.312  55.581 -51.577  1.00  0.00     0.150 C 
BRANCH  11  12
HETATM   12  C   UNL     1     -41.670  54.396 -52.181  1.00  0.00    -0.017 A 
HETATM   13  C   UNL     1     -41.920  54.047 -53.513  1.00  0.00     0.014 A 
HETATM   14  C   UNL     1     -41.283  52.937 -54.072  1.00  0.00     0.020 A 
HETATM   15  C   UNL     1     -40.402  52.183 -53.298  1.00  0.00     0.011 A 
HETATM   16 BR   UNL     1     -39.535  50.685 -54.059  1.00  0.00    -0.051 Br
HETATM   17  C   UNL     1     -40.153  52.525 -51.969  1.00  0.00     0.020 A 
HETATM   18  C   UNL     1     -40.787  53.636 -51.407  1.00  0.00     0.014 A 
ENDBRANCH  11  12
ENDBRANCH   7  10
ENDBRANCH   5   6
BRANCH   1  19
HETATM   19  C   UNL     1     -43.174  60.391 -52.044  1.00  0.00     0.296 C 
BRANCH  19  20
HETATM   20  N   UNL     1     -42.040  59.383 -51.917  1.00  0.00    -0.066 N 
HETATM   21  H   UNL     1     -42.509  58.455 -51.860  1.00  0.00     0.280 HD
BRANCH  20  22
HETATM   22  C   UNL     1     -41.237  59.582 -50.641  1.00  0.00     0.235 C 
BRANCH  22  23
HETATM   23  C   UNL     1     -39.854  58.934 -50.648  1.00  0.00     0.023 C 
HETATM   24  C   UNL     1     -38.724  59.871 -50.260  1.00  0.00     0.007 C 
ENDBRANCH  22  23
ENDBRANCH  20  22
BRANCH  20  25
HETATM   25  C   UNL     1     -41.142  59.387 -53.143  1.00  0.00     0.235 C 
BRANCH  25  26
HETATM   26  C   UNL     1     -41.102  58.052 -53.887  1.00  0.00     0.023 C 
HETATM   27  C   UNL     1     -42.316  57.787 -54.763  1.00  0.00     0.007 C 
ENDBRANCH  25  26
ENDBRANCH  20  25
ENDBRANCH  19  20
ENDBRANCH   1  19
BRANCH   2  28
HETATM   28  C   UNL     1     -44.999  62.451 -50.417  1.00  0.00     0.225 A 
HETATM   29  N   UNL     1     -45.114  63.155 -51.544  1.00  0.00    -0.081 NA
HETATM   30  O   UNL     1     -45.005  64.483 -51.121  1.00  0.00    -0.103 OA
HETATM   31  N   UNL     1     -44.847  64.559 -49.745  1.00  0.00    -0.083 NA
HETATM   32  C   UNL     1     -44.847  63.301 -49.308  1.00  0.00     0.201 A 
BRANCH  32  33
HETATM   33  N   UNL     1     -44.715  62.945 -48.021  1.00  0.00    -0.379 N 
HETATM   34  H   UNL     1     -44.015  63.395 -47.435  1.00  0.00     0.158 HD
HETATM   35  H   UNL     1     -45.404  62.395 -47.512  1.00  0.00     0.158 HD
ENDBRANCH  32  33
ENDBRANCH   2  28
TORSDOF 11
ENDMDL
MODEL 2
REMARK VINA RESULT:      -6.9      5.465      7.796
REMARK  11 active torsions:
REMARK  status: ('A' for Active; 'I' for Inactive)
REMARK    1  A    between atoms: C_2  and  C_3 
REMARK    2  A    between atoms: C_3  and  N_4 
REMARK    3  A    between atoms: N_4  and  C_6 
REMARK    4  A    between atoms: N_4  and  C_30 
REMARK    5  A    between atoms: C_6  and  C_7 
REMARK    6  A    between atoms: N_8  and  C_9 
REMARK    7  A    between atoms: C_13  and  N_14 
REMARK    8  A    between atoms: C_17  and  C_18 
REMARK       I    between atoms: C_18  and  N_19 
REMARK    9  A    between atoms: N_19  and  N_20 
REMARK   10  A    between atoms: C_21  and  C_22 
REMARK   11  A    between atoms: C_30  and  C_31 
ROOT
HETATM    1  C   UNL     1     -43.098  57.678 -58.258  1.00  0.00     0.096 A 
HETATM    2  N   UNL     1     -42.921  58.070 -59.586  1.00  0.00    -0.215 N 
HETATM    3  N   UNL     1     -42.683  56.956 -60.335  1.00  0.00     0.012 NA
HETATM    4  N   UNL     1     -42.607  55.900 -59.544  1.00  0.00    -0.152 NA
HETATM    5  C   UNL     1     -42.839  56.314 -58.269  1.00  0.00     0.170 A 
ENDROOT
BRANCH   5   6
HETATM    6  C   UNL     1     -42.826  55.430 -57.112  1.00  0.00     0.293 C 
HETATM    7  N   UNL     1     -41.892  55.767 -56.155  1.00  0.00    -0.242 N 
HETATM    8  H   UNL     1     -41.295  56.581 -56.285  1.00  0.00     0.192 HD
HETATM    9  O   UNL     1     -43.612  54.485 -57.064  1.00  0.00    -0.264 OA
BRANCH   7  10
HETATM   10  N   UNL     1     -41.681  54.929 -55.101  1.00  0.00    -0.184 NA
HETATM   11  C   UNL     1     -40.675  54.120 -55.218  1.00  0.00     0.150 C 
BRANCH  11  12
HETATM   12  C   UNL     1     -40.360  53.121 -54.177  1.00  0.00    -0.017 A 
HETATM   13  C   UNL     1     -40.400  53.463 -52.821  1.00  0.00     0.014 A 
HETATM   14  C   UNL     1     -40.123  52.497 -51.851  1.00  0.00     0.020 A 
HETATM   15  C   UNL     1     -39.807  51.196 -52.242  1.00  0.00     0.011 A 
HETATM   16 BR   UNL     1     -39.438  49.888 -50.929  1.00  0.00    -0.051 Br
HETATM   17  C   UNL     1     -39.761  50.852 -53.593  1.00  0.00     0.020 A 
HETATM   18  C   UNL     1     -40.040  51.816 -54.566  1.00  0.00     0.014 A 
ENDBRANCH  11  12
ENDBRANCH   7  10
ENDBRANCH   5   6
BRANCH   1  19
HETATM   19  C   UNL     1     -43.564  58.538 -57.139  1.00  0.00     0.296 C 
BRANCH  19  20
HETATM   20  N   UNL     1     -45.015  58.345 -56.717  1.00  0.00    -0.066 N 
HETATM   21  H   UNL     1     -45.235  57.355 -56.953  1.00  0.00     0.280 HD
BRANCH  20  22
HETATM   22  C   UNL     1     -45.963  59.237 -57.504  1.00  0.00     0.235 C 
BRANCH  22  23
HETATM   23  C   UNL     1     -47.147  58.508 -58.138  1.00  0.00     0.023 C 
HETATM   24  C   UNL     1     -46.759  57.318 -58.999  1.00  0.00     0.007 C 
ENDBRANCH  22  23
ENDBRANCH  20  22
BRANCH  20  25
HETATM   25  C   UNL     1     -45.196  58.529 -55.219  1.00  0.00     0.235 C 
BRANCH  25  26
HETATM   26  C   UNL     1     -44.912  57.269 -54.401  1.00  0.00     0.023 C 
HETATM   27  C   UNL     1     -43.747  57.402 -53.433  1.00  0.00     0.007 C 
ENDBRANCH  25  26
ENDBRANCH  20  25
ENDBRANCH  19  20
ENDBRANCH   1  19
BRANCH   2  28
HETATM   28  C   UNL     1     -42.912  59.365 -60.157  1.00  0.00     0.225 A 
HETATM   29  N   UNL     1     -41.880  60.184 -59.952  1.00  0.00    -0.081 NA
HETATM   30  O   UNL     1     -42.214  61.331 -60.678  1.00  0.00    -0.103 OA
HETATM   31  N   UNL     1     -43.431  61.177 -61.326  1.00  0.00    -0.083 NA
HETATM   32  C   UNL     1     -43.863  59.959 -61.006  1.00  0.00     0.201 A 
BRANCH  32  33
HETATM   33  N   UNL     1     -45.017  59.426 -61.437  1.00  0.00    -0.379 N 
HETATM   34  H   UNL     1     -45.869  59.981 -61.433  1.00  0.00     0.158 HD
HETATM   35  H   UNL     1     -45.077  58.559 -61.968  1.00  0.00     0.158 HD
ENDBRANCH  32  33
ENDBRANCH   2  28
TORSDOF 11
ENDMDL
MODEL 3
REMARK VINA RESULT:      -6.9      1.095      2.005
REMARK  11 active torsions:
REMARK  status: ('A' for Active; 'I' for Inactive)
REMARK    1  A    between atoms: C_2  and  C_3 
REMARK    2  A    between atoms: C_3  and  N_4 
REMARK    3  A    between atoms: N_4  and  C_6 
REMARK    4  A    between atoms: N_4  and  C_30 
REMARK    5  A    between atoms: C_6  and  C_7 
REMARK    6  A    between atoms: N_8  and  C_9 
REMARK    7  A    between atoms: C_13  and  N_14 
REMARK    8  A    between atoms: C_17  and  C_18 
REMARK       I    between atoms: C_18  and  N_19 
REMARK    9  A    between atoms: N_19  and  N_20 
REMARK   10  A    between atoms: C_21  and  C_22 
REMARK   11  A    between atoms: C_30  and  C_31 
ROOT
HETATM    1  C   UNL     1     -43.985  59.768 -50.878  1.00  0.00     0.096 A 
HETATM    2  N   UNL     1     -44.748  60.666 -50.130  1.00  0.00    -0.215 N 
HETATM    3  N   UNL     1     -45.884  60.031 -49.725  1.00  0.00     0.012 NA
HETATM    4  N   UNL     1     -45.926  58.820 -50.252  1.00  0.00    -0.152 NA
HETATM    5  C   UNL     1     -44.787  58.638 -50.975  1.00  0.00     0.170 A 
ENDROOT
BRANCH   5   6
HETATM    6  C   UNL     1     -44.479  57.423 -51.714  1.00  0.00     0.293 C 
HETATM    7  N   UNL     1     -43.878  56.439 -50.957  1.00  0.00    -0.242 N 
HETATM    8  H   UNL     1     -43.698  56.592 -49.967  1.00  0.00     0.192 HD
HETATM    9  O   UNL     1     -44.761  57.354 -52.909  1.00  0.00    -0.264 OA
BRANCH   7  10
HETATM   10  N   UNL     1     -43.405  55.318 -51.570  1.00  0.00    -0.184 NA
HETATM   11  C   UNL     1     -42.120  55.151 -51.526  1.00  0.00     0.150 C 
BRANCH  11  12
HETATM   12  C   UNL     1     -41.464  54.009 -52.192  1.00  0.00    -0.017 A 
HETATM   13  C   UNL     1     -40.518  53.230 -51.515  1.00  0.00     0.014 A 
HETATM   14  C   UNL     1     -39.928  52.138 -52.155  1.00  0.00     0.020 A 
HETATM   15  C   UNL     1     -40.284  51.832 -53.468  1.00  0.00     0.011 A 
HETATM   16 BR   UNL     1     -39.489  50.351 -54.332  1.00  0.00    -0.051 Br
HETATM   17  C   UNL     1     -41.223  52.608 -54.149  1.00  0.00     0.020 A 
HETATM   18  C   UNL     1     -41.817  53.700 -53.510  1.00  0.00     0.014 A 
ENDBRANCH  11  12
ENDBRANCH   7  10
ENDBRANCH   5   6
BRANCH   1  19
HETATM   19  C   UNL     1     -42.591  59.975 -51.352  1.00  0.00     0.296 C 
BRANCH  19  20
HETATM   20  N   UNL     1     -42.355  59.731 -52.837  1.00  0.00    -0.066 N 
HETATM   21  H   UNL     1     -43.064  59.019 -53.109  1.00  0.00     0.280 HD
BRANCH  20  22
HETATM   22  C   UNL     1     -40.977  59.151 -53.110  1.00  0.00     0.235 C 
BRANCH  22  23
HETATM   23  C   UNL     1     -40.978  57.704 -53.597  1.00  0.00     0.023 C 
HETATM   24  C   UNL     1     -41.946  57.429 -54.735  1.00  0.00     0.007 C 
ENDBRANCH  22  23
ENDBRANCH  20  22
BRANCH  20  25
HETATM   25  C   UNL     1     -42.602  60.985 -53.660  1.00  0.00     0.235 C 
BRANCH  25  26
HETATM   26  C   UNL     1     -44.058  61.170 -54.087  1.00  0.00     0.023 C 
HETATM   27  C   UNL     1     -44.576  60.091 -55.025  1.00  0.00     0.007 C 
ENDBRANCH  25  26
ENDBRANCH  20  25
ENDBRANCH  19  20
ENDBRANCH   1  19
BRANCH   2  28
HETATM   28  C   UNL     1     -44.511  62.029 -49.830  1.00  0.00     0.225 A 
HETATM   29  N   UNL     1     -44.211  62.890 -50.803  1.00  0.00    -0.081 NA
HETATM   30  O   UNL     1     -44.077  64.112 -50.138  1.00  0.00    -0.103 OA
HETATM   31  N   UNL     1     -44.317  63.972 -48.779  1.00  0.00    -0.083 NA
HETATM   32  C   UNL     1     -44.589  62.683 -48.588  1.00  0.00     0.201 A 
BRANCH  32  33
HETATM   33  N   UNL     1     -44.879  62.137 -47.396  1.00  0.00    -0.379 N 
HETATM   34  H   UNL     1     -45.593  62.554 -46.803  1.00  0.00     0.158 HD
HETATM   35  H   UNL     1     -44.584  61.204 -47.114  1.00  0.00     0.158 HD
ENDBRANCH  32  33
ENDBRANCH   2  28
TORSDOF 11
ENDMDL
MODEL 4
REMARK VINA RESULT:      -6.9      4.856      8.787
REMARK  11 active torsions:
REMARK  status: ('A' for Active; 'I' for Inactive)
REMARK    1  A    between atoms: C_2  and  C_3 
REMARK    2  A    between atoms: C_3  and  N_4 
REMARK    3  A    between atoms: N_4  and  C_6 
REMARK    4  A    between atoms: N_4  and  C_30 
REMARK    5  A    between atoms: C_6  and  C_7 
REMARK    6  A    between atoms: N_8  and  C_9 
REMARK    7  A    between atoms: C_13  and  N_14 
REMARK    8  A    between atoms: C_17  and  C_18 
REMARK       I    between atoms: C_18  and  N_19 
REMARK    9  A    between atoms: N_19  and  N_20 
REMARK   10  A    between atoms: C_21  and  C_22 
REMARK   11  A    between atoms: C_30  and  C_31 
ROOT
HETATM    1  C   UNL     1     -42.508  58.001 -56.163  1.00  0.00     0.096 A 
HETATM    2  N   UNL     1     -42.451  58.083 -57.556  1.00  0.00    -0.215 N 
HETATM    3  N   UNL     1     -41.915  59.289 -57.893  1.00  0.00     0.012 NA
HETATM    4  N   UNL     1     -41.720  60.008 -56.802  1.00  0.00    -0.152 NA
HETATM    5  C   UNL     1     -42.090  59.253 -55.732  1.00  0.00     0.170 A 
ENDROOT
BRANCH   5   6
HETATM    6  C   UNL     1     -42.028  59.714 -54.352  1.00  0.00     0.293 C 
HETATM    7  N   UNL     1     -43.245  60.101 -53.832  1.00  0.00    -0.242 N 
HETATM    8  H   UNL     1     -44.088  60.039 -54.398  1.00  0.00     0.192 HD
HETATM    9  O   UNL     1     -40.947  59.726 -53.767  1.00  0.00    -0.264 OA
BRANCH   7  10
HETATM   10  N   UNL     1     -43.291  60.692 -52.605  1.00  0.00    -0.184 NA
HETATM   11  C   UNL     1     -44.389  60.519 -51.938  1.00  0.00     0.150 C 
BRANCH  11  12
HETATM   12  C   UNL     1     -44.599  61.145 -50.617  1.00  0.00    -0.017 A 
HETATM   13  C   UNL     1     -45.378  60.514 -49.641  1.00  0.00     0.014 A 
HETATM   14  C   UNL     1     -45.544  61.111 -48.389  1.00  0.00     0.020 A 
HETATM   15  C   UNL     1     -44.932  62.335 -48.121  1.00  0.00     0.011 A 
HETATM   16 BR   UNL     1     -45.151  63.139 -46.424  1.00  0.00    -0.051 Br
HETATM   17  C   UNL     1     -44.158  62.970 -49.092  1.00  0.00     0.020 A 
HETATM   18  C   UNL     1     -43.989  62.374 -50.345  1.00  0.00     0.014 A 
ENDBRANCH  11  12
ENDBRANCH   7  10
ENDBRANCH   5   6
BRANCH   1  19
HETATM   19  C   UNL     1     -42.844  56.794 -55.362  1.00  0.00     0.296 C 
BRANCH  19  20
HETATM   20  N   UNL     1     -41.658  56.040 -54.776  1.00  0.00    -0.066 N 
HETATM   21  H   UNL     1     -40.824  56.609 -55.030  1.00  0.00     0.280 HD
BRANCH  20  22
HETATM   22  C   UNL     1     -41.493  54.662 -55.395  1.00  0.00     0.235 C 
BRANCH  22  23
HETATM   23  C   UNL     1     -40.186  53.955 -55.043  1.00  0.00     0.023 C 
HETATM   24  C   UNL     1     -40.367  52.608 -54.364  1.00  0.00     0.007 C 
ENDBRANCH  22  23
ENDBRANCH  20  22
BRANCH  20  25
HETATM   25  C   UNL     1     -41.735  55.961 -53.260  1.00  0.00     0.235 C 
BRANCH  25  26
HETATM   26  C   UNL     1     -43.085  55.478 -52.731  1.00  0.00     0.023 C 
HETATM   27  C   UNL     1     -43.051  54.096 -52.099  1.00  0.00     0.007 C 
ENDBRANCH  25  26
ENDBRANCH  20  25
ENDBRANCH  19  20
ENDBRANCH   1  19
BRANCH   2  28
HETATM   28  C   UNL     1     -42.892  57.164 -58.537  1.00  0.00     0.225 A 
HETATM   29  N   UNL     1     -44.059  56.534 -58.394  1.00  0.00    -0.081 NA
HETATM   30  O   UNL     1     -44.159  55.750 -59.546  1.00  0.00    -0.103 OA
HETATM   31  N   UNL     1     -43.063  55.935 -60.376  1.00  0.00    -0.083 NA
HETATM   32  C   UNL     1     -42.279  56.812 -59.753  1.00  0.00     0.201 A 
BRANCH  32  33
HETATM   33  N   UNL     1     -41.107  57.258 -60.233  1.00  0.00    -0.379 N 
HETATM   34  H   UNL     1     -40.938  58.257 -60.321  1.00  0.00     0.158 HD
HETATM   35  H   UNL     1     -40.277  56.676 -60.330  1.00  0.00     0.158 HD
ENDBRANCH  32  33
ENDBRANCH   2  28
TORSDOF 11
ENDMDL
MODEL 5
REMARK VINA RESULT:      -6.8      4.254      8.683
REMARK  11 active torsions:
REMARK  status: ('A' for Active; 'I' for Inactive)
REMARK    1  A    between atoms: C_2  and  C_3 
REMARK    2  A    between atoms: C_3  and  N_4 
REMARK    3  A    between atoms: N_4  and  C_6 
REMARK    4  A    between atoms: N_4  and  C_30 
REMARK    5  A    between atoms: C_6  and  C_7 
REMARK    6  A    between atoms: N_8  and  C_9 
REMARK    7  A    between atoms: C_13  and  N_14 
REMARK    8  A    between atoms: C_17  and  C_18 
REMARK       I    between atoms: C_18  and  N_19 
REMARK    9  A    between atoms: N_19  and  N_20 
REMARK   10  A    between atoms: C_21  and  C_22 
REMARK   11  A    between atoms: C_30  and  C_31 
ROOT
HETATM    1  C   UNL     1     -42.197  57.818 -52.458  1.00  0.00     0.096 A 
HETATM    2  N   UNL     1     -41.915  57.624 -53.811  1.00  0.00    -0.215 N 
HETATM    3  N   UNL     1     -41.344  58.761 -54.298  1.00  0.00     0.012 NA
HETATM    4  N   UNL     1     -41.338  59.691 -53.358  1.00  0.00    -0.152 NA
HETATM    5  C   UNL     1     -41.868  59.148 -52.229  1.00  0.00     0.170 A 
ENDROOT
BRANCH   5   6
HETATM    6  C   UNL     1     -42.038  59.874 -50.979  1.00  0.00     0.293 C 
HETATM    7  N   UNL     1     -43.181  60.644 -50.925  1.00  0.00    -0.242 N 
HETATM    8  H   UNL     1     -43.827  60.659 -51.711  1.00  0.00     0.192 HD
HETATM    9  O   UNL     1     -41.192  59.760 -50.094  1.00  0.00    -0.264 OA
BRANCH   7  10
HETATM   10  N   UNL     1     -43.372  61.486 -49.871  1.00  0.00    -0.184 NA
HETATM   11  C   UNL     1     -44.343  61.176 -49.070  1.00  0.00     0.150 C 
BRANCH  11  12
HETATM   12  C   UNL     1     -44.697  62.026 -47.916  1.00  0.00    -0.017 A 
HETATM   13  C   UNL     1     -45.040  61.456 -46.685  1.00  0.00     0.014 A 
HETATM   14  C   UNL     1     -45.347  62.278 -45.599  1.00  0.00     0.020 A 
HETATM   15  C   UNL     1     -45.312  63.664 -45.750  1.00  0.00     0.011 A 
HETATM   16 BR   UNL     1     -45.722  64.776 -44.277  1.00  0.00    -0.051 Br
HETATM   17  C   UNL     1     -44.975  64.237 -46.976  1.00  0.00     0.020 A 
HETATM   18  C   UNL     1     -44.665  63.416 -48.064  1.00  0.00     0.014 A 
ENDBRANCH  11  12
ENDBRANCH   7  10
ENDBRANCH   5   6
BRANCH   1  19
HETATM   19  C   UNL     1     -42.645  56.780 -51.492  1.00  0.00     0.296 C 
BRANCH  19  20
HETATM   20  N   UNL     1     -41.653  55.656 -51.223  1.00  0.00    -0.066 N 
HETATM   21  H   UNL     1     -40.947  55.731 -51.985  1.00  0.00     0.280 HD
BRANCH  20  22
HETATM   22  C   UNL     1     -42.302  54.284 -51.317  1.00  0.00     0.235 C 
BRANCH  22  23
HETATM   23  C   UNL     1     -41.964  53.503 -52.585  1.00  0.00     0.023 C 
HETATM   24  C   UNL     1     -40.487  53.191 -52.751  1.00  0.00     0.007 C 
ENDBRANCH  22  23
ENDBRANCH  20  22
BRANCH  20  25
HETATM   25  C   UNL     1     -40.938  55.841 -49.895  1.00  0.00     0.235 C 
BRANCH  25  26
HETATM   26  C   UNL     1     -40.047  54.663 -49.500  1.00  0.00     0.023 C 
HETATM   27  C   UNL     1     -40.386  54.048 -48.152  1.00  0.00     0.007 C 
ENDBRANCH  25  26
ENDBRANCH  20  25
ENDBRANCH  19  20
ENDBRANCH   1  19
BRANCH   2  28
HETATM   28  C   UNL     1     -42.179  56.510 -54.643  1.00  0.00     0.225 A 
HETATM   29  N   UNL     1     -41.174  55.832 -55.200  1.00  0.00    -0.081 NA
HETATM   30  O   UNL     1     -41.812  54.812 -55.911  1.00  0.00    -0.103 OA
HETATM   31  N   UNL     1     -43.189  54.878 -55.755  1.00  0.00    -0.083 NA
HETATM   32  C   UNL     1     -43.417  55.927 -54.967  1.00  0.00     0.201 A 
BRANCH  32  33
HETATM   33  N   UNL     1     -44.635  56.332 -54.576  1.00  0.00    -0.379 N 
HETATM   34  H   UNL     1     -44.785  56.655 -53.623  1.00  0.00     0.158 HD
HETATM   35  H   UNL     1     -45.397  56.539 -55.219  1.00  0.00     0.158 HD
ENDBRANCH  32  33
ENDBRANCH   2  28
TORSDOF 11
ENDMDL
MODEL 6
REMARK VINA RESULT:      -6.8      4.666      6.651
REMARK  11 active torsions:
REMARK  status: ('A' for Active; 'I' for Inactive)
REMARK    1  A    between atoms: C_2  and  C_3 
REMARK    2  A    between atoms: C_3  and  N_4 
REMARK    3  A    between atoms: N_4  and  C_6 
REMARK    4  A    between atoms: N_4  and  C_30 
REMARK    5  A    between atoms: C_6  and  C_7 
REMARK    6  A    between atoms: N_8  and  C_9 
REMARK    7  A    between atoms: C_13  and  N_14 
REMARK    8  A    between atoms: C_17  and  C_18 
REMARK       I    between atoms: C_18  and  N_19 
REMARK    9  A    between atoms: N_19  and  N_20 
REMARK   10  A    between atoms: C_21  and  C_22 
REMARK   11  A    between atoms: C_30  and  C_31 
ROOT
HETATM    1  C   UNL     1     -42.666  58.614 -57.440  1.00  0.00     0.096 A 
HETATM    2  N   UNL     1     -42.922  59.012 -58.753  1.00  0.00    -0.215 N 
HETATM    3  N   UNL     1     -43.625  58.021 -59.372  1.00  0.00     0.012 NA
HETATM    4  N   UNL     1     -43.743  56.987 -58.557  1.00  0.00    -0.152 NA
HETATM    5  C   UNL     1     -43.151  57.314 -57.377  1.00  0.00     0.170 A 
ENDROOT
BRANCH   5   6
HETATM    6  C   UNL     1     -43.070  56.419 -56.232  1.00  0.00     0.293 C 
HETATM    7  N   UNL     1     -41.947  55.618 -56.221  1.00  0.00    -0.242 N 
HETATM    8  H   UNL     1     -41.256  55.693 -56.964  1.00  0.00     0.192 HD
HETATM    9  O   UNL     1     -43.964  56.434 -55.388  1.00  0.00    -0.264 OA
BRANCH   7  10
HETATM   10  N   UNL     1     -41.836  54.634 -55.284  1.00  0.00    -0.184 NA
HETATM   11  C   UNL     1     -40.626  54.303 -54.956  1.00  0.00     0.150 C 
BRANCH  11  12
HETATM   12  C   UNL     1     -40.354  53.217 -53.993  1.00  0.00    -0.017 A 
HETATM   13  C   UNL     1     -40.051  51.925 -54.438  1.00  0.00     0.014 A 
HETATM   14  C   UNL     1     -39.772  50.918 -53.511  1.00  0.00     0.020 A 
HETATM   15  C   UNL     1     -39.799  51.208 -52.147  1.00  0.00     0.011 A 
HETATM   16 BR   UNL     1     -39.416  49.846 -50.894  1.00  0.00    -0.051 Br
HETATM   17  C   UNL     1     -40.105  52.493 -51.699  1.00  0.00     0.020 A 
HETATM   18  C   UNL     1     -40.383  53.503 -52.625  1.00  0.00     0.014 A 
ENDBRANCH  11  12
ENDBRANCH   7  10
ENDBRANCH   5   6
BRANCH   1  19
HETATM   19  C   UNL     1     -42.097  59.459 -56.357  1.00  0.00     0.296 C 
BRANCH  19  20
HETATM   20  N   UNL     1     -42.556  59.121 -54.945  1.00  0.00    -0.066 N 
HETATM   21  H   UNL     1     -42.890  58.136 -54.998  1.00  0.00     0.280 HD
BRANCH  20  22
HETATM   22  C   UNL     1     -43.722  59.989 -54.499  1.00  0.00     0.235 C 
BRANCH  22  23
HETATM   23  C   UNL     1     -44.669  59.323 -53.502  1.00  0.00     0.023 C 
HETATM   24  C   UNL     1     -44.761  60.031 -52.161  1.00  0.00     0.007 C 
ENDBRANCH  22  23
ENDBRANCH  20  22
BRANCH  20  25
HETATM   25  C   UNL     1     -41.409  59.180 -53.950  1.00  0.00     0.235 C 
BRANCH  25  26
HETATM   26  C   UNL     1     -40.903  57.808 -53.504  1.00  0.00     0.023 C 
HETATM   27  C   UNL     1     -41.851  57.062 -52.579  1.00  0.00     0.007 C 
ENDBRANCH  25  26
ENDBRANCH  20  25
ENDBRANCH  19  20
ENDBRANCH   1  19
BRANCH   2  28
HETATM   28  C   UNL     1     -42.526  60.183 -59.441  1.00  0.00     0.225 A 
HETATM   29  N   UNL     1     -42.703  61.382 -58.884  1.00  0.00    -0.081 NA
HETATM   30  O   UNL     1     -42.178  62.270 -59.828  1.00  0.00    -0.103 OA
HETATM   31  N   UNL     1     -41.675  61.591 -60.929  1.00  0.00    -0.083 NA
HETATM   32  C   UNL     1     -41.887  60.299 -60.688  1.00  0.00     0.201 A 
BRANCH  32  33
HETATM   33  N   UNL     1     -41.542  59.305 -61.521  1.00  0.00    -0.379 N 
HETATM   34  H   UNL     1     -40.583  59.227 -61.853  1.00  0.00     0.158 HD
HETATM   35  H   UNL     1     -42.120  58.485 -61.696  1.00  0.00     0.158 HD
ENDBRANCH  32  33
ENDBRANCH   2  28
TORSDOF 11
ENDMDL
MODEL 7
REMARK VINA RESULT:      -6.8      4.815      7.202
REMARK  11 active torsions:
REMARK  status: ('A' for Active; 'I' for Inactive)
REMARK    1  A    between atoms: C_2  and  C_3 
REMARK    2  A    between atoms: C_3  and  N_4 
REMARK    3  A    between atoms: N_4  and  C_6 
REMARK    4  A    between atoms: N_4  and  C_30 
REMARK    5  A    between atoms: C_6  and  C_7 
REMARK    6  A    between atoms: N_8  and  C_9 
REMARK    7  A    between atoms: C_13  and  N_14 
REMARK    8  A    between atoms: C_17  and  C_18 
REMARK       I    between atoms: C_18  and  N_19 
REMARK    9  A    between atoms: N_19  and  N_20 
REMARK   10  A    between atoms: C_21  and  C_22 
REMARK   11  A    between atoms: C_30  and  C_31 
ROOT
HETATM    1  C   UNL     1     -42.228  57.968 -53.467  1.00  0.00     0.096 A 
HETATM    2  N   UNL     1     -41.768  58.996 -52.642  1.00  0.00    -0.215 N 
HETATM    3  N   UNL     1     -42.752  59.932 -52.533  1.00  0.00     0.012 NA
HETATM    4  N   UNL     1     -43.766  59.602 -53.315  1.00  0.00    -0.152 NA
HETATM    5  C   UNL     1     -43.466  58.416 -53.910  1.00  0.00     0.170 A 
ENDROOT
BRANCH   5   6
HETATM    6  C   UNL     1     -44.341  57.737 -54.855  1.00  0.00     0.293 C 
HETATM    7  N   UNL     1     -44.201  58.161 -56.160  1.00  0.00    -0.242 N 
HETATM    8  H   UNL     1     -43.521  58.881 -56.394  1.00  0.00     0.192 HD
HETATM    9  O   UNL     1     -45.110  56.868 -54.449  1.00  0.00    -0.264 OA
BRANCH   7  10
HETATM   10  N   UNL     1     -45.069  57.709 -57.108  1.00  0.00    -0.184 NA
HETATM   11  C   UNL     1     -45.040  58.336 -58.242  1.00  0.00     0.150 C 
BRANCH  11  12
HETATM   12  C   UNL     1     -45.962  57.989 -59.342  1.00  0.00    -0.017 A 
HETATM   13  C   UNL     1     -46.170  56.654 -59.708  1.00  0.00     0.014 A 
HETATM   14  C   UNL     1     -47.066  56.345 -60.734  1.00  0.00     0.020 A 
HETATM   15  C   UNL     1     -47.746  57.371 -61.389  1.00  0.00     0.011 A 
HETATM   16 BR   UNL     1     -48.962  56.952 -62.774  1.00  0.00    -0.051 Br
HETATM   17  C   UNL     1     -47.539  58.703 -61.031  1.00  0.00     0.020 A 
HETATM   18  C   UNL     1     -46.645  59.015 -60.003  1.00  0.00     0.014 A 
ENDBRANCH  11  12
ENDBRANCH   7  10
ENDBRANCH   5   6
BRANCH   1  19
HETATM   19  C   UNL     1     -41.560  56.661 -53.705  1.00  0.00     0.296 C 
BRANCH  19  20
HETATM   20  N   UNL     1     -42.086  55.492 -52.882  1.00  0.00    -0.066 N 
HETATM   21  H   UNL     1     -43.084  55.722 -52.693  1.00  0.00     0.280 HD
BRANCH  20  22
HETATM   22  C   UNL     1     -41.372  55.365 -51.546  1.00  0.00     0.235 C 
BRANCH  22  23
HETATM   23  C   UNL     1     -41.358  53.954 -50.961  1.00  0.00     0.023 C 
HETATM   24  C   UNL     1     -40.015  53.529 -50.391  1.00  0.00     0.007 C 
ENDBRANCH  22  23
ENDBRANCH  20  22
BRANCH  20  25
HETATM   25  C   UNL     1     -42.039  54.188 -53.662  1.00  0.00     0.235 C 
BRANCH  25  26
HETATM   26  C   UNL     1     -40.747  53.985 -54.453  1.00  0.00     0.023 C 
HETATM   27  C   UNL     1     -40.177  52.578 -54.368  1.00  0.00     0.007 C 
ENDBRANCH  25  26
ENDBRANCH  20  25
ENDBRANCH  19  20
ENDBRANCH   1  19
BRANCH   2  28
HETATM   28  C   UNL     1     -40.508  59.167 -52.021  1.00  0.00     0.225 A 
HETATM   29  N   UNL     1     -39.398  59.236 -52.759  1.00  0.00    -0.081 NA
HETATM   30  O   UNL     1     -38.383  59.428 -51.818  1.00  0.00    -0.103 OA
HETATM   31  N   UNL     1     -38.898  59.493 -50.531  1.00  0.00    -0.083 NA
HETATM   32  C   UNL     1     -40.214  59.334 -50.657  1.00  0.00     0.201 A 
BRANCH  32  33
HETATM   33  N   UNL     1     -41.079  59.334 -49.631  1.00  0.00    -0.379 N 
HETATM   34  H   UNL     1     -41.133  60.136 -49.007  1.00  0.00     0.158 HD
HETATM   35  H   UNL     1     -41.848  58.672 -49.538  1.00  0.00     0.158 HD
ENDBRANCH  32  33
ENDBRANCH   2  28
TORSDOF 11
ENDMDL
MODEL 8
REMARK VINA RESULT:      -6.7     18.677     21.574
REMARK  11 active torsions:
REMARK  status: ('A' for Active; 'I' for Inactive)
REMARK    1  A    between atoms: C_2  and  C_3 
REMARK    2  A    between atoms: C_3  and  N_4 
REMARK    3  A    between atoms: N_4  and  C_6 
REMARK    4  A    between atoms: N_4  and  C_30 
REMARK    5  A    between atoms: C_6  and  C_7 
REMARK    6  A    between atoms: N_8  and  C_9 
REMARK    7  A    between atoms: C_13  and  N_14 
REMARK    8  A    between atoms: C_17  and  C_18 
REMARK       I    between atoms: C_18  and  N_19 
REMARK    9  A    between atoms: N_19  and  N_20 
REMARK   10  A    between atoms: C_21  and  C_22 
REMARK   11  A    between atoms: C_30  and  C_31 
ROOT
HETATM    1  C   UNL     1     -33.554  39.532 -54.163  1.00  0.00     0.096 A 
HETATM    2  N   UNL     1     -33.350  40.239 -55.350  1.00  0.00    -0.215 N 
HETATM    3  N   UNL     1     -32.008  40.338 -55.564  1.00  0.00     0.012 NA
HETATM    4  N   UNL     1     -31.356  39.821 -54.537  1.00  0.00    -0.152 NA
HETATM    5  C   UNL     1     -32.275  39.337 -53.659  1.00  0.00     0.170 A 
ENDROOT
BRANCH   5   6
HETATM    6  C   UNL     1     -31.935  38.701 -52.395  1.00  0.00     0.293 C 
HETATM    7  N   UNL     1     -31.975  39.548 -51.307  1.00  0.00    -0.242 N 
HETATM    8  H   UNL     1     -32.239  40.524 -51.427  1.00  0.00     0.192 HD
HETATM    9  O   UNL     1     -31.649  37.505 -52.378  1.00  0.00    -0.264 OA
BRANCH   7  10
HETATM   10  N   UNL     1     -31.531  39.107 -50.097  1.00  0.00    -0.184 NA
HETATM   11  C   UNL     1     -31.952  39.770 -49.067  1.00  0.00     0.150 C 
BRANCH  11  12
HETATM   12  C   UNL     1     -31.510  39.436 -47.698  1.00  0.00    -0.017 A 
HETATM   13  C   UNL     1     -30.579  40.240 -47.030  1.00  0.00     0.014 A 
HETATM   14  C   UNL     1     -30.193  39.921 -45.726  1.00  0.00     0.020 A 
HETATM   15  C   UNL     1     -30.738  38.802 -45.098  1.00  0.00     0.011 A 
HETATM   16 BR   UNL     1     -30.220  38.375 -43.331  1.00  0.00    -0.051 Br
HETATM   17  C   UNL     1     -31.663  37.995 -45.762  1.00  0.00     0.020 A 
HETATM   18  C   UNL     1     -32.053  38.313 -47.066  1.00  0.00     0.014 A 
ENDBRANCH  11  12
ENDBRANCH   7  10
ENDBRANCH   5   6
BRANCH   1  19
HETATM   19  C   UNL     1     -34.856  39.030 -53.648  1.00  0.00     0.296 C 
BRANCH  19  20
HETATM   20  N   UNL     1     -35.729  40.061 -52.945  1.00  0.00    -0.066 N 
HETATM   21  H   UNL     1     -35.220  40.963 -53.050  1.00  0.00     0.280 HD
BRANCH  20  22
HETATM   22  C   UNL     1     -35.872  39.772 -51.459  1.00  0.00     0.235 C 
BRANCH  22  23
HETATM   23  C   UNL     1     -35.206  40.796 -50.542  1.00  0.00     0.023 C 
HETATM   24  C   UNL     1     -34.638  42.005 -51.266  1.00  0.00     0.007 C 
ENDBRANCH  22  23
ENDBRANCH  20  22
BRANCH  20  25
HETATM   25  C   UNL     1     -37.086  40.201 -53.616  1.00  0.00     0.235 C 
BRANCH  25  26
HETATM   26  C   UNL     1     -37.908  41.387 -53.112  1.00  0.00     0.023 C 
HETATM   27  C   UNL     1     -39.305  41.022 -52.636  1.00  0.00     0.007 C 
ENDBRANCH  25  26
ENDBRANCH  20  25
ENDBRANCH  19  20
ENDBRANCH   1  19
BRANCH   2  28
HETATM   28  C   UNL     1     -34.289  40.837 -56.224  1.00  0.00     0.225 A 
HETATM   29  N   UNL     1     -34.634  40.229 -57.359  1.00  0.00    -0.081 NA
HETATM   30  O   UNL     1     -35.578  41.089 -57.926  1.00  0.00    -0.103 OA
HETATM   31  N   UNL     1     -35.802  42.193 -57.114  1.00  0.00    -0.083 NA
HETATM   32  C   UNL     1     -35.006  42.035 -56.059  1.00  0.00     0.201 A 
BRANCH  32  33
HETATM   33  N   UNL     1     -34.926  42.898 -55.034  1.00  0.00    -0.379 N 
HETATM   34  H   UNL     1     -34.485  43.806 -55.163  1.00  0.00     0.158 HD
HETATM   35  H   UNL     1     -35.459  42.804 -54.171  1.00  0.00     0.158 HD
ENDBRANCH  32  33
ENDBRANCH   2  28
TORSDOF 11
ENDMDL
MODEL 9
REMARK VINA RESULT:      -6.6      6.251      8.227
REMARK  11 active torsions:
REMARK  status: ('A' for Active; 'I' for Inactive)
REMARK    1  A    between atoms: C_2  and  C_3 
REMARK    2  A    between atoms: C_3  and  N_4 
REMARK    3  A    between atoms: N_4  and  C_6 
REMARK    4  A    between atoms: N_4  and  C_30 
REMARK    5  A    between atoms: C_6  and  C_7 
REMARK    6  A    between atoms: N_8  and  C_9 
REMARK    7  A    between atoms: C_13  and  N_14 
REMARK    8  A    between atoms: C_17  and  C_18 
REMARK       I    between atoms: C_18  and  N_19 
REMARK    9  A    between atoms: N_19  and  N_20 
REMARK   10  A    between atoms: C_21  and  C_22 
REMARK   11  A    between atoms: C_30  and  C_31 
ROOT
HETATM    1  C   UNL     1     -43.660  58.107 -58.462  1.00  0.00     0.096 A 
HETATM    2  N   UNL     1     -43.165  58.984 -59.428  1.00  0.00    -0.215 N 
HETATM    3  N   UNL     1     -42.146  58.365 -60.088  1.00  0.00     0.012 NA
HETATM    4  N   UNL     1     -41.908  57.190 -59.533  1.00  0.00    -0.152 NA
HETATM    5  C   UNL     1     -42.807  57.013 -58.526  1.00  0.00     0.170 A 
ENDROOT
BRANCH   5   6
HETATM    6  C   UNL     1     -42.850  55.834 -57.674  1.00  0.00     0.293 C 
HETATM    7  N   UNL     1     -42.054  55.921 -56.550  1.00  0.00    -0.242 N 
HETATM    8  H   UNL     1     -41.513  56.764 -56.370  1.00  0.00     0.192 HD
HETATM    9  O   UNL     1     -43.560  54.883 -57.993  1.00  0.00    -0.264 OA
BRANCH   7  10
HETATM   10  N   UNL     1     -41.894  54.825 -55.757  1.00  0.00    -0.184 NA
HETATM   11  C   UNL     1     -40.895  54.868 -54.932  1.00  0.00     0.150 C 
BRANCH  11  12
HETATM   12  C   UNL     1     -40.569  53.730 -54.049  1.00  0.00    -0.017 A 
HETATM   13  C   UNL     1     -40.237  52.481 -54.585  1.00  0.00     0.014 A 
HETATM   14  C   UNL     1     -39.907  51.424 -53.733  1.00  0.00     0.020 A 
HETATM   15  C   UNL     1     -39.914  51.621 -52.353  1.00  0.00     0.011 A 
HETATM   16 BR   UNL     1     -39.461  50.192 -51.201  1.00  0.00    -0.051 Br
HETATM   17  C   UNL     1     -40.249  52.864 -51.814  1.00  0.00     0.020 A 
HETATM   18  C   UNL     1     -40.577  53.924 -52.664  1.00  0.00     0.014 A 
ENDBRANCH  11  12
ENDBRANCH   7  10
ENDBRANCH   5   6
BRANCH   1  19
HETATM   19  C   UNL     1     -44.888  58.294 -57.645  1.00  0.00     0.296 C 
BRANCH  19  20
HETATM   20  N   UNL     1     -46.158  57.670 -58.210  1.00  0.00    -0.066 N 
HETATM   21  H   UNL     1     -46.324  56.823 -57.628  1.00  0.00     0.280 HD
BRANCH  20  22
HETATM   22  C   UNL     1     -45.983  57.223 -59.653  1.00  0.00     0.235 C 
BRANCH  22  23
HETATM   23  C   UNL     1     -47.037  56.235 -60.147  1.00  0.00     0.023 C 
HETATM   24  C   UNL     1     -47.709  56.639 -61.449  1.00  0.00     0.007 C 
ENDBRANCH  22  23
ENDBRANCH  20  22
BRANCH  20  25
HETATM   25  C   UNL     1     -47.356  58.593 -58.057  1.00  0.00     0.235 C 
BRANCH  25  26
HETATM   26  C   UNL     1     -47.227  59.910 -58.822  1.00  0.00     0.023 C 
HETATM   27  C   UNL     1     -48.284  60.116 -59.895  1.00  0.00     0.007 C 
ENDBRANCH  25  26
ENDBRANCH  20  25
ENDBRANCH  19  20
ENDBRANCH   1  19
BRANCH   2  28
HETATM   28  C   UNL     1     -43.539  60.318 -59.720  1.00  0.00     0.225 A 
HETATM   29  N   UNL     1     -43.157  61.315 -58.921  1.00  0.00    -0.081 NA
HETATM   30  O   UNL     1     -43.681  62.455 -59.535  1.00  0.00    -0.103 OA
HETATM   31  N   UNL     1     -44.354  62.130 -60.705  1.00  0.00    -0.083 NA
HETATM   32  C   UNL     1     -44.263  60.807 -60.822  1.00  0.00     0.201 A 
BRANCH  32  33
HETATM   33  N   UNL     1     -44.791  60.097 -61.831  1.00  0.00    -0.379 N 
HETATM   34  H   UNL     1     -44.212  59.446 -62.356  1.00  0.00     0.158 HD
HETATM   35  H   UNL     1     -45.792  59.999 -61.992  1.00  0.00     0.158 HD
ENDBRANCH  32  33
ENDBRANCH   2  28
TORSDOF 11
ENDMDL
MODEL 10
REMARK VINA RESULT:      -6.6      1.973      3.280
REMARK  11 active torsions:
REMARK  status: ('A' for Active; 'I' for Inactive)
REMARK    1  A    between atoms: C_2  and  C_3 
REMARK    2  A    between atoms: C_3  and  N_4 
REMARK    3  A    between atoms: N_4  and  C_6 
REMARK    4  A    between atoms: N_4  and  C_30 
REMARK    5  A    between atoms: C_6  and  C_7 
REMARK    6  A    between atoms: N_8  and  C_9 
REMARK    7  A    between atoms: C_13  and  N_14 
REMARK    8  A    between atoms: C_17  and  C_18 
REMARK       I    between atoms: C_18  and  N_19 
REMARK    9  A    between atoms: N_19  and  N_20 
REMARK   10  A    between atoms: C_21  and  C_22 
REMARK   11  A    between atoms: C_30  and  C_31 
ROOT
HETATM    1  C   UNL     1     -44.013  59.719 -51.062  1.00  0.00     0.096 A 
HETATM    2  N   UNL     1     -44.081  60.821 -50.207  1.00  0.00    -0.215 N 
HETATM    3  N   UNL     1     -42.819  61.304 -50.030  1.00  0.00     0.012 NA
HETATM    4  N   UNL     1     -41.953  60.517 -50.644  1.00  0.00    -0.152 NA
HETATM    5  C   UNL     1     -42.652  59.531 -51.268  1.00  0.00     0.170 A 
ENDROOT
BRANCH   5   6
HETATM    6  C   UNL     1     -42.037  58.463 -52.041  1.00  0.00     0.293 C 
HETATM    7  N   UNL     1     -42.053  57.233 -51.417  1.00  0.00    -0.242 N 
HETATM    8  H   UNL     1     -42.481  57.129 -50.500  1.00  0.00     0.192 HD
HETATM    9  O   UNL     1     -41.567  58.712 -53.150  1.00  0.00    -0.264 OA
BRANCH   7  10
HETATM   10  N   UNL     1     -41.374  56.191 -51.973  1.00  0.00    -0.184 NA
HETATM   11  C   UNL     1     -42.047  55.093 -52.117  1.00  0.00     0.150 C 
BRANCH  11  12
HETATM   12  C   UNL     1     -41.424  53.867 -52.657  1.00  0.00    -0.017 A 
HETATM   13  C   UNL     1     -41.748  53.404 -53.937  1.00  0.00     0.014 A 
HETATM   14  C   UNL     1     -41.129  52.257 -54.440  1.00  0.00     0.020 A 
HETATM   15  C   UNL     1     -40.192  51.580 -53.660  1.00  0.00     0.011 A 
HETATM   16 BR   UNL     1     -39.350  50.032 -54.343  1.00  0.00    -0.051 Br
HETATM   17  C   UNL     1     -39.869  52.036 -52.381  1.00  0.00     0.020 A 
HETATM   18  C   UNL     1     -40.486  53.184 -51.877  1.00  0.00     0.014 A 
ENDBRANCH  11  12
ENDBRANCH   7  10
ENDBRANCH   5   6
BRANCH   1  19
HETATM   19  C   UNL     1     -45.164  59.004 -51.674  1.00  0.00     0.296 C 
BRANCH  19  20
HETATM   20  N   UNL     1     -45.629  59.536 -53.024  1.00  0.00    -0.066 N 
HETATM   21  H   UNL     1     -46.655  59.360 -53.044  1.00  0.00     0.280 HD
BRANCH  20  22
HETATM   22  C   UNL     1     -44.999  58.781 -54.184  1.00  0.00     0.235 C 
BRANCH  22  23
HETATM   23  C   UNL     1     -44.776  57.292 -53.930  1.00  0.00     0.023 C 
HETATM   24  C   UNL     1     -43.846  56.622 -54.928  1.00  0.00     0.007 C 
ENDBRANCH  22  23
ENDBRANCH  20  22
BRANCH  20  25
HETATM   25  C   UNL     1     -45.401  61.034 -53.148  1.00  0.00     0.235 C 
BRANCH  25  26
HETATM   26  C   UNL     1     -44.478  61.428 -54.301  1.00  0.00     0.023 C 
HETATM   27  C   UNL     1     -43.148  62.019 -53.862  1.00  0.00     0.007 C 
ENDBRANCH  25  26
ENDBRANCH  20  25
ENDBRANCH  19  20
ENDBRANCH   1  19
BRANCH   2  28
HETATM   28  C   UNL     1     -45.194  61.387 -49.543  1.00  0.00     0.225 A 
HETATM   29  N   UNL     1     -45.883  60.671 -48.653  1.00  0.00    -0.081 NA
HETATM   30  O   UNL     1     -46.867  61.556 -48.202  1.00  0.00    -0.103 OA
HETATM   31  N   UNL     1     -46.744  62.796 -48.811  1.00  0.00    -0.083 NA
HETATM   32  C   UNL     1     -45.706  62.694 -49.640  1.00  0.00     0.201 A 
BRANCH  32  33
HETATM   33  N   UNL     1     -45.258  63.688 -50.422  1.00  0.00    -0.379 N 
HETATM   34  H   UNL     1     -45.675  63.847 -51.336  1.00  0.00     0.158 HD
HETATM   35  H   UNL     1     -44.660  64.443 -50.091  1.00  0.00     0.158 HD
ENDBRANCH  32  33
ENDBRANCH   2  28
TORSDOF 11
ENDMDL
