MODEL 1
REMARK VINA RESULT:      -8.1      0.000      0.000
REMARK  3 active torsions:
REMARK  status: ('A' for Active; 'I' for Inactive)
REMARK    1  A    between atoms: C_2  and  N_3 
REMARK       I    between atoms: N_3  and  C_4 
REMARK    2  A    between atoms: C_4  and  C_5 
REMARK    3  A    between atoms: C_5  and  C_6 
ROOT
HETATM    1  C   UNL     1     -42.564  55.677 -51.329  1.00  0.00     0.286 C 
HETATM    2  N   UNL     1     -41.157  56.253 -51.205  1.00  0.00    -0.056 N 
HETATM    3  H   UNL     1     -40.954  56.255 -50.182  1.00  0.00     0.278 HD
HETATM    4  H   UNL     1     -40.459  55.632 -51.631  1.00  0.00     0.278 HD
HETATM    5  C   UNL     1     -41.009  57.665 -51.699  1.00  0.00     0.209 C 
HETATM    6  C   UNL     1     -42.065  58.563 -51.008  1.00  0.00     0.115 C 
HETATM    7  N   UNL     1     -43.414  57.999 -51.055  1.00  0.00    -0.353 N 
HETATM    8  C   UNL     1     -43.667  56.657 -50.881  1.00  0.00     0.249 C 
HETATM    9  O   UNL     1     -44.767  56.283 -50.486  1.00  0.00    -0.271 OA
HETATM   10  C   UNL     1     -41.091  57.698 -53.227  1.00  0.00     0.035 C 
HETATM   11  C   UNL     1     -41.037  59.131 -53.748  1.00  0.00     0.002 C 
HETATM   12  C   UNL     1     -42.127  59.993 -53.116  1.00  0.00     0.002 C 
HETATM   13  C   UNL     1     -42.041  59.981 -51.589  1.00  0.00     0.027 C 
HETATM   14  H   UNL     1     -44.177  58.576 -50.705  1.00  0.00     0.163 HD
ENDROOT
BRANCH   1  15
HETATM   15  C   UNL     1     -42.673  54.328 -50.605  1.00  0.00     0.146 C 
BRANCH  15  16
HETATM   16  C   UNL     1     -41.452  54.068 -49.763  1.00  0.00     0.224 C 
HETATM   17  N   UNL     1     -40.480  53.195 -50.131  1.00  0.00    -0.327 N 
HETATM   18  H   UNL     1     -39.790  53.076 -49.392  1.00  0.00     0.169 HD
HETATM   19  O   UNL     1     -41.314  54.716 -48.715  1.00  0.00    -0.273 OA
BRANCH  17  20
HETATM   20  C   UNL     1     -40.226  52.447 -51.299  1.00  0.00     0.034 A 
HETATM   21  C   UNL     1     -40.278  52.935 -52.607  1.00  0.00     0.032 A 
HETATM   22  C   UNL     1     -39.974  52.100 -53.690  1.00  0.00     0.044 A 
HETATM   23  C   UNL     1     -39.615  50.779 -53.470  1.00  0.00     0.116 A 
HETATM   24  C   UNL     1     -39.549  50.273 -52.182  1.00  0.00     0.044 A 
HETATM   25  F   UNL     1     -39.322  49.990 -54.511  1.00  0.00    -0.206 F 
HETATM   26  C   UNL     1     -39.849  51.107 -51.101  1.00  0.00     0.032 A 
ENDBRANCH  17  20
ENDBRANCH  15  16
ENDBRANCH   1  15
TORSDOF 3
ENDMDL
MODEL 2
REMARK VINA RESULT:      -7.9      2.142      2.830
REMARK  3 active torsions:
REMARK  status: ('A' for Active; 'I' for Inactive)
REMARK    1  A    between atoms: C_2  and  N_3 
REMARK       I    between atoms: N_3  and  C_4 
REMARK    2  A    between atoms: C_4  and  C_5 
REMARK    3  A    between atoms: C_5  and  C_6 
ROOT
HETATM    1  C   UNL     1     -43.000  55.857 -52.771  1.00  0.00     0.286 C 
HETATM    2  N   UNL     1     -41.794  56.572 -53.372  1.00  0.00    -0.056 N 
HETATM    3  H   UNL     1     -41.006  55.894 -53.286  1.00  0.00     0.278 HD
HETATM    4  H   UNL     1     -41.918  56.734 -54.379  1.00  0.00     0.278 HD
HETATM    5  C   UNL     1     -41.389  57.831 -52.660  1.00  0.00     0.209 C 
HETATM    6  C   UNL     1     -41.189  57.528 -51.154  1.00  0.00     0.115 C 
HETATM    7  N   UNL     1     -42.304  56.782 -50.569  1.00  0.00    -0.353 N 
HETATM    8  C   UNL     1     -42.950  55.764 -51.233  1.00  0.00     0.249 C 
HETATM    9  O   UNL     1     -43.540  54.894 -50.601  1.00  0.00    -0.271 OA
HETATM   10  C   UNL     1     -42.413  58.937 -52.925  1.00  0.00     0.035 C 
HETATM   11  C   UNL     1     -42.074  60.199 -52.137  1.00  0.00     0.002 C 
HETATM   12  C   UNL     1     -41.949  59.905 -50.644  1.00  0.00     0.002 C 
HETATM   13  C   UNL     1     -40.914  58.815 -50.368  1.00  0.00     0.027 C 
HETATM   14  H   UNL     1     -42.289  56.628 -49.563  1.00  0.00     0.163 HD
ENDROOT
BRANCH   1  15
HETATM   15  C   UNL     1     -43.204  54.480 -53.418  1.00  0.00     0.146 C 
BRANCH  15  16
HETATM   16  C   UNL     1     -42.323  54.317 -54.628  1.00  0.00     0.224 C 
HETATM   17  N   UNL     1     -41.190  53.568 -54.615  1.00  0.00    -0.327 N 
HETATM   18  H   UNL     1     -40.676  53.659 -55.488  1.00  0.00     0.169 HD
HETATM   19  O   UNL     1     -42.678  54.851 -55.689  1.00  0.00    -0.273 OA
BRANCH  17  20
HETATM   20  C   UNL     1     -40.599  52.704 -53.671  1.00  0.00     0.034 A 
HETATM   21  C   UNL     1     -40.346  53.009 -52.331  1.00  0.00     0.032 A 
HETATM   22  C   UNL     1     -39.779  52.053 -51.478  1.00  0.00     0.044 A 
HETATM   23  C   UNL     1     -39.469  50.789 -51.960  1.00  0.00     0.116 A 
HETATM   24  C   UNL     1     -39.718  50.459 -53.282  1.00  0.00     0.044 A 
HETATM   25  F   UNL     1     -38.933  49.881 -51.136  1.00  0.00    -0.206 F 
HETATM   26  C   UNL     1     -40.285  51.413 -54.132  1.00  0.00     0.032 A 
ENDBRANCH  17  20
ENDBRANCH  15  16
ENDBRANCH   1  15
TORSDOF 3
ENDMDL
MODEL 3
REMARK VINA RESULT:      -7.9      1.780      2.157
REMARK  3 active torsions:
REMARK  status: ('A' for Active; 'I' for Inactive)
REMARK    1  A    between atoms: C_2  and  N_3 
REMARK       I    between atoms: N_3  and  C_4 
REMARK    2  A    between atoms: C_4  and  C_5 
REMARK    3  A    between atoms: C_5  and  C_6 
ROOT
HETATM    1  C   UNL     1     -43.067  54.876 -51.877  1.00  0.00     0.286 C 
HETATM    2  N   UNL     1     -42.046  55.663 -52.693  1.00  0.00    -0.056 N 
HETATM    3  H   UNL     1     -41.398  56.076 -51.989  1.00  0.00     0.278 HD
HETATM    4  H   UNL     1     -41.473  55.041 -53.276  1.00  0.00     0.278 HD
HETATM    5  C   UNL     1     -42.622  56.793 -53.500  1.00  0.00     0.209 C 
HETATM    6  C   UNL     1     -43.454  57.713 -52.573  1.00  0.00     0.115 C 
HETATM    7  N   UNL     1     -44.394  56.974 -51.730  1.00  0.00    -0.353 N 
HETATM    8  C   UNL     1     -44.080  55.773 -51.137  1.00  0.00     0.249 C 
HETATM    9  O   UNL     1     -44.670  55.412 -50.124  1.00  0.00    -0.271 OA
HETATM   10  C   UNL     1     -43.421  56.240 -54.682  1.00  0.00     0.035 C 
HETATM   11  C   UNL     1     -44.093  57.366 -55.463  1.00  0.00     0.002 C 
HETATM   12  C   UNL     1     -44.969  58.226 -54.556  1.00  0.00     0.002 C 
HETATM   13  C   UNL     1     -44.174  58.798 -53.382  1.00  0.00     0.027 C 
HETATM   14  H   UNL     1     -45.043  57.518 -51.162  1.00  0.00     0.163 HD
ENDROOT
BRANCH   1  15
HETATM   15  C   UNL     1     -42.372  53.895 -50.923  1.00  0.00     0.146 C 
BRANCH  15  16
HETATM   16  C   UNL     1     -40.918  54.248 -50.751  1.00  0.00     0.224 C 
HETATM   17  N   UNL     1     -39.915  53.500 -51.279  1.00  0.00    -0.327 N 
HETATM   18  H   UNL     1     -39.004  53.835 -50.973  1.00  0.00     0.169 HD
HETATM   19  O   UNL     1     -40.636  55.291 -50.143  1.00  0.00    -0.273 OA
BRANCH  17  20
HETATM   20  C   UNL     1     -39.873  52.392 -52.149  1.00  0.00     0.034 A 
HETATM   21  C   UNL     1     -39.549  51.082 -51.786  1.00  0.00     0.032 A 
HETATM   22  C   UNL     1     -39.570  50.054 -52.738  1.00  0.00     0.044 A 
HETATM   23  C   UNL     1     -39.920  50.331 -54.051  1.00  0.00     0.116 A 
HETATM   24  C   UNL     1     -40.254  51.620 -54.434  1.00  0.00     0.044 A 
HETATM   25  F   UNL     1     -39.944  49.342 -54.952  1.00  0.00    -0.206 F 
HETATM   26  C   UNL     1     -40.235  52.645 -53.484  1.00  0.00     0.032 A 
ENDBRANCH  17  20
ENDBRANCH  15  16
ENDBRANCH   1  15
TORSDOF 3
ENDMDL
MODEL 4
REMARK VINA RESULT:      -7.5     14.679     16.935
REMARK  3 active torsions:
REMARK  status: ('A' for Active; 'I' for Inactive)
REMARK    1  A    between atoms: C_2  and  N_3 
REMARK       I    between atoms: N_3  and  C_4 
REMARK    2  A    between atoms: C_4  and  C_5 
REMARK    3  A    between atoms: C_5  and  C_6 
ROOT
HETATM    1  C   UNL     1     -34.484  40.867 -53.720  1.00  0.00     0.286 C 
HETATM    2  N   UNL     1     -34.362  41.748 -52.480  1.00  0.00    -0.056 N 
HETATM    3  H   UNL     1     -33.811  42.577 -52.790  1.00  0.00     0.278 HD
HETATM    4  H   UNL     1     -35.277  42.110 -52.187  1.00  0.00     0.278 HD
HETATM    5  C   UNL     1     -33.628  41.118 -51.331  1.00  0.00     0.209 C 
HETATM    6  C   UNL     1     -32.247  40.612 -51.819  1.00  0.00     0.115 C 
HETATM    7  N   UNL     1     -32.331  39.820 -53.046  1.00  0.00    -0.353 N 
HETATM    8  C   UNL     1     -33.173  40.143 -54.086  1.00  0.00     0.249 C 
HETATM    9  O   UNL     1     -32.919  39.765 -55.225  1.00  0.00    -0.271 OA
HETATM   10  C   UNL     1     -34.486  40.021 -50.697  1.00  0.00     0.035 C 
HETATM   11  C   UNL     1     -33.725  39.302 -49.586  1.00  0.00     0.002 C 
HETATM   12  C   UNL     1     -32.398  38.744 -50.093  1.00  0.00     0.002 C 
HETATM   13  C   UNL     1     -31.525  39.837 -50.711  1.00  0.00     0.027 C 
HETATM   14  H   UNL     1     -31.476  39.375 -53.376  1.00  0.00     0.163 HD
ENDROOT
BRANCH   1  15
HETATM   15  C   UNL     1     -35.046  41.662 -54.908  1.00  0.00     0.146 C 
BRANCH  15  16
HETATM   16  C   UNL     1     -36.456  42.114 -54.635  1.00  0.00     0.224 C 
HETATM   17  N   UNL     1     -37.419  42.127 -55.592  1.00  0.00    -0.327 N 
HETATM   18  H   UNL     1     -38.275  42.558 -55.249  1.00  0.00     0.169 HD
HETATM   19  O   UNL     1     -36.754  42.441 -53.477  1.00  0.00    -0.273 OA
BRANCH  17  20
HETATM   20  C   UNL     1     -37.484  41.669 -56.923  1.00  0.00     0.034 A 
HETATM   21  C   UNL     1     -36.960  42.328 -58.038  1.00  0.00     0.032 A 
HETATM   22  C   UNL     1     -37.059  41.756 -59.314  1.00  0.00     0.044 A 
HETATM   23  C   UNL     1     -37.677  40.525 -59.477  1.00  0.00     0.116 A 
HETATM   24  C   UNL     1     -38.196  39.848 -58.386  1.00  0.00     0.044 A 
HETATM   25  F   UNL     1     -37.762  39.984 -60.698  1.00  0.00    -0.206 F 
HETATM   26  C   UNL     1     -38.096  40.417 -57.114  1.00  0.00     0.032 A 
ENDBRANCH  17  20
ENDBRANCH  15  16
ENDBRANCH   1  15
TORSDOF 3
ENDMDL
MODEL 5
REMARK VINA RESULT:      -7.5      4.600      6.776
REMARK  3 active torsions:
REMARK  status: ('A' for Active; 'I' for Inactive)
REMARK    1  A    between atoms: C_2  and  N_3 
REMARK       I    between atoms: N_3  and  C_4 
REMARK    2  A    between atoms: C_4  and  C_5 
REMARK    3  A    between atoms: C_5  and  C_6 
ROOT
HETATM    1  C   UNL     1     -41.055  54.716 -54.070  1.00  0.00     0.286 C 
HETATM    2  N   UNL     1     -41.659  53.529 -53.325  1.00  0.00    -0.056 N 
HETATM    3  H   UNL     1     -42.673  53.544 -53.568  1.00  0.00     0.278 HD
HETATM    4  H   UNL     1     -41.295  52.638 -53.683  1.00  0.00     0.278 HD
HETATM    5  C   UNL     1     -41.550  53.605 -51.828  1.00  0.00     0.209 C 
HETATM    6  C   UNL     1     -42.135  54.953 -51.338  1.00  0.00     0.115 C 
HETATM    7  N   UNL     1     -41.621  56.102 -52.084  1.00  0.00    -0.353 N 
HETATM    8  C   UNL     1     -41.418  56.078 -53.445  1.00  0.00     0.249 C 
HETATM    9  O   UNL     1     -41.426  57.122 -54.088  1.00  0.00    -0.271 OA
HETATM   10  C   UNL     1     -40.100  53.379 -51.395  1.00  0.00     0.035 C 
HETATM   11  C   UNL     1     -39.946  53.543 -49.886  1.00  0.00     0.002 C 
HETATM   12  C   UNL     1     -40.459  54.904 -49.420  1.00  0.00     0.002 C 
HETATM   13  C   UNL     1     -41.914  55.130 -49.832  1.00  0.00     0.027 C 
HETATM   14  H   UNL     1     -41.887  57.030 -51.757  1.00  0.00     0.163 HD
ENDROOT
BRANCH   1  15
HETATM   15  C   UNL     1     -41.405  54.664 -55.564  1.00  0.00     0.146 C 
BRANCH  15  16
HETATM   16  C   UNL     1     -42.893  54.749 -55.773  1.00  0.00     0.224 C 
HETATM   17  N   UNL     1     -43.459  55.579 -56.686  1.00  0.00    -0.327 N 
HETATM   18  H   UNL     1     -44.474  55.573 -56.613  1.00  0.00     0.169 HD
HETATM   19  O   UNL     1     -43.622  53.991 -55.115  1.00  0.00    -0.273 OA
BRANCH  17  20
HETATM   20  C   UNL     1     -42.948  56.417 -57.698  1.00  0.00     0.034 A 
HETATM   21  C   UNL     1     -42.418  57.696 -57.506  1.00  0.00     0.032 A 
HETATM   22  C   UNL     1     -41.909  58.424 -58.589  1.00  0.00     0.044 A 
HETATM   23  C   UNL     1     -41.924  57.877 -59.864  1.00  0.00     0.116 A 
HETATM   24  C   UNL     1     -42.436  56.608 -60.078  1.00  0.00     0.044 A 
HETATM   25  F   UNL     1     -41.431  58.578 -60.891  1.00  0.00    -0.206 F 
HETATM   26  C   UNL     1     -42.942  55.880 -58.997  1.00  0.00     0.032 A 
ENDBRANCH  17  20
ENDBRANCH  15  16
ENDBRANCH   1  15
TORSDOF 3
ENDMDL
MODEL 6
REMARK VINA RESULT:      -7.4      3.178      3.618
REMARK  3 active torsions:
REMARK  status: ('A' for Active; 'I' for Inactive)
REMARK    1  A    between atoms: C_2  and  N_3 
REMARK       I    between atoms: N_3  and  C_4 
REMARK    2  A    between atoms: C_4  and  C_5 
REMARK    3  A    between atoms: C_5  and  C_6 
ROOT
HETATM    1  C   UNL     1     -43.254  55.235 -54.171  1.00  0.00     0.286 C 
HETATM    2  N   UNL     1     -42.004  55.293 -55.043  1.00  0.00    -0.056 N 
HETATM    3  H   UNL     1     -41.291  55.787 -54.463  1.00  0.00     0.278 HD
HETATM    4  H   UNL     1     -41.625  54.354 -55.218  1.00  0.00     0.278 HD
HETATM    5  C   UNL     1     -42.163  56.066 -56.321  1.00  0.00     0.209 C 
HETATM    6  C   UNL     1     -42.711  57.480 -56.001  1.00  0.00     0.115 C 
HETATM    7  N   UNL     1     -43.871  57.454 -55.110  1.00  0.00    -0.353 N 
HETATM    8  C   UNL     1     -43.971  56.594 -54.040  1.00  0.00     0.249 C 
HETATM    9  O   UNL     1     -44.690  56.877 -53.087  1.00  0.00    -0.271 OA
HETATM   10  C   UNL     1     -43.040  55.284 -57.302  1.00  0.00     0.035 C 
HETATM   11  C   UNL     1     -43.294  56.090 -58.573  1.00  0.00     0.002 C 
HETATM   12  C   UNL     1     -43.900  57.454 -58.254  1.00  0.00     0.002 C 
HETATM   13  C   UNL     1     -43.022  58.250 -57.289  1.00  0.00     0.027 C 
HETATM   14  H   UNL     1     -44.344  58.338 -54.930  1.00  0.00     0.163 HD
ENDROOT
BRANCH   1  15
HETATM   15  C   UNL     1     -42.941  54.623 -52.798  1.00  0.00     0.146 C 
BRANCH  15  16
HETATM   16  C   UNL     1     -41.619  55.119 -52.275  1.00  0.00     0.224 C 
HETATM   17  N   UNL     1     -40.540  54.308 -52.123  1.00  0.00    -0.327 N 
HETATM   18  H   UNL     1     -39.773  54.795 -51.664  1.00  0.00     0.169 HD
HETATM   19  O   UNL     1     -41.504  56.327 -52.021  1.00  0.00    -0.273 OA
BRANCH  17  20
HETATM   20  C   UNL     1     -40.264  52.971 -52.471  1.00  0.00     0.034 A 
HETATM   21  C   UNL     1     -40.285  52.443 -53.764  1.00  0.00     0.032 A 
HETATM   22  C   UNL     1     -39.961  51.099 -53.990  1.00  0.00     0.044 A 
HETATM   23  C   UNL     1     -39.611  50.280 -52.926  1.00  0.00     0.116 A 
HETATM   24  C   UNL     1     -39.575  50.781 -51.635  1.00  0.00     0.044 A 
HETATM   25  F   UNL     1     -39.299  48.999 -53.152  1.00  0.00    -0.206 F 
HETATM   26  C   UNL     1     -39.896  52.123 -51.410  1.00  0.00     0.032 A 
ENDBRANCH  17  20
ENDBRANCH  15  16
ENDBRANCH   1  15
TORSDOF 3
ENDMDL
MODEL 7
REMARK VINA RESULT:      -7.3      2.875      3.936
REMARK  3 active torsions:
REMARK  status: ('A' for Active; 'I' for Inactive)
REMARK    1  A    between atoms: C_2  and  N_3 
REMARK       I    between atoms: N_3  and  C_4 
REMARK    2  A    between atoms: C_4  and  C_5 
REMARK    3  A    between atoms: C_5  and  C_6 
ROOT
HETATM    1  C   UNL     1     -41.902  57.406 -53.178  1.00  0.00     0.286 C 
HETATM    2  N   UNL     1     -43.266  56.749 -53.371  1.00  0.00    -0.056 N 
HETATM    3  H   UNL     1     -43.361  56.619 -54.401  1.00  0.00     0.278 HD
HETATM    4  H   UNL     1     -43.289  55.807 -52.963  1.00  0.00     0.278 HD
HETATM    5  C   UNL     1     -44.433  57.575 -52.908  1.00  0.00     0.209 C 
HETATM    6  C   UNL     1     -44.366  58.974 -53.570  1.00  0.00     0.115 C 
HETATM    7  N   UNL     1     -43.046  59.596 -53.457  1.00  0.00    -0.353 N 
HETATM    8  C   UNL     1     -41.874  58.889 -53.597  1.00  0.00     0.249 C 
HETATM    9  O   UNL     1     -40.845  59.463 -53.939  1.00  0.00    -0.271 OA
HETATM   10  C   UNL     1     -44.465  57.629 -51.379  1.00  0.00     0.035 C 
HETATM   11  C   UNL     1     -45.586  58.539 -50.885  1.00  0.00     0.002 C 
HETATM   12  C   UNL     1     -45.472  59.937 -51.487  1.00  0.00     0.002 C 
HETATM   13  C   UNL     1     -45.458  59.895 -53.015  1.00  0.00     0.027 C 
HETATM   14  H   UNL     1     -42.951  60.556 -53.785  1.00  0.00     0.163 HD
ENDROOT
BRANCH   1  15
HETATM   15  C   UNL     1     -40.798  56.597 -53.874  1.00  0.00     0.146 C 
BRANCH  15  16
HETATM   16  C   UNL     1     -41.380  55.660 -54.899  1.00  0.00     0.224 C 
HETATM   17  N   UNL     1     -41.237  54.312 -54.825  1.00  0.00    -0.327 N 
HETATM   18  H   UNL     1     -41.607  53.854 -55.655  1.00  0.00     0.169 HD
HETATM   19  O   UNL     1     -42.056  56.144 -55.818  1.00  0.00    -0.273 OA
BRANCH  17  20
HETATM   20  C   UNL     1     -40.708  53.435 -53.856  1.00  0.00     0.034 A 
HETATM   21  C   UNL     1     -40.778  53.611 -52.472  1.00  0.00     0.032 A 
HETATM   22  C   UNL     1     -40.239  52.651 -51.605  1.00  0.00     0.044 A 
HETATM   23  C   UNL     1     -39.633  51.513 -52.118  1.00  0.00     0.116 A 
HETATM   24  C   UNL     1     -39.559  51.312 -53.486  1.00  0.00     0.044 A 
HETATM   25  F   UNL     1     -39.126  50.600 -51.282  1.00  0.00    -0.206 F 
HETATM   26  C   UNL     1     -40.098  52.268 -54.351  1.00  0.00     0.032 A 
ENDBRANCH  17  20
ENDBRANCH  15  16
ENDBRANCH   1  15
TORSDOF 3
ENDMDL
MODEL 8
REMARK VINA RESULT:      -7.3     14.648     17.366
REMARK  3 active torsions:
REMARK  status: ('A' for Active; 'I' for Inactive)
REMARK    1  A    between atoms: C_2  and  N_3 
REMARK       I    between atoms: N_3  and  C_4 
REMARK    2  A    between atoms: C_4  and  C_5 
REMARK    3  A    between atoms: C_5  and  C_6 
ROOT
HETATM    1  C   UNL     1     -34.759  39.908 -53.966  1.00  0.00     0.286 C 
HETATM    2  N   UNL     1     -33.734  40.911 -54.485  1.00  0.00    -0.056 N 
HETATM    3  H   UNL     1     -34.281  41.578 -55.071  1.00  0.00     0.278 HD
HETATM    4  H   UNL     1     -33.334  41.468 -53.720  1.00  0.00     0.278 HD
HETATM    5  C   UNL     1     -32.659  40.320 -55.353  1.00  0.00     0.209 C 
HETATM    6  C   UNL     1     -33.313  39.514 -56.503  1.00  0.00     0.115 C 
HETATM    7  N   UNL     1     -34.349  38.592 -56.037  1.00  0.00    -0.353 N 
HETATM    8  C   UNL     1     -35.245  38.917 -55.044  1.00  0.00     0.249 C 
HETATM    9  O   UNL     1     -36.331  38.351 -54.983  1.00  0.00    -0.271 OA
HETATM   10  C   UNL     1     -31.695  39.490 -54.503  1.00  0.00     0.035 C 
HETATM   11  C   UNL     1     -30.648  38.803 -55.374  1.00  0.00     0.002 C 
HETATM   12  C   UNL     1     -31.300  37.953 -56.461  1.00  0.00     0.002 C 
HETATM   13  C   UNL     1     -32.252  38.778 -57.328  1.00  0.00     0.027 C 
HETATM   14  H   UNL     1     -34.758  37.960 -56.723  1.00  0.00     0.163 HD
ENDROOT
BRANCH   1  15
HETATM   15  C   UNL     1     -35.933  40.623 -53.281  1.00  0.00     0.146 C 
BRANCH  15  16
HETATM   16  C   UNL     1     -35.966  42.082 -53.651  1.00  0.00     0.224 C 
HETATM   17  N   UNL     1     -36.342  42.517 -54.881  1.00  0.00    -0.327 N 
HETATM   18  H   UNL     1     -36.204  43.520 -54.977  1.00  0.00     0.169 HD
HETATM   19  O   UNL     1     -35.684  42.915 -52.778  1.00  0.00    -0.273 OA
BRANCH  17  20
HETATM   20  C   UNL     1     -36.882  41.886 -56.021  1.00  0.00     0.034 A 
HETATM   21  C   UNL     1     -38.113  41.229 -56.082  1.00  0.00     0.032 A 
HETATM   22  C   UNL     1     -38.559  40.664 -57.285  1.00  0.00     0.044 A 
HETATM   23  C   UNL     1     -37.779  40.758 -58.428  1.00  0.00     0.116 A 
HETATM   24  C   UNL     1     -36.558  41.412 -58.394  1.00  0.00     0.044 A 
HETATM   25  F   UNL     1     -38.215  40.220 -59.572  1.00  0.00    -0.206 F 
HETATM   26  C   UNL     1     -36.115  41.977 -57.196  1.00  0.00     0.032 A 
ENDBRANCH  17  20
ENDBRANCH  15  16
ENDBRANCH   1  15
TORSDOF 3
ENDMDL
MODEL 9
REMARK VINA RESULT:      -7.3      2.601      6.186
REMARK  3 active torsions:
REMARK  status: ('A' for Active; 'I' for Inactive)
REMARK    1  A    between atoms: C_2  and  N_3 
REMARK       I    between atoms: N_3  and  C_4 
REMARK    2  A    between atoms: C_4  and  C_5 
REMARK    3  A    between atoms: C_5  and  C_6 
ROOT
HETATM    1  C   UNL     1     -42.028  53.710 -51.097  1.00  0.00     0.286 C 
HETATM    2  N   UNL     1     -40.508  53.622 -51.003  1.00  0.00    -0.056 N 
HETATM    3  H   UNL     1     -40.170  54.597 -51.154  1.00  0.00     0.278 HD
HETATM    4  H   UNL     1     -40.205  53.362 -50.056  1.00  0.00     0.278 HD
HETATM    5  C   UNL     1     -39.863  52.751 -52.044  1.00  0.00     0.209 C 
HETATM    6  C   UNL     1     -40.330  53.200 -53.450  1.00  0.00     0.115 C 
HETATM    7  N   UNL     1     -41.781  53.358 -53.546  1.00  0.00    -0.353 N 
HETATM    8  C   UNL     1     -42.540  53.906 -52.537  1.00  0.00     0.249 C 
HETATM    9  O   UNL     1     -43.622  54.425 -52.792  1.00  0.00    -0.271 OA
HETATM   10  C   UNL     1     -40.154  51.277 -51.749  1.00  0.00     0.035 C 
HETATM   11  C   UNL     1     -39.588  50.377 -52.844  1.00  0.00     0.002 C 
HETATM   12  C   UNL     1     -40.110  50.782 -54.220  1.00  0.00     0.002 C 
HETATM   13  C   UNL     1     -39.806  52.248 -54.531  1.00  0.00     0.027 C 
HETATM   14  H   UNL     1     -42.171  53.559 -54.465  1.00  0.00     0.163 HD
ENDROOT
BRANCH   1  15
HETATM   15  C   UNL     1     -42.577  54.784 -50.146  1.00  0.00     0.146 C 
BRANCH  15  16
HETATM   16  C   UNL     1     -41.476  55.687 -49.659  1.00  0.00     0.224 C 
HETATM   17  N   UNL     1     -41.059  56.776 -50.355  1.00  0.00    -0.327 N 
HETATM   18  H   UNL     1     -40.243  57.202 -49.921  1.00  0.00     0.169 HD
HETATM   19  O   UNL     1     -40.968  55.449 -48.553  1.00  0.00    -0.273 OA
BRANCH  17  20
HETATM   20  C   UNL     1     -41.517  57.430 -51.516  1.00  0.00     0.034 A 
HETATM   21  C   UNL     1     -41.091  57.168 -52.821  1.00  0.00     0.032 A 
HETATM   22  C   UNL     1     -41.644  57.866 -53.903  1.00  0.00     0.044 A 
HETATM   23  C   UNL     1     -42.625  58.822 -53.686  1.00  0.00     0.116 A 
HETATM   24  C   UNL     1     -43.070  59.094 -52.402  1.00  0.00     0.044 A 
HETATM   25  F   UNL     1     -43.151  59.479 -54.726  1.00  0.00    -0.206 F 
HETATM   26  C   UNL     1     -42.520  58.396 -51.323  1.00  0.00     0.032 A 
ENDBRANCH  17  20
ENDBRANCH  15  16
ENDBRANCH   1  15
TORSDOF 3
ENDMDL
MODEL 10
REMARK VINA RESULT:      -7.2      2.546      3.582
REMARK  3 active torsions:
REMARK  status: ('A' for Active; 'I' for Inactive)
REMARK    1  A    between atoms: C_2  and  N_3 
REMARK       I    between atoms: N_3  and  C_4 
REMARK    2  A    between atoms: C_4  and  C_5 
REMARK    3  A    between atoms: C_5  and  C_6 
ROOT
HETATM    1  C   UNL     1     -41.289  57.365 -53.740  1.00  0.00     0.286 C 
HETATM    2  N   UNL     1     -42.036  56.916 -52.488  1.00  0.00    -0.056 N 
HETATM    3  H   UNL     1     -42.985  56.640 -52.822  1.00  0.00     0.278 HD
HETATM    4  H   UNL     1     -41.620  56.067 -52.087  1.00  0.00     0.278 HD
HETATM    5  C   UNL     1     -42.215  57.983 -51.445  1.00  0.00     0.209 C 
HETATM    6  C   UNL     1     -42.868  59.229 -52.092  1.00  0.00     0.115 C 
HETATM    7  N   UNL     1     -42.210  59.639 -53.333  1.00  0.00    -0.353 N 
HETATM    8  C   UNL     1     -41.751  58.739 -54.266  1.00  0.00     0.249 C 
HETATM    9  O   UNL     1     -41.625  59.076 -55.439  1.00  0.00    -0.271 OA
HETATM   10  C   UNL     1     -40.876  58.283 -50.766  1.00  0.00     0.035 C 
HETATM   11  C   UNL     1     -41.012  59.429 -49.768  1.00  0.00     0.002 C 
HETATM   12  C   UNL     1     -41.590  60.677 -50.430  1.00  0.00     0.002 C 
HETATM   13  C   UNL     1     -42.937  60.391 -51.095  1.00  0.00     0.027 C 
HETATM   14  H   UNL     1     -42.524  60.506 -53.766  1.00  0.00     0.163 HD
ENDROOT
BRANCH   1  15
HETATM   15  C   UNL     1     -41.347  56.288 -54.832  1.00  0.00     0.146 C 
BRANCH  15  16
HETATM   16  C   UNL     1     -42.607  55.471 -54.718  1.00  0.00     0.224 C 
HETATM   17  N   UNL     1     -42.613  54.195 -54.254  1.00  0.00    -0.327 N 
HETATM   18  H   UNL     1     -43.535  53.773 -54.346  1.00  0.00     0.169 HD
HETATM   19  O   UNL     1     -43.683  56.009 -55.016  1.00  0.00    -0.273 OA
BRANCH  17  20
HETATM   20  C   UNL     1     -41.637  53.358 -53.676  1.00  0.00     0.034 A 
HETATM   21  C   UNL     1     -40.878  52.402 -54.354  1.00  0.00     0.032 A 
HETATM   22  C   UNL     1     -39.912  51.648 -53.674  1.00  0.00     0.044 A 
HETATM   23  C   UNL     1     -39.700  51.850 -52.318  1.00  0.00     0.116 A 
HETATM   24  C   UNL     1     -40.434  52.798 -51.625  1.00  0.00     0.044 A 
HETATM   25  F   UNL     1     -38.772  51.129 -51.679  1.00  0.00    -0.206 F 
HETATM   26  C   UNL     1     -41.396  53.552 -52.304  1.00  0.00     0.032 A 
ENDBRANCH  17  20
ENDBRANCH  15  16
ENDBRANCH   1  15
TORSDOF 3
ENDMDL
