MODEL 1
REMARK VINA RESULT:      -7.7      0.000      0.000
REMARK  11 active torsions:
REMARK  status: ('A' for Active; 'I' for Inactive)
REMARK    1  A    between atoms: C_2  and  O_3 
REMARK    2  A    between atoms: O_3  and  C_4 
REMARK    3  A    between atoms: C_5  and  O_6 
REMARK    4  A    between atoms: C_9  and  C_10 
REMARK    5  A    between atoms: N_11  and  C_12 
REMARK    6  A    between atoms: C_12  and  C_13 
REMARK    7  A    between atoms: C_13  and  C_14 
REMARK    8  A    between atoms: C_14  and  N_15 
REMARK    9  A    between atoms: C_24  and  O_25 
REMARK   10  A    between atoms: C_26  and  C_27 
REMARK   11  A    between atoms: C_27  and  C_28 
ROOT
HETATM    1  C   UNL     1     -44.641  57.355 -53.856  1.00  0.00     0.161 C 
HETATM    2  N   UNL     1     -45.014  58.377 -54.830  1.00  0.00    -0.333 N 
HETATM    3  C   UNL     1     -44.947  59.642 -54.295  1.00  0.00     0.278 C 
HETATM    4  O   UNL     1     -45.309  60.682 -54.826  1.00  0.00    -0.265 OA
HETATM    5  C   UNL     1     -44.633  59.503 -52.860  1.00  0.00     0.146 C 
HETATM    6  C   UNL     1     -44.611  58.189 -52.601  1.00  0.00     0.059 C 
ENDROOT
BRANCH   1   7
HETATM    7  C   UNL     1     -43.321  56.696 -54.233  1.00  0.00    -0.028 A 
HETATM    8  C   UNL     1     -42.179  57.454 -54.569  1.00  0.00     0.012 A 
HETATM    9  C   UNL     1     -40.981  56.834 -54.920  1.00  0.00     0.040 A 
HETATM   10  C   UNL     1     -40.916  55.451 -54.950  1.00  0.00     0.099 A 
HETATM   11  C   UNL     1     -42.022  54.664 -54.621  1.00  0.00     0.102 A 
HETATM   12  C   UNL     1     -43.225  55.288 -54.275  1.00  0.00     0.049 A 
BRANCH  10  13
HETATM   13  O   UNL     1     -39.729  54.870 -55.298  1.00  0.00    -0.358 OA
HETATM   14  H   UNL     1     -39.252  55.545 -55.817  1.00  0.00     0.218 HD
ENDBRANCH  10  13
BRANCH  11  15
HETATM   15  O   UNL     1     -41.808  53.313 -54.702  1.00  0.00    -0.349 OA
BRANCH  15  16
HETATM   16  C   UNL     1     -41.278  52.677 -53.541  1.00  0.00     0.171 C 
HETATM   17  C   UNL     1     -40.253  51.657 -54.006  1.00  0.00     0.034 C 
ENDBRANCH  15  16
ENDBRANCH  11  15
ENDBRANCH   1   7
BRANCH   2  18
HETATM   18  C   UNL     1     -45.689  58.083 -56.081  1.00  0.00     0.129 C 
BRANCH  18  19
HETATM   19  C   UNL     1     -44.849  58.421 -57.321  1.00  0.00     0.048 C 
BRANCH  19  20
HETATM   20  C   UNL     1     -44.060  57.278 -57.968  1.00  0.00     0.236 C 
BRANCH  20  21
HETATM   21  N   UNL     1     -44.887  56.379 -58.849  1.00  0.00    -0.067 N 
HETATM   22  H   UNL     1     -45.465  55.765 -58.238  1.00  0.00     0.280 HD
HETATM   23  C   UNL     1     -45.795  57.126 -59.815  1.00  0.00     0.261 C 
HETATM   24  C   UNL     1     -46.559  56.136 -60.702  1.00  0.00     0.195 C 
HETATM   25  O   UNL     1     -45.661  55.269 -61.403  1.00  0.00    -0.388 OA
HETATM   26  C   UNL     1     -44.878  54.488 -60.495  1.00  0.00     0.195 C 
HETATM   27  C   UNL     1     -44.003  55.395 -59.625  1.00  0.00     0.261 C 
ENDBRANCH  20  21
ENDBRANCH  19  20
ENDBRANCH  18  19
ENDBRANCH   2  18
BRANCH   6  28
HETATM   28  C   UNL     1     -44.595  57.490 -51.298  1.00  0.00     0.193 C 
HETATM   29  O   UNL     1     -45.481  57.709 -50.479  1.00  0.00    -0.287 OA
BRANCH  28  30
HETATM   30  C   UNL     1     -43.465  56.610 -50.926  1.00  0.00     0.015 A 
HETATM   31  C   UNL     1     -43.648  55.240 -50.696  1.00  0.00     0.016 A 
HETATM   32  C   UNL     1     -42.557  54.435 -50.365  1.00  0.00     0.007 A 
HETATM   33  C   UNL     1     -41.273  54.985 -50.281  1.00  0.00    -0.062 A 
HETATM   34  C   UNL     1     -40.094  54.118 -49.945  1.00  0.00     0.048 C 
HETATM   35  C   UNL     1     -41.088  56.342 -50.574  1.00  0.00     0.007 A 
HETATM   36  C   UNL     1     -42.179  57.152 -50.899  1.00  0.00     0.016 A 
ENDBRANCH  28  30
ENDBRANCH   6  28
BRANCH   5  37
HETATM   37  O   UNL     1     -44.582  60.558 -52.005  1.00  0.00    -0.355 OA
HETATM   38  H   UNL     1     -43.789  61.083 -52.233  1.00  0.00     0.218 HD
ENDBRANCH   5  37
TORSDOF 11
ENDMDL
MODEL 2
REMARK VINA RESULT:      -7.6      2.638      6.931
REMARK  11 active torsions:
REMARK  status: ('A' for Active; 'I' for Inactive)
REMARK    1  A    between atoms: C_2  and  O_3 
REMARK    2  A    between atoms: O_3  and  C_4 
REMARK    3  A    between atoms: C_5  and  O_6 
REMARK    4  A    between atoms: C_9  and  C_10 
REMARK    5  A    between atoms: N_11  and  C_12 
REMARK    6  A    between atoms: C_12  and  C_13 
REMARK    7  A    between atoms: C_13  and  C_14 
REMARK    8  A    between atoms: C_14  and  N_15 
REMARK    9  A    between atoms: C_24  and  O_25 
REMARK   10  A    between atoms: C_26  and  C_27 
REMARK   11  A    between atoms: C_27  and  C_28 
ROOT
HETATM    1  C   UNL     1     -41.775  55.991 -54.333  1.00  0.00     0.161 C 
HETATM    2  N   UNL     1     -42.180  56.811 -53.195  1.00  0.00    -0.333 N 
HETATM    3  C   UNL     1     -43.548  56.913 -53.100  1.00  0.00     0.278 C 
HETATM    4  O   UNL     1     -44.178  57.622 -52.328  1.00  0.00    -0.265 OA
HETATM    5  C   UNL     1     -44.128  56.243 -54.280  1.00  0.00     0.146 C 
HETATM    6  C   UNL     1     -43.097  55.856 -55.043  1.00  0.00     0.059 C 
ENDROOT
BRANCH   1   7
HETATM    7  C   UNL     1     -41.147  54.683 -53.868  1.00  0.00    -0.028 A 
HETATM    8  C   UNL     1     -40.474  53.822 -54.760  1.00  0.00     0.012 A 
HETATM    9  C   UNL     1     -39.913  52.625 -54.318  1.00  0.00     0.040 A 
HETATM   10  C   UNL     1     -40.029  52.273 -52.984  1.00  0.00     0.099 A 
HETATM   11  C   UNL     1     -40.683  53.099 -52.068  1.00  0.00     0.102 A 
HETATM   12  C   UNL     1     -41.252  54.296 -52.514  1.00  0.00     0.049 A 
BRANCH  10  13
HETATM   13  O   UNL     1     -39.469  51.093 -52.578  1.00  0.00    -0.358 OA
HETATM   14  H   UNL     1     -39.820  50.934 -51.681  1.00  0.00     0.218 HD
ENDBRANCH  10  13
BRANCH  11  15
HETATM   15  O   UNL     1     -40.722  52.615 -50.787  1.00  0.00    -0.349 OA
BRANCH  15  16
HETATM   16  C   UNL     1     -40.853  53.575 -49.741  1.00  0.00     0.171 C 
HETATM   17  C   UNL     1     -39.492  54.219 -49.538  1.00  0.00     0.034 C 
ENDBRANCH  15  16
ENDBRANCH  11  15
ENDBRANCH   1   7
BRANCH   2  18
HETATM   18  C   UNL     1     -41.271  57.678 -52.468  1.00  0.00     0.129 C 
BRANCH  18  19
HETATM   19  C   UNL     1     -40.790  58.882 -53.290  1.00  0.00     0.048 C 
BRANCH  19  20
HETATM   20  C   UNL     1     -41.796  60.011 -53.537  1.00  0.00     0.236 C 
BRANCH  20  21
HETATM   21  N   UNL     1     -42.788  60.209 -52.421  1.00  0.00    -0.067 N 
HETATM   22  H   UNL     1     -43.253  59.297 -52.232  1.00  0.00     0.280 HD
HETATM   23  C   UNL     1     -42.172  60.735 -51.132  1.00  0.00     0.261 C 
HETATM   24  C   UNL     1     -43.257  60.952 -50.072  1.00  0.00     0.195 C 
HETATM   25  O   UNL     1     -44.281  61.830 -50.551  1.00  0.00    -0.388 OA
HETATM   26  C   UNL     1     -44.934  61.287 -51.703  1.00  0.00     0.195 C 
HETATM   27  C   UNL     1     -43.940  61.123 -52.856  1.00  0.00     0.261 C 
ENDBRANCH  20  21
ENDBRANCH  19  20
ENDBRANCH  18  19
ENDBRANCH   2  18
BRANCH   6  28
HETATM   28  C   UNL     1     -43.095  55.369 -56.439  1.00  0.00     0.193 C 
HETATM   29  O   UNL     1     -43.268  54.176 -56.668  1.00  0.00    -0.287 OA
BRANCH  28  30
HETATM   30  C   UNL     1     -42.781  56.284 -57.559  1.00  0.00     0.015 A 
HETATM   31  C   UNL     1     -42.925  55.884 -58.893  1.00  0.00     0.016 A 
HETATM   32  C   UNL     1     -42.637  56.780 -59.926  1.00  0.00     0.007 A 
HETATM   33  C   UNL     1     -42.224  58.085 -59.634  1.00  0.00    -0.062 A 
HETATM   34  C   UNL     1     -41.934  59.056 -60.741  1.00  0.00     0.048 C 
HETATM   35  C   UNL     1     -42.144  58.496 -58.298  1.00  0.00     0.007 A 
HETATM   36  C   UNL     1     -42.425  57.601 -57.262  1.00  0.00     0.016 A 
ENDBRANCH  28  30
ENDBRANCH   6  28
BRANCH   5  37
HETATM   37  O   UNL     1     -45.460  56.235 -54.550  1.00  0.00    -0.355 OA
HETATM   38  H   UNL     1     -45.886  56.874 -53.945  1.00  0.00     0.218 HD
ENDBRANCH   5  37
TORSDOF 11
ENDMDL
MODEL 3
REMARK VINA RESULT:      -7.6      2.370      5.964
REMARK  11 active torsions:
REMARK  status: ('A' for Active; 'I' for Inactive)
REMARK    1  A    between atoms: C_2  and  O_3 
REMARK    2  A    between atoms: O_3  and  C_4 
REMARK    3  A    between atoms: C_5  and  O_6 
REMARK    4  A    between atoms: C_9  and  C_10 
REMARK    5  A    between atoms: N_11  and  C_12 
REMARK    6  A    between atoms: C_12  and  C_13 
REMARK    7  A    between atoms: C_13  and  C_14 
REMARK    8  A    between atoms: C_14  and  N_15 
REMARK    9  A    between atoms: C_24  and  O_25 
REMARK   10  A    between atoms: C_26  and  C_27 
REMARK   11  A    between atoms: C_27  and  C_28 
ROOT
HETATM    1  C   UNL     1     -43.390  58.125 -55.414  1.00  0.00     0.161 C 
HETATM    2  N   UNL     1     -42.951  59.447 -54.975  1.00  0.00    -0.333 N 
HETATM    3  C   UNL     1     -41.985  59.366 -54.000  1.00  0.00     0.278 C 
HETATM    4  O   UNL     1     -41.512  60.294 -53.359  1.00  0.00    -0.265 OA
HETATM    5  C   UNL     1     -41.821  57.942 -53.652  1.00  0.00     0.146 C 
HETATM    6  C   UNL     1     -42.735  57.268 -54.362  1.00  0.00     0.059 C 
ENDROOT
BRANCH   1   7
HETATM    7  C   UNL     1     -42.948  57.851 -56.846  1.00  0.00    -0.028 A 
HETATM    8  C   UNL     1     -42.129  58.752 -57.558  1.00  0.00     0.012 A 
HETATM    9  C   UNL     1     -41.741  58.489 -58.871  1.00  0.00     0.040 A 
HETATM   10  C   UNL     1     -42.177  57.329 -59.487  1.00  0.00     0.099 A 
HETATM   11  C   UNL     1     -42.986  56.408 -58.817  1.00  0.00     0.102 A 
HETATM   12  C   UNL     1     -43.380  56.677 -57.502  1.00  0.00     0.049 A 
BRANCH  10  13
HETATM   13  O   UNL     1     -41.783  57.097 -60.775  1.00  0.00    -0.358 OA
HETATM   14  H   UNL     1     -41.598  57.978 -61.153  1.00  0.00     0.218 HD
ENDBRANCH  10  13
BRANCH  11  15
HETATM   15  O   UNL     1     -43.342  55.313 -59.558  1.00  0.00    -0.349 OA
BRANCH  15  16
HETATM   16  C   UNL     1     -44.737  55.092 -59.749  1.00  0.00     0.171 C 
HETATM   17  C   UNL     1     -44.985  54.994 -61.244  1.00  0.00     0.034 C 
ENDBRANCH  15  16
ENDBRANCH  11  15
ENDBRANCH   1   7
BRANCH   2  18
HETATM   18  C   UNL     1     -43.672  60.670 -55.274  1.00  0.00     0.129 C 
BRANCH  18  19
HETATM   19  C   UNL     1     -45.025  60.771 -54.557  1.00  0.00     0.048 C 
BRANCH  19  20
HETATM   20  C   UNL     1     -45.067  61.564 -53.246  1.00  0.00     0.236 C 
BRANCH  20  21
HETATM   21  N   UNL     1     -44.931  60.718 -52.008  1.00  0.00    -0.067 N 
HETATM   22  H   UNL     1     -43.919  60.647 -51.770  1.00  0.00     0.280 HD
HETATM   23  C   UNL     1     -45.692  61.256 -50.804  1.00  0.00     0.261 C 
HETATM   24  C   UNL     1     -45.537  60.309 -49.609  1.00  0.00     0.195 C 
HETATM   25  O   UNL     1     -45.963  58.983 -49.938  1.00  0.00    -0.388 OA
HETATM   26  C   UNL     1     -45.178  58.435 -51.002  1.00  0.00     0.195 C 
HETATM   27  C   UNL     1     -45.346  59.266 -52.277  1.00  0.00     0.261 C 
ENDBRANCH  20  21
ENDBRANCH  19  20
ENDBRANCH  18  19
ENDBRANCH   2  18
BRANCH   6  28
HETATM   28  C   UNL     1     -43.182  55.866 -54.224  1.00  0.00     0.193 C 
HETATM   29  O   UNL     1     -44.380  55.614 -54.136  1.00  0.00    -0.287 OA
BRANCH  28  30
HETATM   30  C   UNL     1     -42.199  54.769 -54.084  1.00  0.00     0.015 A 
HETATM   31  C   UNL     1     -41.268  54.486 -55.091  1.00  0.00     0.016 A 
HETATM   32  C   UNL     1     -40.342  53.455 -54.918  1.00  0.00     0.007 A 
HETATM   33  C   UNL     1     -40.325  52.714 -53.732  1.00  0.00    -0.062 A 
HETATM   34  C   UNL     1     -39.317  51.619 -53.533  1.00  0.00     0.048 C 
HETATM   35  C   UNL     1     -41.217  53.044 -52.704  1.00  0.00     0.007 A 
HETATM   36  C   UNL     1     -42.149  54.070 -52.876  1.00  0.00     0.016 A 
ENDBRANCH  28  30
ENDBRANCH   6  28
BRANCH   5  37
HETATM   37  O   UNL     1     -41.005  57.510 -52.653  1.00  0.00    -0.355 OA
HETATM   38  H   UNL     1     -41.550  57.423 -51.846  1.00  0.00     0.218 HD
ENDBRANCH   5  37
TORSDOF 11
ENDMDL
MODEL 4
REMARK VINA RESULT:      -7.5      2.463      6.657
REMARK  11 active torsions:
REMARK  status: ('A' for Active; 'I' for Inactive)
REMARK    1  A    between atoms: C_2  and  O_3 
REMARK    2  A    between atoms: O_3  and  C_4 
REMARK    3  A    between atoms: C_5  and  O_6 
REMARK    4  A    between atoms: C_9  and  C_10 
REMARK    5  A    between atoms: N_11  and  C_12 
REMARK    6  A    between atoms: C_12  and  C_13 
REMARK    7  A    between atoms: C_13  and  C_14 
REMARK    8  A    between atoms: C_14  and  N_15 
REMARK    9  A    between atoms: C_24  and  O_25 
REMARK   10  A    between atoms: C_26  and  C_27 
REMARK   11  A    between atoms: C_27  and  C_28 
ROOT
HETATM    1  C   UNL     1     -41.711  59.158 -54.533  1.00  0.00     0.161 C 
HETATM    2  N   UNL     1     -41.872  59.853 -53.258  1.00  0.00    -0.333 N 
HETATM    3  C   UNL     1     -42.617  61.001 -53.392  1.00  0.00     0.278 C 
HETATM    4  O   UNL     1     -42.820  61.846 -52.532  1.00  0.00    -0.265 OA
HETATM    5  C   UNL     1     -42.890  61.189 -54.830  1.00  0.00     0.146 C 
HETATM    6  C   UNL     1     -42.239  60.211 -55.472  1.00  0.00     0.059 C 
ENDROOT
BRANCH   1   7
HETATM    7  C   UNL     1     -42.473  57.839 -54.536  1.00  0.00    -0.028 A 
HETATM    8  C   UNL     1     -43.869  57.785 -54.340  1.00  0.00     0.012 A 
HETATM    9  C   UNL     1     -44.548  56.568 -54.337  1.00  0.00     0.040 A 
HETATM   10  C   UNL     1     -43.837  55.394 -54.520  1.00  0.00     0.099 A 
HETATM   11  C   UNL     1     -42.455  55.404 -54.721  1.00  0.00     0.102 A 
HETATM   12  C   UNL     1     -41.774  56.625 -54.716  1.00  0.00     0.049 A 
BRANCH  10  13
HETATM   13  O   UNL     1     -44.529  54.214 -54.512  1.00  0.00    -0.358 OA
HETATM   14  H   UNL     1     -44.830  54.084 -55.432  1.00  0.00     0.218 HD
ENDBRANCH  10  13
BRANCH  11  15
HETATM   15  O   UNL     1     -41.891  54.166 -54.881  1.00  0.00    -0.349 OA
BRANCH  15  16
HETATM   16  C   UNL     1     -40.467  54.106 -54.896  1.00  0.00     0.171 C 
HETATM   17  C   UNL     1     -40.059  52.752 -54.341  1.00  0.00     0.034 C 
ENDBRANCH  15  16
ENDBRANCH  11  15
ENDBRANCH   1   7
BRANCH   2  18
HETATM   18  C   UNL     1     -41.075  59.561 -52.081  1.00  0.00     0.129 C 
BRANCH  18  19
HETATM   19  C   UNL     1     -41.759  58.589 -51.108  1.00  0.00     0.048 C 
BRANCH  19  20
HETATM   20  C   UNL     1     -40.935  57.395 -50.614  1.00  0.00     0.236 C 
BRANCH  20  21
HETATM   21  N   UNL     1     -41.714  56.112 -50.501  1.00  0.00    -0.067 N 
HETATM   22  H   UNL     1     -41.628  55.762 -49.524  1.00  0.00     0.280 HD
HETATM   23  C   UNL     1     -43.188  56.250 -50.856  1.00  0.00     0.261 C 
HETATM   24  C   UNL     1     -43.889  54.890 -50.761  1.00  0.00     0.195 C 
HETATM   25  O   UNL     1     -43.247  53.917 -51.591  1.00  0.00    -0.388 OA
HETATM   26  C   UNL     1     -41.888  53.708 -51.191  1.00  0.00     0.195 C 
HETATM   27  C   UNL     1     -41.080  54.999 -51.344  1.00  0.00     0.261 C 
ENDBRANCH  20  21
ENDBRANCH  19  20
ENDBRANCH  18  19
ENDBRANCH   2  18
BRANCH   6  28
HETATM   28  C   UNL     1     -41.961  60.062 -56.917  1.00  0.00     0.193 C 
HETATM   29  O   UNL     1     -41.165  60.816 -57.465  1.00  0.00    -0.287 OA
BRANCH  28  30
HETATM   30  C   UNL     1     -42.710  59.081 -57.734  1.00  0.00     0.015 A 
HETATM   31  C   UNL     1     -44.074  59.244 -58.006  1.00  0.00     0.016 A 
HETATM   32  C   UNL     1     -44.746  58.310 -58.796  1.00  0.00     0.007 A 
HETATM   33  C   UNL     1     -44.059  57.218 -59.337  1.00  0.00    -0.062 A 
HETATM   34  C   UNL     1     -44.773  56.222 -60.204  1.00  0.00     0.048 C 
HETATM   35  C   UNL     1     -42.682  57.096 -59.113  1.00  0.00     0.007 A 
HETATM   36  C   UNL     1     -42.007  58.025 -58.318  1.00  0.00     0.016 A 
ENDBRANCH  28  30
ENDBRANCH   6  28
BRANCH   5  37
HETATM   37  O   UNL     1     -43.530  62.281 -55.327  1.00  0.00    -0.355 OA
HETATM   38  H   UNL     1     -42.922  63.042 -55.241  1.00  0.00     0.218 HD
ENDBRANCH   5  37
TORSDOF 11
ENDMDL
MODEL 5
REMARK VINA RESULT:      -7.5      2.546      4.377
REMARK  11 active torsions:
REMARK  status: ('A' for Active; 'I' for Inactive)
REMARK    1  A    between atoms: C_2  and  O_3 
REMARK    2  A    between atoms: O_3  and  C_4 
REMARK    3  A    between atoms: C_5  and  O_6 
REMARK    4  A    between atoms: C_9  and  C_10 
REMARK    5  A    between atoms: N_11  and  C_12 
REMARK    6  A    between atoms: C_12  and  C_13 
REMARK    7  A    between atoms: C_13  and  C_14 
REMARK    8  A    between atoms: C_14  and  N_15 
REMARK    9  A    between atoms: C_24  and  O_25 
REMARK   10  A    between atoms: C_26  and  C_27 
REMARK   11  A    between atoms: C_27  and  C_28 
ROOT
HETATM    1  C   UNL     1     -43.389  58.041 -55.427  1.00  0.00     0.161 C 
HETATM    2  N   UNL     1     -42.969  59.364 -54.974  1.00  0.00    -0.333 N 
HETATM    3  C   UNL     1     -42.007  59.287 -53.995  1.00  0.00     0.278 C 
HETATM    4  O   UNL     1     -41.548  60.215 -53.343  1.00  0.00    -0.265 OA
HETATM    5  C   UNL     1     -41.827  57.861 -53.658  1.00  0.00     0.146 C 
HETATM    6  C   UNL     1     -42.730  57.183 -54.379  1.00  0.00     0.059 C 
ENDROOT
BRANCH   1   7
HETATM    7  C   UNL     1     -42.937  57.785 -56.859  1.00  0.00    -0.028 A 
HETATM    8  C   UNL     1     -42.158  58.721 -57.572  1.00  0.00     0.012 A 
HETATM    9  C   UNL     1     -41.760  58.474 -58.885  1.00  0.00     0.040 A 
HETATM   10  C   UNL     1     -42.146  57.295 -59.501  1.00  0.00     0.099 A 
HETATM   11  C   UNL     1     -42.914  56.341 -58.829  1.00  0.00     0.102 A 
HETATM   12  C   UNL     1     -43.318  56.593 -57.514  1.00  0.00     0.049 A 
BRANCH  10  13
HETATM   13  O   UNL     1     -41.742  57.079 -60.789  1.00  0.00    -0.358 OA
HETATM   14  H   UNL     1     -42.550  57.162 -61.331  1.00  0.00     0.218 HD
ENDBRANCH  10  13
BRANCH  11  15
HETATM   15  O   UNL     1     -43.223  55.230 -59.569  1.00  0.00    -0.349 OA
BRANCH  15  16
HETATM   16  C   UNL     1     -44.603  54.890 -59.671  1.00  0.00     0.171 C 
HETATM   17  C   UNL     1     -45.008  55.051 -61.126  1.00  0.00     0.034 C 
ENDBRANCH  15  16
ENDBRANCH  11  15
ENDBRANCH   1   7
BRANCH   2  18
HETATM   18  C   UNL     1     -43.703  60.581 -55.266  1.00  0.00     0.129 C 
BRANCH  18  19
HETATM   19  C   UNL     1     -45.224  60.378 -55.318  1.00  0.00     0.048 C 
BRANCH  19  20
HETATM   20  C   UNL     1     -45.925  60.665 -56.650  1.00  0.00     0.236 C 
BRANCH  20  21
HETATM   21  N   UNL     1     -45.799  59.560 -57.665  1.00  0.00    -0.067 N 
HETATM   22  H   UNL     1     -44.959  58.993 -57.428  1.00  0.00     0.280 HD
HETATM   23  C   UNL     1     -47.016  58.649 -57.741  1.00  0.00     0.261 C 
HETATM   24  C   UNL     1     -46.821  57.588 -58.829  1.00  0.00     0.195 C 
HETATM   25  O   UNL     1     -46.548  58.191 -60.098  1.00  0.00    -0.388 OA
HETATM   26  C   UNL     1     -45.345  58.965 -60.058  1.00  0.00     0.195 C 
HETATM   27  C   UNL     1     -45.482  60.117 -59.058  1.00  0.00     0.261 C 
ENDBRANCH  20  21
ENDBRANCH  19  20
ENDBRANCH  18  19
ENDBRANCH   2  18
BRANCH   6  28
HETATM   28  C   UNL     1     -43.160  55.775 -54.256  1.00  0.00     0.193 C 
HETATM   29  O   UNL     1     -44.355  55.508 -54.177  1.00  0.00    -0.287 OA
BRANCH  28  30
HETATM   30  C   UNL     1     -42.165  54.688 -54.120  1.00  0.00     0.015 A 
HETATM   31  C   UNL     1     -41.236  54.415 -55.132  1.00  0.00     0.016 A 
HETATM   32  C   UNL     1     -40.298  53.395 -54.963  1.00  0.00     0.007 A 
HETATM   33  C   UNL     1     -40.266  52.654 -53.777  1.00  0.00    -0.062 A 
HETATM   34  C   UNL     1     -39.246  51.569 -53.584  1.00  0.00     0.048 C 
HETATM   35  C   UNL     1     -41.157  52.974 -52.745  1.00  0.00     0.007 A 
HETATM   36  C   UNL     1     -42.101  53.990 -52.913  1.00  0.00     0.016 A 
ENDBRANCH  28  30
ENDBRANCH   6  28
BRANCH   5  37
HETATM   37  O   UNL     1     -41.012  57.431 -52.660  1.00  0.00    -0.355 OA
HETATM   38  H   UNL     1     -40.834  58.195 -52.075  1.00  0.00     0.218 HD
ENDBRANCH   5  37
TORSDOF 11
ENDMDL
MODEL 6
REMARK VINA RESULT:      -7.4      2.322      6.007
REMARK  11 active torsions:
REMARK  status: ('A' for Active; 'I' for Inactive)
REMARK    1  A    between atoms: C_2  and  O_3 
REMARK    2  A    between atoms: O_3  and  C_4 
REMARK    3  A    between atoms: C_5  and  O_6 
REMARK    4  A    between atoms: C_9  and  C_10 
REMARK    5  A    between atoms: N_11  and  C_12 
REMARK    6  A    between atoms: C_12  and  C_13 
REMARK    7  A    between atoms: C_13  and  C_14 
REMARK    8  A    between atoms: C_14  and  N_15 
REMARK    9  A    between atoms: C_24  and  O_25 
REMARK   10  A    between atoms: C_26  and  C_27 
REMARK   11  A    between atoms: C_27  and  C_28 
ROOT
HETATM    1  C   UNL     1     -42.718  57.968 -55.665  1.00  0.00     0.161 C 
HETATM    2  N   UNL     1     -43.130  59.259 -56.210  1.00  0.00    -0.333 N 
HETATM    3  C   UNL     1     -44.070  59.118 -57.204  1.00  0.00     0.278 C 
HETATM    4  O   UNL     1     -44.514  60.002 -57.922  1.00  0.00    -0.265 OA
HETATM    5  C   UNL     1     -44.240  57.674 -57.454  1.00  0.00     0.146 C 
HETATM    6  C   UNL     1     -43.353  57.045 -56.673  1.00  0.00     0.059 C 
ENDROOT
BRANCH   1   7
HETATM    7  C   UNL     1     -43.202  57.801 -54.231  1.00  0.00    -0.028 A 
HETATM    8  C   UNL     1     -44.573  57.695 -53.915  1.00  0.00     0.012 A 
HETATM    9  C   UNL     1     -44.999  57.550 -52.596  1.00  0.00     0.040 A 
HETATM   10  C   UNL     1     -44.059  57.522 -51.579  1.00  0.00     0.099 A 
HETATM   11  C   UNL     1     -42.692  57.621 -51.849  1.00  0.00     0.102 A 
HETATM   12  C   UNL     1     -42.267  57.772 -53.173  1.00  0.00     0.049 A 
BRANCH  10  13
HETATM   13  O   UNL     1     -44.504  57.381 -50.295  1.00  0.00    -0.358 OA
HETATM   14  H   UNL     1     -45.087  56.597 -50.307  1.00  0.00     0.218 HD
ENDBRANCH  10  13
BRANCH  11  15
HETATM   15  O   UNL     1     -41.886  57.583 -50.742  1.00  0.00    -0.349 OA
BRANCH  15  16
HETATM   16  C   UNL     1     -40.949  56.511 -50.666  1.00  0.00     0.171 C 
HETATM   17  C   UNL     1     -41.379  55.608 -49.523  1.00  0.00     0.034 C 
ENDBRANCH  15  16
ENDBRANCH  11  15
ENDBRANCH   1   7
BRANCH   2  18
HETATM   18  C   UNL     1     -42.404  60.494 -55.978  1.00  0.00     0.129 C 
BRANCH  18  19
HETATM   19  C   UNL     1     -43.160  61.486 -55.083  1.00  0.00     0.048 C 
BRANCH  19  20
HETATM   20  C   UNL     1     -42.843  61.462 -53.584  1.00  0.00     0.236 C 
BRANCH  20  21
HETATM   21  N   UNL     1     -43.981  60.991 -52.719  1.00  0.00    -0.067 N 
HETATM   22  H   UNL     1     -44.028  59.952 -52.778  1.00  0.00     0.280 HD
HETATM   23  C   UNL     1     -43.861  61.406 -51.259  1.00  0.00     0.261 C 
HETATM   24  C   UNL     1     -45.083  60.927 -50.467  1.00  0.00     0.195 C 
HETATM   25  O   UNL     1     -46.299  61.415 -51.043  1.00  0.00    -0.388 OA
HETATM   26  C   UNL     1     -46.465  60.939 -52.383  1.00  0.00     0.195 C 
HETATM   27  C   UNL     1     -45.333  61.450 -53.279  1.00  0.00     0.261 C 
ENDBRANCH  20  21
ENDBRANCH  19  20
ENDBRANCH  18  19
ENDBRANCH   2  18
BRANCH   6  28
HETATM   28  C   UNL     1     -42.918  55.632 -56.698  1.00  0.00     0.193 C 
HETATM   29  O   UNL     1     -43.141  54.943 -57.688  1.00  0.00    -0.287 OA
BRANCH  28  30
HETATM   30  C   UNL     1     -42.310  55.007 -55.502  1.00  0.00     0.015 A 
HETATM   31  C   UNL     1     -43.096  54.437 -54.493  1.00  0.00     0.016 A 
HETATM   32  C   UNL     1     -42.489  53.839 -53.387  1.00  0.00     0.007 A 
HETATM   33  C   UNL     1     -41.094  53.787 -53.290  1.00  0.00    -0.062 A 
HETATM   34  C   UNL     1     -40.438  53.126 -52.112  1.00  0.00     0.048 C 
HETATM   35  C   UNL     1     -40.315  54.302 -54.333  1.00  0.00     0.007 A 
HETATM   36  C   UNL     1     -40.918  54.907 -55.438  1.00  0.00     0.016 A 
ENDBRANCH  28  30
ENDBRANCH   6  28
BRANCH   5  37
HETATM   37  O   UNL     1     -45.032  57.180 -58.442  1.00  0.00    -0.355 OA
HETATM   38  H   UNL     1     -45.954  57.197 -58.116  1.00  0.00     0.218 HD
ENDBRANCH   5  37
TORSDOF 11
ENDMDL
MODEL 7
REMARK VINA RESULT:      -7.3      2.096      4.383
REMARK  11 active torsions:
REMARK  status: ('A' for Active; 'I' for Inactive)
REMARK    1  A    between atoms: C_2  and  O_3 
REMARK    2  A    between atoms: O_3  and  C_4 
REMARK    3  A    between atoms: C_5  and  O_6 
REMARK    4  A    between atoms: C_9  and  C_10 
REMARK    5  A    between atoms: N_11  and  C_12 
REMARK    6  A    between atoms: C_12  and  C_13 
REMARK    7  A    between atoms: C_13  and  C_14 
REMARK    8  A    between atoms: C_14  and  N_15 
REMARK    9  A    between atoms: C_24  and  O_25 
REMARK   10  A    between atoms: C_26  and  C_27 
REMARK   11  A    between atoms: C_27  and  C_28 
ROOT
HETATM    1  C   UNL     1     -41.858  57.161 -54.640  1.00  0.00     0.161 C 
HETATM    2  N   UNL     1     -42.876  57.861 -55.419  1.00  0.00    -0.333 N 
HETATM    3  C   UNL     1     -44.095  57.227 -55.353  1.00  0.00     0.278 C 
HETATM    4  O   UNL     1     -45.101  57.508 -55.989  1.00  0.00    -0.265 OA
HETATM    5  C   UNL     1     -43.904  55.971 -54.604  1.00  0.00     0.146 C 
HETATM    6  C   UNL     1     -42.594  55.882 -54.337  1.00  0.00     0.059 C 
ENDROOT
BRANCH   1   7
HETATM    7  C   UNL     1     -41.441  57.978 -53.425  1.00  0.00    -0.028 A 
HETATM    8  C   UNL     1     -40.087  58.136 -53.063  1.00  0.00     0.012 A 
HETATM    9  C   UNL     1     -39.724  58.882 -51.942  1.00  0.00     0.040 A 
HETATM   10  C   UNL     1     -40.711  59.466 -51.167  1.00  0.00     0.099 A 
HETATM   11  C   UNL     1     -42.063  59.337 -51.493  1.00  0.00     0.102 A 
HETATM   12  C   UNL     1     -42.426  58.584 -52.614  1.00  0.00     0.049 A 
BRANCH  10  13
HETATM   13  O   UNL     1     -40.327  60.191 -50.073  1.00  0.00    -0.358 OA
HETATM   14  H   UNL     1     -41.024  60.042 -49.406  1.00  0.00     0.218 HD
ENDBRANCH  10  13
BRANCH  11  15
HETATM   15  O   UNL     1     -42.922  59.965 -50.630  1.00  0.00    -0.349 OA
BRANCH  15  16
HETATM   16  C   UNL     1     -43.672  61.059 -51.154  1.00  0.00     0.171 C 
HETATM   17  C   UNL     1     -43.073  62.336 -50.591  1.00  0.00     0.034 C 
ENDBRANCH  15  16
ENDBRANCH  11  15
ENDBRANCH   1   7
BRANCH   2  18
HETATM   18  C   UNL     1     -42.570  58.887 -56.398  1.00  0.00     0.129 C 
BRANCH  18  19
HETATM   19  C   UNL     1     -42.178  58.322 -57.770  1.00  0.00     0.048 C 
BRANCH  19  20
HETATM   20  C   UNL     1     -43.179  58.501 -58.916  1.00  0.00     0.236 C 
BRANCH  20  21
HETATM   21  N   UNL     1     -44.188  57.389 -59.035  1.00  0.00    -0.067 N 
HETATM   22  H   UNL     1     -44.302  56.950 -58.097  1.00  0.00     0.280 HD
HETATM   23  C   UNL     1     -45.549  57.841 -59.546  1.00  0.00     0.261 C 
HETATM   24  C   UNL     1     -46.493  56.641 -59.681  1.00  0.00     0.195 C 
HETATM   25  O   UNL     1     -45.932  55.633 -60.528  1.00  0.00    -0.388 OA
HETATM   26  C   UNL     1     -44.702  55.131 -59.994  1.00  0.00     0.195 C 
HETATM   27  C   UNL     1     -43.658  56.248 -59.911  1.00  0.00     0.261 C 
ENDBRANCH  20  21
ENDBRANCH  19  20
ENDBRANCH  18  19
ENDBRANCH   2  18
BRANCH   6  28
HETATM   28  C   UNL     1     -41.816  54.729 -53.837  1.00  0.00     0.193 C 
HETATM   29  O   UNL     1     -41.512  53.821 -54.604  1.00  0.00    -0.287 OA
BRANCH  28  30
HETATM   30  C   UNL     1     -41.489  54.603 -52.399  1.00  0.00     0.015 A 
HETATM   31  C   UNL     1     -42.322  55.139 -51.409  1.00  0.00     0.016 A 
HETATM   32  C   UNL     1     -41.993  54.985 -50.060  1.00  0.00     0.007 A 
HETATM   33  C   UNL     1     -40.843  54.281 -49.690  1.00  0.00    -0.062 A 
HETATM   34  C   UNL     1     -40.497  54.097 -48.241  1.00  0.00     0.048 C 
HETATM   35  C   UNL     1     -40.049  53.694 -50.683  1.00  0.00     0.007 A 
HETATM   36  C   UNL     1     -40.371  53.850 -52.033  1.00  0.00     0.016 A 
ENDBRANCH  28  30
ENDBRANCH   6  28
BRANCH   5  37
HETATM   37  O   UNL     1     -44.891  55.053 -54.430  1.00  0.00    -0.355 OA
HETATM   38  H   UNL     1     -44.648  54.502 -53.659  1.00  0.00     0.218 HD
ENDBRANCH   5  37
TORSDOF 11
ENDMDL
MODEL 8
REMARK VINA RESULT:      -7.2      2.927      6.894
REMARK  11 active torsions:
REMARK  status: ('A' for Active; 'I' for Inactive)
REMARK    1  A    between atoms: C_2  and  O_3 
REMARK    2  A    between atoms: O_3  and  C_4 
REMARK    3  A    between atoms: C_5  and  O_6 
REMARK    4  A    between atoms: C_9  and  C_10 
REMARK    5  A    between atoms: N_11  and  C_12 
REMARK    6  A    between atoms: C_12  and  C_13 
REMARK    7  A    between atoms: C_13  and  C_14 
REMARK    8  A    between atoms: C_14  and  N_15 
REMARK    9  A    between atoms: C_24  and  O_25 
REMARK   10  A    between atoms: C_26  and  C_27 
REMARK   11  A    between atoms: C_27  and  C_28 
ROOT
HETATM    1  C   UNL     1     -42.240  56.600 -54.179  1.00  0.00     0.161 C 
HETATM    2  N   UNL     1     -42.745  55.363 -53.588  1.00  0.00    -0.333 N 
HETATM    3  C   UNL     1     -43.191  55.557 -52.302  1.00  0.00     0.278 C 
HETATM    4  O   UNL     1     -43.558  54.695 -51.517  1.00  0.00    -0.265 OA
HETATM    5  C   UNL     1     -42.881  56.950 -51.928  1.00  0.00     0.146 C 
HETATM    6  C   UNL     1     -42.207  57.480 -52.957  1.00  0.00     0.059 C 
ENDROOT
BRANCH   1   7
HETATM    7  C   UNL     1     -43.149  57.079 -55.303  1.00  0.00    -0.028 A 
HETATM    8  C   UNL     1     -44.407  57.664 -55.046  1.00  0.00     0.012 A 
HETATM    9  C   UNL     1     -45.230  58.089 -56.088  1.00  0.00     0.040 A 
HETATM   10  C   UNL     1     -44.808  57.923 -57.396  1.00  0.00     0.099 A 
HETATM   11  C   UNL     1     -43.569  57.352 -57.694  1.00  0.00     0.102 A 
HETATM   12  C   UNL     1     -42.748  56.920 -56.648  1.00  0.00     0.049 A 
BRANCH  10  13
HETATM   13  O   UNL     1     -45.635  58.348 -58.398  1.00  0.00    -0.358 OA
HETATM   14  H   UNL     1     -46.541  58.183 -58.074  1.00  0.00     0.218 HD
ENDBRANCH  10  13
BRANCH  11  15
HETATM   15  O   UNL     1     -43.293  57.248 -59.032  1.00  0.00    -0.349 OA
BRANCH  15  16
HETATM   16  C   UNL     1     -42.843  55.978 -59.499  1.00  0.00     0.171 C 
HETATM   17  C   UNL     1     -44.062  55.083 -59.636  1.00  0.00     0.034 C 
ENDBRANCH  15  16
ENDBRANCH  11  15
ENDBRANCH   1   7
BRANCH   2  18
HETATM   18  C   UNL     1     -42.497  54.048 -54.149  1.00  0.00     0.129 C 
BRANCH  18  19
HETATM   19  C   UNL     1     -41.006  53.698 -54.244  1.00  0.00     0.048 C 
BRANCH  19  20
HETATM   20  C   UNL     1     -40.271  53.394 -52.934  1.00  0.00     0.236 C 
BRANCH  20  21
HETATM   21  N   UNL     1     -39.647  52.025 -52.879  1.00  0.00    -0.067 N 
HETATM   22  H   UNL     1     -38.622  52.126 -53.036  1.00  0.00     0.280 HD
HETATM   23  C   UNL     1     -39.884  51.290 -51.567  1.00  0.00     0.261 C 
HETATM   24  C   UNL     1     -39.258  49.892 -51.618  1.00  0.00     0.195 C 
HETATM   25  O   UNL     1     -39.759  49.140 -52.728  1.00  0.00    -0.388 OA
HETATM   26  C   UNL     1     -39.445  49.777 -53.971  1.00  0.00     0.195 C 
HETATM   27  C   UNL     1     -40.112  51.153 -54.052  1.00  0.00     0.261 C 
ENDBRANCH  20  21
ENDBRANCH  19  20
ENDBRANCH  18  19
ENDBRANCH   2  18
BRANCH   6  28
HETATM   28  C   UNL     1     -41.443  58.744 -53.026  1.00  0.00     0.193 C 
HETATM   29  O   UNL     1     -40.220  58.722 -52.943  1.00  0.00    -0.287 OA
BRANCH  28  30
HETATM   30  C   UNL     1     -42.142  60.047 -53.089  1.00  0.00     0.015 A 
HETATM   31  C   UNL     1     -42.480  60.639 -54.312  1.00  0.00     0.016 A 
HETATM   32  C   UNL     1     -43.156  61.861 -54.334  1.00  0.00     0.007 A 
HETATM   33  C   UNL     1     -43.518  62.490 -53.138  1.00  0.00    -0.062 A 
HETATM   34  C   UNL     1     -44.263  63.793 -53.158  1.00  0.00     0.048 C 
HETATM   35  C   UNL     1     -43.232  61.861 -51.919  1.00  0.00     0.007 A 
HETATM   36  C   UNL     1     -42.551  60.641 -51.893  1.00  0.00     0.016 A 
ENDBRANCH  28  30
ENDBRANCH   6  28
BRANCH   5  37
HETATM   37  O   UNL     1     -43.106  57.453 -50.685  1.00  0.00    -0.355 OA
HETATM   38  H   UNL     1     -42.833  58.392 -50.694  1.00  0.00     0.218 HD
ENDBRANCH   5  37
TORSDOF 11
ENDMDL
MODEL 9
REMARK VINA RESULT:      -7.2      2.613      7.028
REMARK  11 active torsions:
REMARK  status: ('A' for Active; 'I' for Inactive)
REMARK    1  A    between atoms: C_2  and  O_3 
REMARK    2  A    between atoms: O_3  and  C_4 
REMARK    3  A    between atoms: C_5  and  O_6 
REMARK    4  A    between atoms: C_9  and  C_10 
REMARK    5  A    between atoms: N_11  and  C_12 
REMARK    6  A    between atoms: C_12  and  C_13 
REMARK    7  A    between atoms: C_13  and  C_14 
REMARK    8  A    between atoms: C_14  and  N_15 
REMARK    9  A    between atoms: C_24  and  O_25 
REMARK   10  A    between atoms: C_26  and  C_27 
REMARK   11  A    between atoms: C_27  and  C_28 
ROOT
HETATM    1  C   UNL     1     -41.888  56.397 -53.715  1.00  0.00     0.161 C 
HETATM    2  N   UNL     1     -42.312  57.475 -52.826  1.00  0.00    -0.333 N 
HETATM    3  C   UNL     1     -43.665  57.703 -52.909  1.00  0.00     0.278 C 
HETATM    4  O   UNL     1     -44.288  58.611 -52.377  1.00  0.00    -0.265 OA
HETATM    5  C   UNL     1     -44.198  56.839 -53.980  1.00  0.00     0.146 C 
HETATM    6  C   UNL     1     -43.146  56.215 -54.525  1.00  0.00     0.059 C 
ENDROOT
BRANCH   1   7
HETATM    7  C   UNL     1     -41.442  55.177 -52.920  1.00  0.00    -0.028 A 
HETATM    8  C   UNL     1     -41.725  55.040 -51.545  1.00  0.00     0.012 A 
HETATM    9  C   UNL     1     -41.303  53.920 -50.831  1.00  0.00     0.040 A 
HETATM   10  C   UNL     1     -40.583  52.932 -51.482  1.00  0.00     0.099 A 
HETATM   11  C   UNL     1     -40.285  53.027 -52.843  1.00  0.00     0.102 A 
HETATM   12  C   UNL     1     -40.704  54.154 -53.557  1.00  0.00     0.049 A 
BRANCH  10  13
HETATM   13  O   UNL     1     -40.180  51.845 -50.757  1.00  0.00    -0.358 OA
HETATM   14  H   UNL     1     -40.282  52.105 -49.822  1.00  0.00     0.218 HD
ENDBRANCH  10  13
BRANCH  11  15
HETATM   15  O   UNL     1     -39.563  51.977 -53.345  1.00  0.00    -0.349 OA
BRANCH  15  16
HETATM   16  C   UNL     1     -40.202  51.171 -54.333  1.00  0.00     0.171 C 
HETATM   17  C   UNL     1     -39.522  49.813 -54.327  1.00  0.00     0.034 C 
ENDBRANCH  15  16
ENDBRANCH  11  15
ENDBRANCH   1   7
BRANCH   2  18
HETATM   18  C   UNL     1     -41.390  58.404 -52.200  1.00  0.00     0.129 C 
BRANCH  18  19
HETATM   19  C   UNL     1     -41.721  58.692 -50.728  1.00  0.00     0.048 C 
BRANCH  19  20
HETATM   20  C   UNL     1     -41.913  60.157 -50.325  1.00  0.00     0.236 C 
BRANCH  20  21
HETATM   21  N   UNL     1     -43.270  60.718 -50.658  1.00  0.00    -0.067 N 
HETATM   22  H   UNL     1     -43.808  59.987 -51.169  1.00  0.00     0.280 HD
HETATM   23  C   UNL     1     -44.067  61.171 -49.443  1.00  0.00     0.261 C 
HETATM   24  C   UNL     1     -45.409  61.770 -49.878  1.00  0.00     0.195 C 
HETATM   25  O   UNL     1     -45.221  62.846 -50.803  1.00  0.00    -0.388 OA
HETATM   26  C   UNL     1     -44.564  62.399 -51.993  1.00  0.00     0.195 C 
HETATM   27  C   UNL     1     -43.165  61.867 -51.667  1.00  0.00     0.261 C 
ENDBRANCH  20  21
ENDBRANCH  19  20
ENDBRANCH  18  19
ENDBRANCH   2  18
BRANCH   6  28
HETATM   28  C   UNL     1     -43.064  55.437 -55.779  1.00  0.00     0.193 C 
HETATM   29  O   UNL     1     -43.128  54.212 -55.740  1.00  0.00    -0.287 OA
BRANCH  28  30
HETATM   30  C   UNL     1     -42.800  56.109 -57.070  1.00  0.00     0.015 A 
HETATM   31  C   UNL     1     -43.073  55.481 -58.292  1.00  0.00     0.016 A 
HETATM   32  C   UNL     1     -42.829  56.152 -59.493  1.00  0.00     0.007 A 
HETATM   33  C   UNL     1     -42.331  57.459 -59.482  1.00  0.00    -0.062 A 
HETATM   34  C   UNL     1     -42.088  58.190 -60.770  1.00  0.00     0.048 C 
HETATM   35  C   UNL     1     -42.121  58.103 -58.257  1.00  0.00     0.007 A 
HETATM   36  C   UNL     1     -42.358  57.433 -57.054  1.00  0.00     0.016 A 
ENDBRANCH  28  30
ENDBRANCH   6  28
BRANCH   5  37
HETATM   37  O   UNL     1     -45.494  56.878 -54.390  1.00  0.00    -0.355 OA
HETATM   38  H   UNL     1     -45.989  57.425 -53.747  1.00  0.00     0.218 HD
ENDBRANCH   5  37
TORSDOF 11
ENDMDL
MODEL 10
REMARK VINA RESULT:      -7.1      2.421      4.417
REMARK  11 active torsions:
REMARK  status: ('A' for Active; 'I' for Inactive)
REMARK    1  A    between atoms: C_2  and  O_3 
REMARK    2  A    between atoms: O_3  and  C_4 
REMARK    3  A    between atoms: C_5  and  O_6 
REMARK    4  A    between atoms: C_9  and  C_10 
REMARK    5  A    between atoms: N_11  and  C_12 
REMARK    6  A    between atoms: C_12  and  C_13 
REMARK    7  A    between atoms: C_13  and  C_14 
REMARK    8  A    between atoms: C_14  and  N_15 
REMARK    9  A    between atoms: C_24  and  O_25 
REMARK   10  A    between atoms: C_26  and  C_27 
REMARK   11  A    between atoms: C_27  and  C_28 
ROOT
HETATM    1  C   UNL     1     -43.374  57.448 -55.344  1.00  0.00     0.161 C 
HETATM    2  N   UNL     1     -44.565  58.281 -55.201  1.00  0.00    -0.333 N 
HETATM    3  C   UNL     1     -44.318  59.401 -54.443  1.00  0.00     0.278 C 
HETATM    4  O   UNL     1     -45.140  60.218 -54.054  1.00  0.00    -0.265 OA
HETATM    5  C   UNL     1     -42.937  59.297 -53.932  1.00  0.00     0.146 C 
HETATM    6  C   UNL     1     -42.471  58.108 -54.334  1.00  0.00     0.059 C 
ENDROOT
BRANCH   1   7
HETATM    7  C   UNL     1     -42.867  57.462 -56.780  1.00  0.00    -0.028 A 
HETATM    8  C   UNL     1     -42.100  58.532 -57.289  1.00  0.00     0.012 A 
HETATM    9  C   UNL     1     -41.651  58.532 -58.608  1.00  0.00     0.040 A 
HETATM   10  C   UNL     1     -41.975  57.469 -59.435  1.00  0.00     0.099 A 
HETATM   11  C   UNL     1     -42.729  56.389 -58.970  1.00  0.00     0.102 A 
HETATM   12  C   UNL     1     -43.184  56.394 -57.648  1.00  0.00     0.049 A 
BRANCH  10  13
HETATM   13  O   UNL     1     -41.522  57.495 -60.725  1.00  0.00    -0.358 OA
HETATM   14  H   UNL     1     -41.386  58.440 -60.933  1.00  0.00     0.218 HD
ENDBRANCH  10  13
BRANCH  11  15
HETATM   15  O   UNL     1     -42.973  55.417 -59.904  1.00  0.00    -0.349 OA
BRANCH  15  16
HETATM   16  C   UNL     1     -44.249  54.782 -59.851  1.00  0.00     0.171 C 
HETATM   17  C   UNL     1     -45.021  55.202 -61.090  1.00  0.00     0.034 C 
ENDBRANCH  15  16
ENDBRANCH  11  15
ENDBRANCH   1   7
BRANCH   2  18
HETATM   18  C   UNL     1     -45.905  57.823 -55.521  1.00  0.00     0.129 C 
BRANCH  18  19
HETATM   19  C   UNL     1     -46.319  58.118 -56.970  1.00  0.00     0.048 C 
BRANCH  19  20
HETATM   20  C   UNL     1     -46.711  59.560 -57.309  1.00  0.00     0.236 C 
BRANCH  20  21
HETATM   21  N   UNL     1     -45.999  60.129 -58.507  1.00  0.00    -0.067 N 
HETATM   22  H   UNL     1     -46.691  60.656 -59.079  1.00  0.00     0.280 HD
HETATM   23  C   UNL     1     -44.835  61.045 -58.158  1.00  0.00     0.261 C 
HETATM   24  C   UNL     1     -44.141  61.536 -59.433  1.00  0.00     0.195 C 
HETATM   25  O   UNL     1     -43.708  60.439 -60.244  1.00  0.00    -0.388 OA
HETATM   26  C   UNL     1     -44.815  59.633 -60.661  1.00  0.00     0.195 C 
HETATM   27  C   UNL     1     -45.518  59.017 -59.448  1.00  0.00     0.261 C 
ENDBRANCH  20  21
ENDBRANCH  19  20
ENDBRANCH  18  19
ENDBRANCH   2  18
BRANCH   6  28
HETATM   28  C   UNL     1     -41.255  57.384 -53.905  1.00  0.00     0.193 C 
HETATM   29  O   UNL     1     -40.277  58.013 -53.515  1.00  0.00    -0.287 OA
BRANCH  28  30
HETATM   30  C   UNL     1     -41.164  55.913 -54.040  1.00  0.00     0.015 A 
HETATM   31  C   UNL     1     -40.337  55.315 -54.998  1.00  0.00     0.016 A 
HETATM   32  C   UNL     1     -40.260  53.923 -55.085  1.00  0.00     0.007 A 
HETATM   33  C   UNL     1     -40.993  53.119 -54.205  1.00  0.00    -0.062 A 
HETATM   34  C   UNL     1     -40.898  51.623 -54.282  1.00  0.00     0.048 C 
HETATM   35  C   UNL     1     -41.769  53.725 -53.209  1.00  0.00     0.007 A 
HETATM   36  C   UNL     1     -41.853  55.116 -53.122  1.00  0.00     0.016 A 
ENDBRANCH  28  30
ENDBRANCH   6  28
BRANCH   5  37
HETATM   37  O   UNL     1     -42.395  60.197 -53.069  1.00  0.00    -0.355 OA
HETATM   38  H   UNL     1     -43.026  60.939 -52.983  1.00  0.00     0.218 HD
ENDBRANCH   5  37
TORSDOF 11
ENDMDL
