MODEL 1
REMARK VINA RESULT:      -8.2      0.000      0.000
REMARK  7 active torsions:
REMARK  status: ('A' for Active; 'I' for Inactive)
REMARK    1  A    between atoms: CG_4  and  CB_5 
REMARK    2  A    between atoms: CB_5  and  CA_6 
REMARK    3  A    between atoms: CA_6  and  N_7 
REMARK    4  A    between atoms: CA_6  and  C_8 
REMARK       I    between atoms: N_7  and  C_14 
REMARK    5  A    between atoms: C_8  and  O_9 
REMARK       I    between atoms: C_14  and  N_15 
REMARK    6  A    between atoms: N_15  and  C_16 
REMARK    7  A    between atoms: C_22  and  C_23 
ROOT
ATOM      1  N   PHE A   1     -42.344  56.602 -57.587  1.00  0.00    -0.336 N 
ATOM      2  H   PHE A   1     -41.545  57.214 -57.645  1.00  0.00     0.164 HD
HETATM    3  C   UNK A   0     -42.321  55.583 -56.663  1.00  0.00     0.321 C 
HETATM    4  N   UNK A   0     -41.368  55.801 -55.698  1.00  0.00    -0.309 N 
HETATM    5  O   UNK A   0     -43.083  54.630 -56.754  1.00  0.00    -0.247 OA
HETATM    6  H   UNK A   0     -40.858  56.667 -55.771  1.00  0.00     0.170 HD
ENDROOT
BRANCH   1   7
ATOM      7  CA  PHE A   1     -43.326  56.654 -58.680  1.00  0.00     0.113 C 
BRANCH   7   8
ATOM      8  CB  PHE A   1     -44.517  57.558 -58.296  1.00  0.00     0.065 C 
BRANCH   8   9
ATOM      9  CG  PHE A   1     -45.623  57.589 -59.328  1.00  0.00    -0.056 A 
ATOM     10  CD1 PHE A   1     -46.215  56.399 -59.772  1.00  0.00     0.007 A 
ATOM     11  CE1 PHE A   1     -47.236  56.428 -60.725  1.00  0.00     0.001 A 
ATOM     12  CZ  PHE A   1     -47.678  57.646 -61.239  1.00  0.00     0.000 A 
ATOM     13  CE2 PHE A   1     -47.105  58.835 -60.798  1.00  0.00     0.001 A 
ATOM     14  CD2 PHE A   1     -46.085  58.809 -59.843  1.00  0.00     0.007 A 
ENDBRANCH   8   9
ENDBRANCH   7   8
BRANCH   7  15
ATOM     15  C   PHE A   1     -42.683  57.162 -59.988  1.00  0.00     0.189 C 
BRANCH  15  16
ATOM     16  O   PHE A   1     -41.495  56.452 -60.326  1.00  0.00    -0.399 OA
ATOM     17  H   PHE A   1     -41.555  56.184 -61.270  1.00  0.00     0.209 HD
ENDBRANCH  15  16
ENDBRANCH   7  15
ENDBRANCH   1   7
BRANCH   4  18
HETATM   18  C   UNK A   0     -41.086  55.004 -54.567  1.00  0.00     0.038 A 
HETATM   19  C   UNK A   0     -40.528  53.722 -54.641  1.00  0.00     0.063 A 
HETATM   20  C   UNK A   0     -40.320  52.998 -53.455  1.00  0.00     0.087 A 
HETATM   21  C   UNK A   0     -40.656  53.572 -52.235  1.00  0.00     0.063 A 
HETATM   22  N   UNK A   0     -39.816  51.732 -53.274  1.00  0.00    -0.228 NA
HETATM   23  N   UNK A   0     -40.337  52.614 -51.308  1.00  0.00    -0.338 N 
HETATM   24  C   UNK A   0     -41.199  54.850 -52.117  1.00  0.00     0.034 A 
HETATM   25  H   UNK A   0     -40.452  52.688 -50.306  1.00  0.00     0.167 HD
HETATM   26  C   UNK A   0     -39.843  51.518 -51.971  1.00  0.00     0.170 A 
HETATM   27  C   UNK A   0     -41.410  55.550 -53.313  1.00  0.00     0.032 A 
BRANCH  26  28
HETATM   28  C   UNK A   0     -39.430  50.299 -51.230  1.00  0.00     0.422 C 
HETATM   29  F   UNK A   0     -40.099  50.207 -50.047  1.00  0.00    -0.206 F 
HETATM   30  F   UNK A   0     -39.768  49.177 -51.927  1.00  0.00    -0.206 F 
ENDBRANCH  26  28
ENDBRANCH   4  18
TORSDOF 7
ENDMDL
MODEL 2
REMARK VINA RESULT:      -8.1      4.271      9.344
REMARK  7 active torsions:
REMARK  status: ('A' for Active; 'I' for Inactive)
REMARK    1  A    between atoms: CG_4  and  CB_5 
REMARK    2  A    between atoms: CB_5  and  CA_6 
REMARK    3  A    between atoms: CA_6  and  N_7 
REMARK    4  A    between atoms: CA_6  and  C_8 
REMARK       I    between atoms: N_7  and  C_14 
REMARK    5  A    between atoms: C_8  and  O_9 
REMARK       I    between atoms: C_14  and  N_15 
REMARK    6  A    between atoms: N_15  and  C_16 
REMARK    7  A    between atoms: C_22  and  C_23 
ROOT
ATOM      1  N   PHE A   1     -41.124  54.988 -51.837  1.00  0.00    -0.336 N 
ATOM      2  H   PHE A   1     -40.602  55.833 -51.664  1.00  0.00     0.164 HD
HETATM    3  C   UNK A   0     -42.063  54.995 -52.843  1.00  0.00     0.321 C 
HETATM    4  N   UNK A   0     -41.865  56.043 -53.708  1.00  0.00    -0.309 N 
HETATM    5  O   UNK A   0     -42.939  54.141 -52.895  1.00  0.00    -0.247 OA
HETATM    6  H   UNK A   0     -41.065  56.625 -53.520  1.00  0.00     0.170 HD
ENDROOT
BRANCH   1   7
ATOM      7  CA  PHE A   1     -41.060  53.925 -50.824  1.00  0.00     0.113 C 
BRANCH   7   8
ATOM      8  CB  PHE A   1     -39.718  53.168 -50.916  1.00  0.00     0.065 C 
BRANCH   8   9
ATOM      9  CG  PHE A   1     -39.744  51.980 -51.854  1.00  0.00    -0.056 A 
ATOM     10  CD1 PHE A   1     -39.600  50.678 -51.356  1.00  0.00     0.007 A 
ATOM     11  CE1 PHE A   1     -39.624  49.582 -52.221  1.00  0.00     0.001 A 
ATOM     12  CZ  PHE A   1     -39.797  49.776 -53.590  1.00  0.00     0.000 A 
ATOM     13  CE2 PHE A   1     -39.953  51.064 -54.096  1.00  0.00     0.001 A 
ATOM     14  CD2 PHE A   1     -39.931  52.161 -53.232  1.00  0.00     0.007 A 
ENDBRANCH   8   9
ENDBRANCH   7   8
BRANCH   7  15
ATOM     15  C   PHE A   1     -41.244  54.494 -49.401  1.00  0.00     0.189 C 
BRANCH  15  16
ATOM     16  O   PHE A   1     -40.954  53.537 -48.386  1.00  0.00    -0.399 OA
ATOM     17  H   PHE A   1     -41.707  52.908 -48.334  1.00  0.00     0.209 HD
ENDBRANCH  15  16
ENDBRANCH   7  15
ENDBRANCH   1   7
BRANCH   4  18
HETATM   18  C   UNK A   0     -42.595  56.346 -54.878  1.00  0.00     0.038 A 
HETATM   19  C   UNK A   0     -42.497  55.611 -56.066  1.00  0.00     0.063 A 
HETATM   20  C   UNK A   0     -43.241  56.019 -57.185  1.00  0.00     0.087 A 
HETATM   21  C   UNK A   0     -44.068  57.132 -57.089  1.00  0.00     0.063 A 
HETATM   22  N   UNK A   0     -43.294  55.482 -58.450  1.00  0.00    -0.228 NA
HETATM   23  N   UNK A   0     -44.627  57.251 -58.335  1.00  0.00    -0.338 N 
HETATM   24  C   UNK A   0     -44.205  57.881 -55.922  1.00  0.00     0.034 A 
HETATM   25  H   UNK A   0     -45.284  57.959 -58.631  1.00  0.00     0.167 HD
HETATM   26  C   UNK A   0     -44.131  56.247 -59.129  1.00  0.00     0.170 A 
HETATM   27  C   UNK A   0     -43.444  57.464 -54.821  1.00  0.00     0.032 A 
BRANCH  26  28
HETATM   28  C   UNK A   0     -44.536  56.127 -60.553  1.00  0.00     0.422 C 
HETATM   29  F   UNK A   0     -44.439  54.835 -60.971  1.00  0.00    -0.206 F 
HETATM   30  F   UNK A   0     -45.849  56.462 -60.706  1.00  0.00    -0.206 F 
ENDBRANCH  26  28
ENDBRANCH   4  18
TORSDOF 7
ENDMDL
MODEL 3
REMARK VINA RESULT:      -8.0      4.825     10.113
REMARK  7 active torsions:
REMARK  status: ('A' for Active; 'I' for Inactive)
REMARK    1  A    between atoms: CG_4  and  CB_5 
REMARK    2  A    between atoms: CB_5  and  CA_6 
REMARK    3  A    between atoms: CA_6  and  N_7 
REMARK    4  A    between atoms: CA_6  and  C_8 
REMARK       I    between atoms: N_7  and  C_14 
REMARK    5  A    between atoms: C_8  and  O_9 
REMARK       I    between atoms: C_14  and  N_15 
REMARK    6  A    between atoms: N_15  and  C_16 
REMARK    7  A    between atoms: C_22  and  C_23 
ROOT
ATOM      1  N   PHE A   1     -41.671  54.972 -54.696  1.00  0.00    -0.336 N 
ATOM      2  H   PHE A   1     -41.044  55.757 -54.619  1.00  0.00     0.164 HD
HETATM    3  C   UNK A   0     -42.689  55.038 -55.619  1.00  0.00     0.321 C 
HETATM    4  N   UNK A   0     -42.452  56.009 -56.561  1.00  0.00    -0.309 N 
HETATM    5  O   UNK A   0     -43.658  54.293 -55.546  1.00  0.00    -0.247 OA
HETATM    6  H   UNK A   0     -41.577  56.501 -56.476  1.00  0.00     0.170 HD
ENDROOT
BRANCH   1   7
ATOM      7  CA  PHE A   1     -41.639  53.963 -53.628  1.00  0.00     0.113 C 
BRANCH   7   8
ATOM      8  CB  PHE A   1     -40.183  53.585 -53.282  1.00  0.00     0.065 C 
BRANCH   8   9
ATOM      9  CG  PHE A   1     -39.970  52.105 -53.050  1.00  0.00    -0.056 A 
ATOM     10  CD1 PHE A   1     -40.059  51.199 -54.115  1.00  0.00     0.007 A 
ATOM     11  CE1 PHE A   1     -39.863  49.832 -53.901  1.00  0.00     0.001 A 
ATOM     12  CZ  PHE A   1     -39.571  49.360 -52.623  1.00  0.00     0.000 A 
ATOM     13  CE2 PHE A   1     -39.468  50.252 -51.559  1.00  0.00     0.001 A 
ATOM     14  CD2 PHE A   1     -39.662  51.619 -51.771  1.00  0.00     0.007 A 
ENDBRANCH   8   9
ENDBRANCH   7   8
BRANCH   7  15
ATOM     15  C   PHE A   1     -42.365  54.464 -52.361  1.00  0.00     0.189 C 
BRANCH  15  16
ATOM     16  O   PHE A   1     -43.778  54.297 -52.437  1.00  0.00    -0.399 OA
ATOM     17  H   PHE A   1     -44.064  53.749 -51.674  1.00  0.00     0.209 HD
ENDBRANCH  15  16
ENDBRANCH   7  15
ENDBRANCH   1   7
BRANCH   4  18
HETATM   18  C   UNK A   0     -43.243  56.335 -57.684  1.00  0.00     0.038 A 
HETATM   19  C   UNK A   0     -44.192  57.366 -57.693  1.00  0.00     0.063 A 
HETATM   20  C   UNK A   0     -44.952  57.583 -58.853  1.00  0.00     0.087 A 
HETATM   21  C   UNK A   0     -44.740  56.786 -59.971  1.00  0.00     0.063 A 
HETATM   22  N   UNK A   0     -45.945  58.504 -59.094  1.00  0.00    -0.228 NA
HETATM   23  N   UNK A   0     -45.633  57.254 -60.899  1.00  0.00    -0.338 N 
HETATM   24  C   UNK A   0     -43.796  55.762 -60.008  1.00  0.00     0.034 A 
HETATM   25  H   UNK A   0     -45.760  56.903 -61.838  1.00  0.00     0.167 HD
HETATM   26  C   UNK A   0     -46.348  58.281 -60.333  1.00  0.00     0.170 A 
HETATM   27  C   UNK A   0     -43.057  55.552 -58.836  1.00  0.00     0.032 A 
BRANCH  26  28
HETATM   28  C   UNK A   0     -47.415  58.979 -61.093  1.00  0.00     0.422 C 
HETATM   29  F   UNK A   0     -48.199  58.081 -61.752  1.00  0.00    -0.206 F 
HETATM   30  F   UNK A   0     -48.254  59.639 -60.244  1.00  0.00    -0.206 F 
ENDBRANCH  26  28
ENDBRANCH   4  18
TORSDOF 7
ENDMDL
MODEL 4
REMARK VINA RESULT:      -7.9      1.667      2.836
REMARK  7 active torsions:
REMARK  status: ('A' for Active; 'I' for Inactive)
REMARK    1  A    between atoms: CG_4  and  CB_5 
REMARK    2  A    between atoms: CB_5  and  CA_6 
REMARK    3  A    between atoms: CA_6  and  N_7 
REMARK    4  A    between atoms: CA_6  and  C_8 
REMARK       I    between atoms: N_7  and  C_14 
REMARK    5  A    between atoms: C_8  and  O_9 
REMARK       I    between atoms: C_14  and  N_15 
REMARK    6  A    between atoms: N_15  and  C_16 
REMARK    7  A    between atoms: C_22  and  C_23 
ROOT
ATOM      1  N   PHE A   1     -42.394  56.341 -57.640  1.00  0.00    -0.336 N 
ATOM      2  H   PHE A   1     -41.534  56.826 -57.838  1.00  0.00     0.164 HD
HETATM    3  C   UNK A   0     -42.396  55.394 -56.642  1.00  0.00     0.321 C 
HETATM    4  N   UNK A   0     -41.310  55.536 -55.812  1.00  0.00    -0.309 N 
HETATM    5  O   UNK A   0     -43.286  54.557 -56.566  1.00  0.00    -0.247 OA
HETATM    6  H   UNK A   0     -40.700  56.312 -56.015  1.00  0.00     0.170 HD
ENDROOT
BRANCH   1   7
ATOM      7  CA  PHE A   1     -43.488  56.461 -58.615  1.00  0.00     0.113 C 
BRANCH   7   8
ATOM      8  CB  PHE A   1     -44.153  57.850 -58.516  1.00  0.00     0.065 C 
BRANCH   8   9
ATOM      9  CG  PHE A   1     -43.170  58.994 -58.389  1.00  0.00    -0.056 A 
ATOM     10  CD1 PHE A   1     -42.676  59.637 -59.532  1.00  0.00     0.007 A 
ATOM     11  CE1 PHE A   1     -41.768  60.693 -59.414  1.00  0.00     0.001 A 
ATOM     12  CZ  PHE A   1     -41.351  61.118 -58.155  1.00  0.00     0.000 A 
ATOM     13  CE2 PHE A   1     -41.843  60.495 -57.012  1.00  0.00     0.001 A 
ATOM     14  CD2 PHE A   1     -42.752  59.441 -57.127  1.00  0.00     0.007 A 
ENDBRANCH   8   9
ENDBRANCH   7   8
BRANCH   7  15
ATOM     15  C   PHE A   1     -42.984  56.223 -60.055  1.00  0.00     0.189 C 
BRANCH  15  16
ATOM     16  O   PHE A   1     -41.570  56.354 -60.169  1.00  0.00    -0.399 OA
ATOM     17  H   PHE A   1     -41.265  55.771 -60.898  1.00  0.00     0.209 HD
ENDBRANCH  15  16
ENDBRANCH   7  15
ENDBRANCH   1   7
BRANCH   4  18
HETATM   18  C   UNK A   0     -41.001  54.784 -54.658  1.00  0.00     0.038 A 
HETATM   19  C   UNK A   0     -40.500  53.477 -54.694  1.00  0.00     0.063 A 
HETATM   20  C   UNK A   0     -40.259  52.805 -53.485  1.00  0.00     0.087 A 
HETATM   21  C   UNK A   0     -40.507  53.452 -52.280  1.00  0.00     0.063 A 
HETATM   22  N   UNK A   0     -39.798  51.528 -53.265  1.00  0.00    -0.228 NA
HETATM   23  N   UNK A   0     -40.178  52.528 -51.323  1.00  0.00    -0.338 N 
HETATM   24  C   UNK A   0     -40.990  54.756 -52.201  1.00  0.00     0.034 A 
HETATM   25  H   UNK A   0     -40.236  52.655 -50.322  1.00  0.00     0.167 HD
HETATM   26  C   UNK A   0     -39.764  51.380 -51.953  1.00  0.00     0.170 A 
HETATM   27  C   UNK A   0     -41.236  55.404 -53.419  1.00  0.00     0.032 A 
BRANCH  26  28
HETATM   28  C   UNK A   0     -39.362  50.182 -51.172  1.00  0.00     0.422 C 
HETATM   29  F   UNK A   0     -40.013  50.149 -49.976  1.00  0.00    -0.206 F 
HETATM   30  F   UNK A   0     -39.733  49.041 -51.820  1.00  0.00    -0.206 F 
ENDBRANCH  26  28
ENDBRANCH   4  18
TORSDOF 7
ENDMDL
MODEL 5
REMARK VINA RESULT:      -7.7      2.515      3.838
REMARK  7 active torsions:
REMARK  status: ('A' for Active; 'I' for Inactive)
REMARK    1  A    between atoms: CG_4  and  CB_5 
REMARK    2  A    between atoms: CB_5  and  CA_6 
REMARK    3  A    between atoms: CA_6  and  N_7 
REMARK    4  A    between atoms: CA_6  and  C_8 
REMARK       I    between atoms: N_7  and  C_14 
REMARK    5  A    between atoms: C_8  and  O_9 
REMARK       I    between atoms: C_14  and  N_15 
REMARK    6  A    between atoms: N_15  and  C_16 
REMARK    7  A    between atoms: C_22  and  C_23 
ROOT
ATOM      1  N   PHE A   1     -43.589  55.721 -57.663  1.00  0.00    -0.336 N 
ATOM      2  H   PHE A   1     -44.151  54.906 -57.850  1.00  0.00     0.164 HD
HETATM    3  C   UNK A   0     -42.899  55.781 -56.475  1.00  0.00     0.321 C 
HETATM    4  N   UNK A   0     -42.781  54.540 -55.899  1.00  0.00    -0.309 N 
HETATM    5  O   UNK A   0     -42.473  56.845 -56.044  1.00  0.00    -0.247 OA
HETATM    6  H   UNK A   0     -43.168  53.772 -56.424  1.00  0.00     0.170 HD
ENDROOT
BRANCH   1   7
ATOM      7  CA  PHE A   1     -43.785  56.899 -58.522  1.00  0.00     0.113 C 
BRANCH   7   8
ATOM      8  CB  PHE A   1     -42.533  57.151 -59.389  1.00  0.00     0.065 C 
BRANCH   8   9
ATOM      9  CG  PHE A   1     -42.173  58.613 -59.540  1.00  0.00    -0.056 A 
ATOM     10  CD1 PHE A   1     -42.084  59.196 -60.811  1.00  0.00     0.007 A 
ATOM     11  CE1 PHE A   1     -41.752  60.546 -60.950  1.00  0.00     0.001 A 
ATOM     12  CZ  PHE A   1     -41.510  61.326 -59.820  1.00  0.00     0.000 A 
ATOM     13  CE2 PHE A   1     -41.607  60.760 -58.552  1.00  0.00     0.001 A 
ATOM     14  CD2 PHE A   1     -41.941  59.412 -58.410  1.00  0.00     0.007 A 
ENDBRANCH   8   9
ENDBRANCH   7   8
BRANCH   7  15
ATOM     15  C   PHE A   1     -45.024  56.732 -59.427  1.00  0.00     0.189 C 
BRANCH  15  16
ATOM     16  O   PHE A   1     -45.504  55.391 -59.458  1.00  0.00    -0.399 OA
ATOM     17  H   PHE A   1     -45.402  55.007 -58.560  1.00  0.00     0.209 HD
ENDBRANCH  15  16
ENDBRANCH   7  15
ENDBRANCH   1   7
BRANCH   4  18
HETATM   18  C   UNK A   0     -42.102  54.201 -54.708  1.00  0.00     0.038 A 
HETATM   19  C   UNK A   0     -42.522  54.602 -53.434  1.00  0.00     0.063 A 
HETATM   20  C   UNK A   0     -41.752  54.239 -52.316  1.00  0.00     0.087 A 
HETATM   21  C   UNK A   0     -40.601  53.481 -52.494  1.00  0.00     0.063 A 
HETATM   22  N   UNK A   0     -41.943  54.530 -50.986  1.00  0.00    -0.228 NA
HETATM   23  N   UNK A   0     -40.102  53.317 -51.228  1.00  0.00    -0.338 N 
HETATM   24  C   UNK A   0     -40.158  53.049 -53.742  1.00  0.00     0.034 A 
HETATM   25  H   UNK A   0     -39.263  52.813 -50.975  1.00  0.00     0.167 HD
HETATM   26  C   UNK A   0     -40.930  53.970 -50.348  1.00  0.00     0.170 A 
HETATM   27  C   UNK A   0     -40.933  53.432 -54.845  1.00  0.00     0.032 A 
BRANCH  26  28
HETATM   28  C   UNK A   0     -40.635  53.991 -48.893  1.00  0.00     0.422 C 
HETATM   29  F   UNK A   0     -39.293  54.085 -48.678  1.00  0.00    -0.206 F 
HETATM   30  F   UNK A   0     -41.174  55.100 -48.311  1.00  0.00    -0.206 F 
ENDBRANCH  26  28
ENDBRANCH   4  18
TORSDOF 7
ENDMDL
MODEL 6
REMARK VINA RESULT:      -7.4      4.664      9.676
REMARK  7 active torsions:
REMARK  status: ('A' for Active; 'I' for Inactive)
REMARK    1  A    between atoms: CG_4  and  CB_5 
REMARK    2  A    between atoms: CB_5  and  CA_6 
REMARK    3  A    between atoms: CA_6  and  N_7 
REMARK    4  A    between atoms: CA_6  and  C_8 
REMARK       I    between atoms: N_7  and  C_14 
REMARK    5  A    between atoms: C_8  and  O_9 
REMARK       I    between atoms: C_14  and  N_15 
REMARK    6  A    between atoms: N_15  and  C_16 
REMARK    7  A    between atoms: C_22  and  C_23 
ROOT
ATOM      1  N   PHE A   1     -41.146  54.920 -52.262  1.00  0.00    -0.336 N 
ATOM      2  H   PHE A   1     -40.575  55.735 -52.105  1.00  0.00     0.164 HD
HETATM    3  C   UNK A   0     -42.128  54.985 -53.224  1.00  0.00     0.321 C 
HETATM    4  N   UNK A   0     -41.917  56.033 -54.087  1.00  0.00    -0.309 N 
HETATM    5  O   UNK A   0     -43.047  54.177 -53.245  1.00  0.00    -0.247 OA
HETATM    6  H   UNK A   0     -41.080  56.571 -53.930  1.00  0.00     0.170 HD
ENDROOT
BRANCH   1   7
ATOM      7  CA  PHE A   1     -41.091  53.842 -51.263  1.00  0.00     0.113 C 
BRANCH   7   8
ATOM      8  CB  PHE A   1     -39.728  53.119 -51.321  1.00  0.00     0.065 C 
BRANCH   8   9
ATOM      9  CG  PHE A   1     -39.727  51.878 -52.187  1.00  0.00    -0.056 A 
ATOM     10  CD1 PHE A   1     -39.575  50.609 -51.611  1.00  0.00     0.007 A 
ATOM     11  CE1 PHE A   1     -39.573  49.464 -52.410  1.00  0.00     0.001 A 
ATOM     12  CZ  PHE A   1     -39.729  49.574 -53.790  1.00  0.00     0.000 A 
ATOM     13  CE2 PHE A   1     -39.892  50.828 -54.373  1.00  0.00     0.001 A 
ATOM     14  CD2 PHE A   1     -39.896  51.975 -53.576  1.00  0.00     0.007 A 
ENDBRANCH   8   9
ENDBRANCH   7   8
BRANCH   7  15
ATOM     15  C   PHE A   1     -41.335  54.385 -49.839  1.00  0.00     0.189 C 
BRANCH  15  16
ATOM     16  O   PHE A   1     -42.712  54.650 -49.583  1.00  0.00    -0.399 OA
ATOM     17  H   PHE A   1     -43.108  55.034 -50.396  1.00  0.00     0.209 HD
ENDBRANCH  15  16
ENDBRANCH   7  15
ENDBRANCH   1   7
BRANCH   4  18
HETATM   18  C   UNK A   0     -42.682  56.385 -55.220  1.00  0.00     0.038 A 
HETATM   19  C   UNK A   0     -43.699  57.348 -55.202  1.00  0.00     0.063 A 
HETATM   20  C   UNK A   0     -44.424  57.597 -56.379  1.00  0.00     0.087 A 
HETATM   21  C   UNK A   0     -44.109  56.899 -57.538  1.00  0.00     0.063 A 
HETATM   22  N   UNK A   0     -45.468  58.464 -56.601  1.00  0.00    -0.228 NA
HETATM   23  N   UNK A   0     -44.994  57.372 -58.472  1.00  0.00    -0.338 N 
HETATM   24  C   UNK A   0     -43.096  55.946 -57.602  1.00  0.00     0.034 A 
HETATM   25  H   UNK A   0     -45.057  57.082 -59.438  1.00  0.00     0.167 HD
HETATM   26  C   UNK A   0     -45.802  58.305 -57.870  1.00  0.00     0.170 A 
HETATM   27  C   UNK A   0     -42.393  55.702 -56.414  1.00  0.00     0.032 A 
BRANCH  26  28
HETATM   28  C   UNK A   0     -46.883  58.983 -58.628  1.00  0.00     0.422 C 
HETATM   29  F   UNK A   0     -48.018  59.061 -57.878  1.00  0.00    -0.206 F 
HETATM   30  F   UNK A   0     -46.539  60.274 -58.902  1.00  0.00    -0.206 F 
ENDBRANCH  26  28
ENDBRANCH   4  18
TORSDOF 7
ENDMDL
MODEL 7
REMARK VINA RESULT:      -7.4     15.648     18.544
REMARK  7 active torsions:
REMARK  status: ('A' for Active; 'I' for Inactive)
REMARK    1  A    between atoms: CG_4  and  CB_5 
REMARK    2  A    between atoms: CB_5  and  CA_6 
REMARK    3  A    between atoms: CA_6  and  N_7 
REMARK    4  A    between atoms: CA_6  and  C_8 
REMARK       I    between atoms: N_7  and  C_14 
REMARK    5  A    between atoms: C_8  and  O_9 
REMARK       I    between atoms: C_14  and  N_15 
REMARK    6  A    between atoms: N_15  and  C_16 
REMARK    7  A    between atoms: C_22  and  C_23 
ROOT
ATOM      1  N   PHE A   1     -37.255  40.707 -53.540  1.00  0.00    -0.336 N 
ATOM      2  H   PHE A   1     -38.094  41.244 -53.393  1.00  0.00     0.164 HD
HETATM    3  C   UNK A   0     -36.973  40.273 -54.815  1.00  0.00     0.321 C 
HETATM    4  N   UNK A   0     -37.689  40.973 -55.755  1.00  0.00    -0.309 N 
HETATM    5  O   UNK A   0     -36.173  39.367 -55.012  1.00  0.00    -0.247 OA
HETATM    6  H   UNK A   0     -38.275  41.712 -55.401  1.00  0.00     0.170 HD
ENDROOT
BRANCH   1   7
ATOM      7  CA  PHE A   1     -36.563  40.179 -52.356  1.00  0.00     0.113 C 
BRANCH   7   8
ATOM      8  CB  PHE A   1     -35.635  41.251 -51.746  1.00  0.00     0.065 C 
BRANCH   8   9
ATOM      9  CG  PHE A   1     -34.236  40.757 -51.450  1.00  0.00    -0.056 A 
ATOM     10  CD1 PHE A   1     -33.303  40.603 -52.484  1.00  0.00     0.007 A 
ATOM     11  CE1 PHE A   1     -32.011  40.147 -52.210  1.00  0.00     0.001 A 
ATOM     12  CZ  PHE A   1     -31.639  39.845 -50.902  1.00  0.00     0.000 A 
ATOM     13  CE2 PHE A   1     -32.554  40.005 -49.865  1.00  0.00     0.001 A 
ATOM     14  CD2 PHE A   1     -33.845  40.463 -50.136  1.00  0.00     0.007 A 
ENDBRANCH   8   9
ENDBRANCH   7   8
BRANCH   7  15
ATOM     15  C   PHE A   1     -37.569  39.690 -51.291  1.00  0.00     0.189 C 
BRANCH  15  16
ATOM     16  O   PHE A   1     -38.910  40.069 -51.589  1.00  0.00    -0.399 OA
ATOM     17  H   PHE A   1     -39.027  40.041 -52.564  1.00  0.00     0.209 HD
ENDBRANCH  15  16
ENDBRANCH   7  15
ENDBRANCH   1   7
BRANCH   4  18
HETATM   18  C   UNK A   0     -37.629  40.843 -57.160  1.00  0.00     0.038 A 
HETATM   19  C   UNK A   0     -37.989  39.678 -57.847  1.00  0.00     0.063 A 
HETATM   20  C   UNK A   0     -37.858  39.642 -59.246  1.00  0.00     0.087 A 
HETATM   21  C   UNK A   0     -37.390  40.764 -59.918  1.00  0.00     0.063 A 
HETATM   22  N   UNK A   0     -38.121  38.620 -60.127  1.00  0.00    -0.228 NA
HETATM   23  N   UNK A   0     -37.380  40.391 -61.237  1.00  0.00    -0.338 N 
HETATM   24  C   UNK A   0     -37.036  41.946 -59.274  1.00  0.00     0.034 A 
HETATM   25  H   UNK A   0     -37.092  40.963 -62.019  1.00  0.00     0.167 HD
HETATM   26  C   UNK A   0     -37.817  39.092 -61.323  1.00  0.00     0.170 A 
HETATM   27  C   UNK A   0     -37.162  41.957 -57.878  1.00  0.00     0.032 A 
BRANCH  26  28
HETATM   28  C   UNK A   0     -37.894  38.396 -62.633  1.00  0.00     0.422 C 
HETATM   29  F   UNK A   0     -39.192  38.200 -62.996  1.00  0.00    -0.206 F 
HETATM   30  F   UNK A   0     -37.354  39.169 -63.618  1.00  0.00    -0.206 F 
ENDBRANCH  26  28
ENDBRANCH   4  18
TORSDOF 7
ENDMDL
MODEL 8
REMARK VINA RESULT:      -7.3      2.355      2.983
REMARK  7 active torsions:
REMARK  status: ('A' for Active; 'I' for Inactive)
REMARK    1  A    between atoms: CG_4  and  CB_5 
REMARK    2  A    between atoms: CB_5  and  CA_6 
REMARK    3  A    between atoms: CA_6  and  N_7 
REMARK    4  A    between atoms: CA_6  and  C_8 
REMARK       I    between atoms: N_7  and  C_14 
REMARK    5  A    between atoms: C_8  and  O_9 
REMARK       I    between atoms: C_14  and  N_15 
REMARK    6  A    between atoms: N_15  and  C_16 
REMARK    7  A    between atoms: C_22  and  C_23 
ROOT
ATOM      1  N   PHE A   1     -45.385  57.781 -56.024  1.00  0.00    -0.336 N 
ATOM      2  H   PHE A   1     -46.225  57.569 -55.510  1.00  0.00     0.164 HD
HETATM    3  C   UNK A   0     -44.198  57.237 -55.590  1.00  0.00     0.321 C 
HETATM    4  N   UNK A   0     -44.411  56.174 -54.747  1.00  0.00    -0.309 N 
HETATM    5  O   UNK A   0     -43.122  57.696 -55.951  1.00  0.00    -0.247 OA
HETATM    6  H   UNK A   0     -45.374  55.919 -54.594  1.00  0.00     0.170 HD
ENDROOT
BRANCH   1   7
ATOM      7  CA  PHE A   1     -45.438  58.879 -57.000  1.00  0.00     0.113 C 
BRANCH   7   8
ATOM      8  CB  PHE A   1     -46.432  58.549 -58.134  1.00  0.00     0.065 C 
BRANCH   8   9
ATOM      9  CG  PHE A   1     -45.930  57.505 -59.108  1.00  0.00    -0.056 A 
ATOM     10  CD1 PHE A   1     -46.831  56.665 -59.776  1.00  0.00     0.007 A 
ATOM     11  CE1 PHE A   1     -46.367  55.701 -60.674  1.00  0.00     0.001 A 
ATOM     12  CZ  PHE A   1     -45.001  55.571 -60.917  1.00  0.00     0.000 A 
ATOM     13  CE2 PHE A   1     -44.098  56.408 -60.268  1.00  0.00     0.001 A 
ATOM     14  CD2 PHE A   1     -44.559  57.374 -59.370  1.00  0.00     0.007 A 
ENDBRANCH   8   9
ENDBRANCH   7   8
BRANCH   7  15
ATOM     15  C   PHE A   1     -45.836  60.210 -56.325  1.00  0.00     0.189 C 
BRANCH  15  16
ATOM     16  O   PHE A   1     -46.023  60.076 -54.919  1.00  0.00    -0.399 OA
ATOM     17  H   PHE A   1     -45.594  60.842 -54.478  1.00  0.00     0.209 HD
ENDBRANCH  15  16
ENDBRANCH   7  15
ENDBRANCH   1   7
BRANCH   4  18
HETATM   18  C   UNK A   0     -43.443  55.341 -54.145  1.00  0.00     0.038 A 
HETATM   19  C   UNK A   0     -42.726  54.358 -54.837  1.00  0.00     0.063 A 
HETATM   20  C   UNK A   0     -41.809  53.558 -54.134  1.00  0.00     0.087 A 
HETATM   21  C   UNK A   0     -41.622  53.767 -52.773  1.00  0.00     0.063 A 
HETATM   22  N   UNK A   0     -41.016  52.528 -54.582  1.00  0.00    -0.228 NA
HETATM   23  N   UNK A   0     -40.687  52.833 -52.411  1.00  0.00    -0.338 N 
HETATM   24  C   UNK A   0     -42.304  54.744 -52.051  1.00  0.00     0.034 A 
HETATM   25  H   UNK A   0     -40.309  52.692 -51.484  1.00  0.00     0.167 HD
HETATM   26  C   UNK A   0     -40.353  52.100 -53.523  1.00  0.00     0.170 A 
HETATM   27  C   UNK A   0     -43.222  55.522 -52.768  1.00  0.00     0.032 A 
BRANCH  26  28
HETATM   28  C   UNK A   0     -39.372  50.988 -53.439  1.00  0.00     0.422 C 
HETATM   29  F   UNK A   0     -39.334  50.477 -52.177  1.00  0.00    -0.206 F 
HETATM   30  F   UNK A   0     -39.753  49.952 -54.239  1.00  0.00    -0.206 F 
ENDBRANCH  26  28
ENDBRANCH   4  18
TORSDOF 7
ENDMDL
MODEL 9
REMARK VINA RESULT:      -7.3      7.052     10.198
REMARK  7 active torsions:
REMARK  status: ('A' for Active; 'I' for Inactive)
REMARK    1  A    between atoms: CG_4  and  CB_5 
REMARK    2  A    between atoms: CB_5  and  CA_6 
REMARK    3  A    between atoms: CA_6  and  N_7 
REMARK    4  A    between atoms: CA_6  and  C_8 
REMARK       I    between atoms: N_7  and  C_14 
REMARK    5  A    between atoms: C_8  and  O_9 
REMARK       I    between atoms: C_14  and  N_15 
REMARK    6  A    between atoms: N_15  and  C_16 
REMARK    7  A    between atoms: C_22  and  C_23 
ROOT
ATOM      1  N   PHE A   1     -40.570  55.556 -50.104  1.00  0.00    -0.336 N 
ATOM      2  H   PHE A   1     -40.005  55.998 -49.396  1.00  0.00     0.164 HD
HETATM    3  C   UNK A   0     -41.354  56.353 -50.905  1.00  0.00     0.321 C 
HETATM    4  N   UNK A   0     -40.945  57.663 -50.865  1.00  0.00    -0.309 N 
HETATM    5  O   UNK A   0     -42.286  55.883 -51.546  1.00  0.00    -0.247 OA
HETATM    6  H   UNK A   0     -40.131  57.854 -50.303  1.00  0.00     0.170 HD
ENDROOT
BRANCH   1   7
ATOM      7  CA  PHE A   1     -40.743  54.098 -50.030  1.00  0.00     0.113 C 
BRANCH   7   8
ATOM      8  CB  PHE A   1     -39.529  53.375 -50.651  1.00  0.00     0.065 C 
BRANCH   8   9
ATOM      9  CG  PHE A   1     -39.845  52.624 -51.925  1.00  0.00    -0.056 A 
ATOM     10  CD1 PHE A   1     -39.421  51.298 -52.093  1.00  0.00     0.007 A 
ATOM     11  CE1 PHE A   1     -39.713  50.605 -53.270  1.00  0.00     0.001 A 
ATOM     12  CZ  PHE A   1     -40.434  51.227 -54.287  1.00  0.00     0.000 A 
ATOM     13  CE2 PHE A   1     -40.870  52.539 -54.128  1.00  0.00     0.001 A 
ATOM     14  CD2 PHE A   1     -40.581  53.234 -52.951  1.00  0.00     0.007 A 
ENDBRANCH   8   9
ENDBRANCH   7   8
BRANCH   7  15
ATOM     15  C   PHE A   1     -40.943  53.630 -48.572  1.00  0.00     0.189 C 
BRANCH  15  16
ATOM     16  O   PHE A   1     -40.704  54.669 -47.626  1.00  0.00    -0.399 OA
ATOM     17  H   PHE A   1     -40.063  54.336 -46.960  1.00  0.00     0.209 HD
ENDBRANCH  15  16
ENDBRANCH   7  15
ENDBRANCH   1   7
BRANCH   4  18
HETATM   18  C   UNK A   0     -41.473  58.756 -51.587  1.00  0.00     0.038 A 
HETATM   19  C   UNK A   0     -42.257  59.762 -51.010  1.00  0.00     0.063 A 
HETATM   20  C   UNK A   0     -42.763  60.787 -51.828  1.00  0.00     0.087 A 
HETATM   21  C   UNK A   0     -42.465  60.790 -53.185  1.00  0.00     0.063 A 
HETATM   22  N   UNK A   0     -43.564  61.856 -51.503  1.00  0.00    -0.228 NA
HETATM   23  N   UNK A   0     -43.108  61.898 -53.673  1.00  0.00    -0.338 N 
HETATM   24  C   UNK A   0     -41.677  59.817 -53.794  1.00  0.00     0.034 A 
HETATM   25  H   UNK A   0     -43.112  62.214 -54.633  1.00  0.00     0.167 HD
HETATM   26  C   UNK A   0     -43.766  62.509 -52.634  1.00  0.00     0.170 A 
HETATM   27  C   UNK A   0     -41.192  58.797 -52.964  1.00  0.00     0.032 A 
BRANCH  26  28
HETATM   28  C   UNK A   0     -44.578  63.732 -52.857  1.00  0.00     0.422 C 
HETATM   29  F   UNK A   0     -44.805  64.378 -51.680  1.00  0.00    -0.206 F 
HETATM   30  F   UNK A   0     -43.899  64.622 -53.636  1.00  0.00    -0.206 F 
ENDBRANCH  26  28
ENDBRANCH   4  18
TORSDOF 7
ENDMDL
MODEL 10
REMARK VINA RESULT:      -7.2      4.062      5.540
REMARK  7 active torsions:
REMARK  status: ('A' for Active; 'I' for Inactive)
REMARK    1  A    between atoms: CG_4  and  CB_5 
REMARK    2  A    between atoms: CB_5  and  CA_6 
REMARK    3  A    between atoms: CA_6  and  N_7 
REMARK    4  A    between atoms: CA_6  and  C_8 
REMARK       I    between atoms: N_7  and  C_14 
REMARK    5  A    between atoms: C_8  and  O_9 
REMARK       I    between atoms: C_14  and  N_15 
REMARK    6  A    between atoms: N_15  and  C_16 
REMARK    7  A    between atoms: C_22  and  C_23 
ROOT
ATOM      1  N   PHE A   1     -43.119  58.587 -50.745  1.00  0.00    -0.336 N 
ATOM      2  H   PHE A   1     -43.292  58.491 -49.757  1.00  0.00     0.164 HD
HETATM    3  C   UNK A   0     -42.296  57.670 -51.356  1.00  0.00     0.321 C 
HETATM    4  N   UNK A   0     -42.149  56.538 -50.593  1.00  0.00    -0.309 N 
HETATM    5  O   UNK A   0     -41.790  57.904 -52.446  1.00  0.00    -0.247 OA
HETATM    6  H   UNK A   0     -42.676  56.515 -49.734  1.00  0.00     0.170 HD
ENDROOT
BRANCH   1   7
ATOM      7  CA  PHE A   1     -43.506  59.852 -51.387  1.00  0.00     0.113 C 
BRANCH   7   8
ATOM      8  CB  PHE A   1     -44.955  59.771 -51.914  1.00  0.00     0.065 C 
BRANCH   8   9
ATOM      9  CG  PHE A   1     -45.057  59.442 -53.387  1.00  0.00    -0.056 A 
ATOM     10  CD1 PHE A   1     -44.999  58.112 -53.825  1.00  0.00     0.007 A 
ATOM     11  CE1 PHE A   1     -45.092  57.809 -55.185  1.00  0.00     0.001 A 
ATOM     12  CZ  PHE A   1     -45.249  58.830 -56.120  1.00  0.00     0.000 A 
ATOM     13  CE2 PHE A   1     -45.319  60.155 -55.697  1.00  0.00     0.001 A 
ATOM     14  CD2 PHE A   1     -45.228  60.460 -54.337  1.00  0.00     0.007 A 
ENDBRANCH   8   9
ENDBRANCH   7   8
BRANCH   7  15
ATOM     15  C   PHE A   1     -43.369  61.041 -50.413  1.00  0.00     0.189 C 
BRANCH  15  16
ATOM     16  O   PHE A   1     -43.736  60.701 -49.079  1.00  0.00    -0.399 OA
ATOM     17  H   PHE A   1     -44.715  60.622 -49.040  1.00  0.00     0.209 HD
ENDBRANCH  15  16
ENDBRANCH   7  15
ENDBRANCH   1   7
BRANCH   4  18
HETATM   18  C   UNK A   0     -41.424  55.370 -50.911  1.00  0.00     0.038 A 
HETATM   19  C   UNK A   0     -41.589  54.654 -52.103  1.00  0.00     0.063 A 
HETATM   20  C   UNK A   0     -40.841  53.482 -52.305  1.00  0.00     0.087 A 
HETATM   21  C   UNK A   0     -39.944  53.065 -51.329  1.00  0.00     0.063 A 
HETATM   22  N   UNK A   0     -40.845  52.609 -53.367  1.00  0.00    -0.228 NA
HETATM   23  N   UNK A   0     -39.402  51.912 -51.834  1.00  0.00    -0.338 N 
HETATM   24  C   UNK A   0     -39.740  53.756 -50.137  1.00  0.00     0.034 A 
HETATM   25  H   UNK A   0     -38.707  51.331 -51.386  1.00  0.00     0.167 HD
HETATM   26  C   UNK A   0     -39.975  51.664 -53.057  1.00  0.00     0.170 A 
HETATM   27  C   UNK A   0     -40.504  54.916 -49.949  1.00  0.00     0.032 A 
BRANCH  26  28
HETATM   28  C   UNK A   0     -39.603  50.461 -53.845  1.00  0.00     0.422 C 
HETATM   29  F   UNK A   0     -39.312  49.418 -53.019  1.00  0.00    -0.206 F 
HETATM   30  F   UNK A   0     -40.655  50.042 -54.604  1.00  0.00    -0.206 F 
ENDBRANCH  26  28
ENDBRANCH   4  18
TORSDOF 7
ENDMDL
