MODEL 1
REMARK VINA RESULT:      -8.4      0.000      0.000
REMARK  10 active torsions:
REMARK  status: ('A' for Active; 'I' for Inactive)
REMARK    1  A    between atoms: C_2  and  C_3 
REMARK    2  A    between atoms: N_4  and  N_5 
REMARK       I    between atoms: N_5  and  C_6 
REMARK    3  A    between atoms: C_6  and  C_7 
REMARK    4  A    between atoms: N_10  and  C_11 
REMARK    5  A    between atoms: C_15  and  N_16 
REMARK    6  A    between atoms: C_17  and  C_18 
REMARK    7  A    between atoms: C_18  and  N_19 
REMARK    8  A    between atoms: C_29  and  O_30 
REMARK    9  A    between atoms: O_30  and  C_31 
REMARK   10  A    between atoms: C_31  and  C_32 
ROOT
HETATM    1  N   UNL     1     -42.897  62.191 -55.605  1.00  0.00    -0.242 N 
HETATM    2  C   UNL     1     -43.102  62.408 -56.956  1.00  0.00     0.294 C 
HETATM    3  O   UNL     1     -43.571  63.480 -57.344  1.00  0.00    -0.264 OA
HETATM    4  H   UNL     1     -43.123  62.953 -54.973  1.00  0.00     0.192 HD
ENDROOT
BRANCH   2   5
HETATM    5  C   UNL     1     -42.718  61.376 -57.927  1.00  0.00     0.176 A 
HETATM    6  N   UNL     1     -41.689  61.475 -58.819  1.00  0.00    -0.124 NA
HETATM    7  N   UNL     1     -41.649  60.375 -59.547  1.00  0.00    -0.058 NA
HETATM    8  N   UNL     1     -42.618  59.529 -59.127  1.00  0.00    -0.191 N 
HETATM    9  C   UNL     1     -43.332  60.137 -58.097  1.00  0.00     0.102 A 
BRANCH   8  10
HETATM   10  C   UNL     1     -42.770  58.232 -59.674  1.00  0.00     0.229 A 
HETATM   11  N   UNL     1     -41.784  57.335 -59.566  1.00  0.00    -0.081 NA
HETATM   12  O   UNL     1     -42.291  56.207 -60.220  1.00  0.00    -0.103 OA
HETATM   13  N   UNL     1     -43.553  56.454 -60.739  1.00  0.00    -0.083 NA
HETATM   14  C   UNL     1     -43.852  57.707 -60.402  1.00  0.00     0.201 A 
BRANCH  14  15
HETATM   15  N   UNL     1     -44.995  58.331 -60.721  1.00  0.00    -0.379 N 
HETATM   16  H   UNL     1     -45.166  59.289 -60.427  1.00  0.00     0.158 HD
HETATM   17  H   UNL     1     -45.725  57.922 -61.301  1.00  0.00     0.158 HD
ENDBRANCH  14  15
ENDBRANCH   8  10
BRANCH   9  18
HETATM   18  C   UNL     1     -44.533  59.567 -57.441  1.00  0.00     0.296 C 
BRANCH  18  19
HETATM   19  N   UNL     1     -44.244  58.676 -56.256  1.00  0.00    -0.066 N 
HETATM   20  H   UNL     1     -43.379  59.046 -55.832  1.00  0.00     0.280 HD
HETATM   21  C   UNL     1     -45.335  58.685 -55.210  1.00  0.00     0.235 C 
HETATM   22  C   UNL     1     -44.871  57.887 -53.999  1.00  0.00     0.028 C 
HETATM   23  C   UNL     1     -44.470  56.465 -54.375  1.00  0.00     0.003 C 
HETATM   24  C   UNL     1     -43.444  56.459 -55.503  1.00  0.00     0.028 C 
HETATM   25  C   UNL     1     -43.918  57.268 -56.701  1.00  0.00     0.235 C 
ENDBRANCH  18  19
ENDBRANCH   9  18
ENDBRANCH   2   5
BRANCH   1  26
HETATM   26  N   UNL     1     -42.475  61.006 -55.100  1.00  0.00    -0.184 NA
HETATM   27  C   UNL     1     -42.461  60.894 -53.811  1.00  0.00     0.150 C 
BRANCH  27  28
HETATM   28  C   UNL     1     -42.054  59.628 -53.170  1.00  0.00    -0.017 A 
HETATM   29  C   UNL     1     -41.259  58.724 -53.873  1.00  0.00     0.016 A 
HETATM   30  C   UNL     1     -40.898  57.515 -53.270  1.00  0.00     0.037 A 
HETATM   31  C   UNL     1     -41.311  57.210 -51.968  1.00  0.00     0.069 A 
HETATM   32  C   UNL     1     -42.082  58.134 -51.262  1.00  0.00     0.037 A 
HETATM   33  C   UNL     1     -42.464  59.336 -51.866  1.00  0.00     0.016 A 
BRANCH  31  34
HETATM   34  O   UNL     1     -40.904  55.987 -51.512  1.00  0.00    -0.347 OA
BRANCH  34  35
HETATM   35  C   UNL     1     -41.846  54.919 -51.575  1.00  0.00     0.216 C 
BRANCH  35  36
HETATM   36  C   UNL     1     -41.178  53.734 -52.231  1.00  0.00    -0.012 A 
HETATM   37  C   UNL     1     -40.411  52.809 -51.501  1.00  0.00     0.044 A 
HETATM   38 CL   UNL     1     -40.173  52.966 -49.796  1.00  0.00    -0.084 Cl
HETATM   39  C   UNL     1     -39.805  51.723 -52.138  1.00  0.00     0.048 A 
HETATM   40  C   UNL     1     -39.972  51.546 -53.508  1.00  0.00     0.035 A 
HETATM   41 CL   UNL     1     -39.222  50.212 -54.294  1.00  0.00    -0.084 Cl
HETATM   42  C   UNL     1     -40.743  52.439 -54.247  1.00  0.00     0.024 A 
HETATM   43  C   UNL     1     -41.348  53.526 -53.611  1.00  0.00     0.013 A 
ENDBRANCH  35  36
ENDBRANCH  34  35
ENDBRANCH  31  34
ENDBRANCH  27  28
ENDBRANCH   1  26
TORSDOF 10
ENDMDL
MODEL 2
REMARK VINA RESULT:      -8.4      1.423      1.811
REMARK  10 active torsions:
REMARK  status: ('A' for Active; 'I' for Inactive)
REMARK    1  A    between atoms: C_2  and  C_3 
REMARK    2  A    between atoms: N_4  and  N_5 
REMARK       I    between atoms: N_5  and  C_6 
REMARK    3  A    between atoms: C_6  and  C_7 
REMARK    4  A    between atoms: N_10  and  C_11 
REMARK    5  A    between atoms: C_15  and  N_16 
REMARK    6  A    between atoms: C_17  and  C_18 
REMARK    7  A    between atoms: C_18  and  N_19 
REMARK    8  A    between atoms: C_29  and  O_30 
REMARK    9  A    between atoms: O_30  and  C_31 
REMARK   10  A    between atoms: C_31  and  C_32 
ROOT
HETATM    1  N   UNL     1     -42.138  61.254 -55.970  1.00  0.00    -0.242 N 
HETATM    2  C   UNL     1     -42.591  61.283 -57.276  1.00  0.00     0.294 C 
HETATM    3  O   UNL     1     -42.896  62.357 -57.800  1.00  0.00    -0.264 OA
HETATM    4  H   UNL     1     -42.047  62.144 -55.490  1.00  0.00     0.192 HD
ENDROOT
BRANCH   2   5
HETATM    5  C   UNL     1     -42.666  60.038 -58.051  1.00  0.00     0.176 A 
HETATM    6  N   UNL     1     -41.750  59.627 -58.976  1.00  0.00    -0.124 NA
HETATM    7  N   UNL     1     -42.147  58.478 -59.489  1.00  0.00    -0.058 NA
HETATM    8  N   UNL     1     -43.301  58.101 -58.891  1.00  0.00    -0.191 N 
HETATM    9  C   UNL     1     -43.673  59.078 -57.970  1.00  0.00     0.102 A 
BRANCH   8  10
HETATM   10  C   UNL     1     -43.929  56.866 -59.184  1.00  0.00     0.229 A 
HETATM   11  N   UNL     1     -43.451  55.728 -58.668  1.00  0.00    -0.081 NA
HETATM   12  O   UNL     1     -44.309  54.748 -59.180  1.00  0.00    -0.103 OA
HETATM   13  N   UNL     1     -45.262  55.306 -60.019  1.00  0.00    -0.083 NA
HETATM   14  C   UNL     1     -45.028  56.616 -60.024  1.00  0.00     0.201 A 
BRANCH  14  15
HETATM   15  N   UNL     1     -45.737  57.515 -60.721  1.00  0.00    -0.379 N 
HETATM   16  H   UNL     1     -45.323  58.009 -61.508  1.00  0.00     0.158 HD
HETATM   17  H   UNL     1     -46.719  57.724 -60.550  1.00  0.00     0.158 HD
ENDBRANCH  14  15
ENDBRANCH   8  10
BRANCH   9  18
HETATM   18  C   UNL     1     -44.930  59.074 -57.186  1.00  0.00     0.296 C 
BRANCH  18  19
HETATM   19  N   UNL     1     -44.742  59.014 -55.688  1.00  0.00    -0.066 N 
HETATM   20  H   UNL     1     -43.728  59.129 -55.528  1.00  0.00     0.280 HD
HETATM   21  C   UNL     1     -45.474  60.104 -54.939  1.00  0.00     0.235 C 
HETATM   22  C   UNL     1     -45.087  60.044 -53.467  1.00  0.00     0.028 C 
HETATM   23  C   UNL     1     -45.361  58.671 -52.864  1.00  0.00     0.003 C 
HETATM   24  C   UNL     1     -44.704  57.565 -53.682  1.00  0.00     0.028 C 
HETATM   25  C   UNL     1     -45.092  57.644 -55.151  1.00  0.00     0.235 C 
ENDBRANCH  18  19
ENDBRANCH   9  18
ENDBRANCH   2   5
BRANCH   1  26
HETATM   26  N   UNL     1     -41.875  60.103 -55.302  1.00  0.00    -0.184 NA
HETATM   27  C   UNL     1     -41.782  60.187 -54.014  1.00  0.00     0.150 C 
BRANCH  27  28
HETATM   28  C   UNL     1     -41.537  58.981 -53.197  1.00  0.00    -0.017 A 
HETATM   29  C   UNL     1     -41.152  57.795 -53.819  1.00  0.00     0.016 A 
HETATM   30  C   UNL     1     -40.947  56.649 -53.044  1.00  0.00     0.037 A 
HETATM   31  C   UNL     1     -41.108  56.685 -51.653  1.00  0.00     0.069 A 
HETATM   32  C   UNL     1     -41.465  57.884 -51.037  1.00  0.00     0.037 A 
HETATM   33  C   UNL     1     -41.692  59.028 -51.809  1.00  0.00     0.016 A 
BRANCH  31  34
HETATM   34  O   UNL     1     -40.896  55.489 -51.024  1.00  0.00    -0.347 OA
BRANCH  34  35
HETATM   35  C   UNL     1     -41.847  54.452 -51.254  1.00  0.00     0.216 C 
BRANCH  35  36
HETATM   36  C   UNL     1     -41.181  53.370 -52.071  1.00  0.00    -0.012 A 
HETATM   37  C   UNL     1     -41.524  53.129 -53.413  1.00  0.00     0.044 A 
HETATM   38 CL   UNL     1     -42.740  54.052 -54.224  1.00  0.00    -0.084 Cl
HETATM   39  C   UNL     1     -40.891  52.118 -54.142  1.00  0.00     0.048 A 
HETATM   40  C   UNL     1     -39.900  51.350 -53.538  1.00  0.00     0.035 A 
HETATM   41 CL   UNL     1     -39.123  50.103 -54.433  1.00  0.00    -0.084 Cl
HETATM   42  C   UNL     1     -39.532  51.585 -52.216  1.00  0.00     0.024 A 
HETATM   43  C   UNL     1     -40.165  52.593 -51.487  1.00  0.00     0.013 A 
ENDBRANCH  35  36
ENDBRANCH  34  35
ENDBRANCH  31  34
ENDBRANCH  27  28
ENDBRANCH   1  26
TORSDOF 10
ENDMDL
MODEL 3
REMARK VINA RESULT:      -8.2      2.087      3.254
REMARK  10 active torsions:
REMARK  status: ('A' for Active; 'I' for Inactive)
REMARK    1  A    between atoms: C_2  and  C_3 
REMARK    2  A    between atoms: N_4  and  N_5 
REMARK       I    between atoms: N_5  and  C_6 
REMARK    3  A    between atoms: C_6  and  C_7 
REMARK    4  A    between atoms: N_10  and  C_11 
REMARK    5  A    between atoms: C_15  and  N_16 
REMARK    6  A    between atoms: C_17  and  C_18 
REMARK    7  A    between atoms: C_18  and  N_19 
REMARK    8  A    between atoms: C_29  and  O_30 
REMARK    9  A    between atoms: O_30  and  C_31 
REMARK   10  A    between atoms: C_31  and  C_32 
ROOT
HETATM    1  N   UNL     1     -42.099  61.037 -57.710  1.00  0.00    -0.242 N 
HETATM    2  C   UNL     1     -42.657  60.769 -58.947  1.00  0.00     0.294 C 
HETATM    3  O   UNL     1     -43.102  61.690 -59.636  1.00  0.00    -0.264 OA
HETATM    4  H   UNL     1     -42.054  62.009 -57.422  1.00  0.00     0.192 HD
ENDROOT
BRANCH   2   5
HETATM    5  C   UNL     1     -42.678  59.392 -59.455  1.00  0.00     0.176 A 
HETATM    6  N   UNL     1     -41.679  58.799 -60.174  1.00  0.00    -0.124 NA
HETATM    7  N   UNL     1     -42.046  57.570 -60.482  1.00  0.00    -0.058 NA
HETATM    8  N   UNL     1     -43.264  57.323 -59.946  1.00  0.00    -0.191 N 
HETATM    9  C   UNL     1     -43.709  58.469 -59.289  1.00  0.00     0.102 A 
BRANCH   8  10
HETATM   10  C   UNL     1     -43.885  56.054 -60.047  1.00  0.00     0.229 A 
HETATM   11  N   UNL     1     -44.483  55.686 -61.185  1.00  0.00    -0.081 NA
HETATM   12  O   UNL     1     -44.974  54.408 -60.901  1.00  0.00    -0.103 OA
HETATM   13  N   UNL     1     -44.695  54.043 -59.592  1.00  0.00    -0.083 NA
HETATM   14  C   UNL     1     -44.021  55.062 -59.062  1.00  0.00     0.201 A 
BRANCH  14  15
HETATM   15  N   UNL     1     -43.567  55.102 -57.801  1.00  0.00    -0.379 N 
HETATM   16  H   UNL     1     -44.199  55.273 -57.024  1.00  0.00     0.158 HD
HETATM   17  H   UNL     1     -42.600  54.922 -57.537  1.00  0.00     0.158 HD
ENDBRANCH  14  15
ENDBRANCH   8  10
BRANCH   9  18
HETATM   18  C   UNL     1     -45.041  58.626 -58.660  1.00  0.00     0.296 C 
BRANCH  18  19
HETATM   19  N   UNL     1     -46.091  59.252 -59.548  1.00  0.00    -0.066 N 
HETATM   20  H   UNL     1     -45.572  59.779 -60.267  1.00  0.00     0.280 HD
HETATM   21  C   UNL     1     -46.982  58.244 -60.237  1.00  0.00     0.235 C 
HETATM   22  C   UNL     1     -47.889  58.972 -61.221  1.00  0.00     0.028 C 
HETATM   23  C   UNL     1     -48.705  60.065 -60.540  1.00  0.00     0.003 C 
HETATM   24  C   UNL     1     -47.809  61.020 -59.760  1.00  0.00     0.028 C 
HETATM   25  C   UNL     1     -46.903  60.278 -58.789  1.00  0.00     0.235 C 
ENDBRANCH  18  19
ENDBRANCH   9  18
ENDBRANCH   2   5
BRANCH   1  26
HETATM   26  N   UNL     1     -41.678  60.067 -56.861  1.00  0.00    -0.184 NA
HETATM   27  C   UNL     1     -42.310  59.964 -55.736  1.00  0.00     0.150 C 
BRANCH  27  28
HETATM   28  C   UNL     1     -41.949  58.914 -54.764  1.00  0.00    -0.017 A 
HETATM   29  C   UNL     1     -42.542  57.656 -54.857  1.00  0.00     0.016 A 
HETATM   30  C   UNL     1     -42.217  56.673 -53.917  1.00  0.00     0.037 A 
HETATM   31  C   UNL     1     -41.292  56.931 -52.898  1.00  0.00     0.069 A 
HETATM   32  C   UNL     1     -40.682  58.184 -52.831  1.00  0.00     0.037 A 
HETATM   33  C   UNL     1     -41.019  59.179 -53.754  1.00  0.00     0.016 A 
BRANCH  31  34
HETATM   34  O   UNL     1     -41.084  55.889 -52.038  1.00  0.00    -0.347 OA
BRANCH  34  35
HETATM   35  C   UNL     1     -42.002  54.799 -52.098  1.00  0.00     0.216 C 
BRANCH  35  36
HETATM   36  C   UNL     1     -41.261  53.581 -52.597  1.00  0.00    -0.012 A 
HETATM   37  C   UNL     1     -40.373  52.859 -51.781  1.00  0.00     0.044 A 
HETATM   38 CL   UNL     1     -40.060  53.318 -50.144  1.00  0.00    -0.084 Cl
HETATM   39  C   UNL     1     -39.702  51.736 -52.274  1.00  0.00     0.048 A 
HETATM   40  C   UNL     1     -39.924  51.319 -53.583  1.00  0.00     0.035 A 
HETATM   41 CL   UNL     1     -39.095  49.941 -54.192  1.00  0.00    -0.084 Cl
HETATM   42  C   UNL     1     -40.814  52.009 -54.402  1.00  0.00     0.024 A 
HETATM   43  C   UNL     1     -41.484  53.132 -53.911  1.00  0.00     0.013 A 
ENDBRANCH  35  36
ENDBRANCH  34  35
ENDBRANCH  31  34
ENDBRANCH  27  28
ENDBRANCH   1  26
TORSDOF 10
ENDMDL
MODEL 4
REMARK VINA RESULT:      -8.0      1.823      3.630
REMARK  10 active torsions:
REMARK  status: ('A' for Active; 'I' for Inactive)
REMARK    1  A    between atoms: C_2  and  C_3 
REMARK    2  A    between atoms: N_4  and  N_5 
REMARK       I    between atoms: N_5  and  C_6 
REMARK    3  A    between atoms: C_6  and  C_7 
REMARK    4  A    between atoms: N_10  and  C_11 
REMARK    5  A    between atoms: C_15  and  N_16 
REMARK    6  A    between atoms: C_17  and  C_18 
REMARK    7  A    between atoms: C_18  and  N_19 
REMARK    8  A    between atoms: C_29  and  O_30 
REMARK    9  A    between atoms: O_30  and  C_31 
REMARK   10  A    between atoms: C_31  and  C_32 
ROOT
HETATM    1  N   UNL     1     -43.652  61.025 -54.153  1.00  0.00    -0.242 N 
HETATM    2  C   UNL     1     -44.355  61.118 -55.340  1.00  0.00     0.294 C 
HETATM    3  O   UNL     1     -44.883  62.185 -55.663  1.00  0.00    -0.264 OA
HETATM    4  H   UNL     1     -43.574  61.867 -53.592  1.00  0.00     0.192 HD
ENDROOT
BRANCH   2   5
HETATM    5  C   UNL     1     -44.434  59.957 -56.235  1.00  0.00     0.176 A 
HETATM    6  N   UNL     1     -45.502  59.112 -56.340  1.00  0.00    -0.124 NA
HETATM    7  N   UNL     1     -45.217  58.172 -57.221  1.00  0.00    -0.058 NA
HETATM    8  N   UNL     1     -43.985  58.400 -57.730  1.00  0.00    -0.191 N 
HETATM    9  C   UNL     1     -43.445  59.529 -57.117  1.00  0.00     0.102 A 
BRANCH   8  10
HETATM   10  C   UNL     1     -43.437  57.594 -58.758  1.00  0.00     0.229 A 
HETATM   11  N   UNL     1     -43.026  58.149 -59.902  1.00  0.00    -0.081 NA
HETATM   12  O   UNL     1     -42.567  57.060 -60.652  1.00  0.00    -0.103 OA
HETATM   13  N   UNL     1     -42.742  55.870 -59.963  1.00  0.00    -0.083 NA
HETATM   14  C   UNL     1     -43.280  56.198 -58.790  1.00  0.00     0.201 A 
BRANCH  14  15
HETATM   15  N   UNL     1     -43.607  55.322 -57.829  1.00  0.00    -0.379 N 
HETATM   16  H   UNL     1     -43.665  54.327 -58.027  1.00  0.00     0.158 HD
HETATM   17  H   UNL     1     -43.766  55.577 -56.855  1.00  0.00     0.158 HD
ENDBRANCH  14  15
ENDBRANCH   8  10
BRANCH   9  18
HETATM   18  C   UNL     1     -42.072  60.042 -57.336  1.00  0.00     0.296 C 
BRANCH  18  19
HETATM   19  N   UNL     1     -41.902  60.885 -58.578  1.00  0.00    -0.066 N 
HETATM   20  H   UNL     1     -41.692  60.222 -59.340  1.00  0.00     0.280 HD
HETATM   21  C   UNL     1     -43.137  61.673 -58.951  1.00  0.00     0.235 C 
HETATM   22  C   UNL     1     -42.907  62.354 -60.294  1.00  0.00     0.028 C 
HETATM   23  C   UNL     1     -41.665  63.237 -60.277  1.00  0.00     0.003 C 
HETATM   24  C   UNL     1     -40.441  62.463 -59.802  1.00  0.00     0.028 C 
HETATM   25  C   UNL     1     -40.689  61.781 -58.465  1.00  0.00     0.235 C 
ENDBRANCH  18  19
ENDBRANCH   9  18
ENDBRANCH   2   5
BRANCH   1  26
HETATM   26  N   UNL     1     -43.128  59.863 -53.691  1.00  0.00    -0.184 NA
HETATM   27  C   UNL     1     -43.676  59.357 -52.633  1.00  0.00     0.150 C 
BRANCH  27  28
HETATM   28  C   UNL     1     -43.200  58.075 -52.079  1.00  0.00    -0.017 A 
HETATM   29  C   UNL     1     -42.021  58.041 -51.336  1.00  0.00     0.016 A 
HETATM   30  C   UNL     1     -41.560  56.819 -50.835  1.00  0.00     0.037 A 
HETATM   31  C   UNL     1     -42.276  55.636 -51.057  1.00  0.00     0.069 A 
HETATM   32  C   UNL     1     -43.470  55.685 -51.777  1.00  0.00     0.037 A 
HETATM   33  C   UNL     1     -43.925  56.900 -52.299  1.00  0.00     0.016 A 
BRANCH  31  34
HETATM   34  O   UNL     1     -41.701  54.514 -50.530  1.00  0.00    -0.347 OA
BRANCH  34  35
HETATM   35  C   UNL     1     -40.310  54.315 -50.774  1.00  0.00     0.216 C 
BRANCH  35  36
HETATM   36  C   UNL     1     -40.159  53.198 -51.780  1.00  0.00    -0.012 A 
HETATM   37  C   UNL     1     -40.281  53.417 -53.164  1.00  0.00     0.044 A 
HETATM   38 CL   UNL     1     -40.620  54.982 -53.814  1.00  0.00    -0.084 Cl
HETATM   39  C   UNL     1     -40.137  52.362 -54.069  1.00  0.00     0.048 A 
HETATM   40  C   UNL     1     -39.856  51.083 -53.599  1.00  0.00     0.035 A 
HETATM   41 CL   UNL     1     -39.684  49.783 -54.712  1.00  0.00    -0.084 Cl
HETATM   42  C   UNL     1     -39.713  50.848 -52.234  1.00  0.00     0.024 A 
HETATM   43  C   UNL     1     -39.858  51.901 -51.328  1.00  0.00     0.013 A 
ENDBRANCH  35  36
ENDBRANCH  34  35
ENDBRANCH  31  34
ENDBRANCH  27  28
ENDBRANCH   1  26
TORSDOF 10
ENDMDL
MODEL 5
REMARK VINA RESULT:      -8.0      2.176      3.390
REMARK  10 active torsions:
REMARK  status: ('A' for Active; 'I' for Inactive)
REMARK    1  A    between atoms: C_2  and  C_3 
REMARK    2  A    between atoms: N_4  and  N_5 
REMARK       I    between atoms: N_5  and  C_6 
REMARK    3  A    between atoms: C_6  and  C_7 
REMARK    4  A    between atoms: N_10  and  C_11 
REMARK    5  A    between atoms: C_15  and  N_16 
REMARK    6  A    between atoms: C_17  and  C_18 
REMARK    7  A    between atoms: C_18  and  N_19 
REMARK    8  A    between atoms: C_29  and  O_30 
REMARK    9  A    between atoms: O_30  and  C_31 
REMARK   10  A    between atoms: C_31  and  C_32 
ROOT
HETATM    1  N   UNL     1     -45.279  60.280 -54.053  1.00  0.00    -0.242 N 
HETATM    2  C   UNL     1     -45.110  60.701 -55.360  1.00  0.00     0.294 C 
HETATM    3  O   UNL     1     -45.628  61.753 -55.741  1.00  0.00    -0.264 OA
HETATM    4  H   UNL     1     -45.814  60.882 -53.436  1.00  0.00     0.192 HD
ENDROOT
BRANCH   2   5
HETATM    5  C   UNL     1     -44.278  59.914 -56.279  1.00  0.00     0.176 A 
HETATM    6  N   UNL     1     -42.920  60.002 -56.386  1.00  0.00    -0.124 NA
HETATM    7  N   UNL     1     -42.511  59.169 -57.324  1.00  0.00    -0.058 NA
HETATM    8  N   UNL     1     -43.578  58.500 -57.819  1.00  0.00    -0.191 N 
HETATM    9  C   UNL     1     -44.731  58.956 -57.183  1.00  0.00     0.102 A 
BRANCH   8  10
HETATM   10  C   UNL     1     -43.438  57.480 -58.791  1.00  0.00     0.229 A 
HETATM   11  N   UNL     1     -43.419  57.788 -60.092  1.00  0.00    -0.081 NA
HETATM   12  O   UNL     1     -43.280  56.547 -60.723  1.00  0.00    -0.103 OA
HETATM   13  N   UNL     1     -43.254  55.515 -59.798  1.00  0.00    -0.083 NA
HETATM   14  C   UNL     1     -43.352  56.090 -58.601  1.00  0.00     0.201 A 
BRANCH  14  15
HETATM   15  N   UNL     1     -43.366  55.429 -57.435  1.00  0.00    -0.379 N 
HETATM   16  H   UNL     1     -42.536  55.386 -56.850  1.00  0.00     0.158 HD
HETATM   17  H   UNL     1     -44.192  54.980 -57.044  1.00  0.00     0.158 HD
ENDBRANCH  14  15
ENDBRANCH   8  10
BRANCH   9  18
HETATM   18  C   UNL     1     -46.111  58.536 -57.521  1.00  0.00     0.296 C 
BRANCH  18  19
HETATM   19  N   UNL     1     -46.361  58.305 -58.993  1.00  0.00    -0.066 N 
HETATM   20  H   UNL     1     -45.438  58.377 -59.448  1.00  0.00     0.280 HD
HETATM   21  C   UNL     1     -46.948  56.947 -59.303  1.00  0.00     0.235 C 
HETATM   22  C   UNL     1     -47.007  56.764 -60.814  1.00  0.00     0.028 C 
HETATM   23  C   UNL     1     -47.793  57.880 -61.492  1.00  0.00     0.003 C 
HETATM   24  C   UNL     1     -47.262  59.252 -61.094  1.00  0.00     0.028 C 
HETATM   25  C   UNL     1     -47.200  59.417 -59.583  1.00  0.00     0.235 C 
ENDBRANCH  18  19
ENDBRANCH   9  18
ENDBRANCH   2   5
BRANCH   1  26
HETATM   26  N   UNL     1     -44.819  59.090 -53.593  1.00  0.00    -0.184 NA
HETATM   27  C   UNL     1     -43.877  59.134 -52.706  1.00  0.00     0.150 C 
BRANCH  27  28
HETATM   28  C   UNL     1     -43.339  57.892 -52.118  1.00  0.00    -0.017 A 
HETATM   29  C   UNL     1     -42.191  57.944 -51.328  1.00  0.00     0.016 A 
HETATM   30  C   UNL     1     -41.671  56.761 -50.795  1.00  0.00     0.037 A 
HETATM   31  C   UNL     1     -42.296  55.531 -51.031  1.00  0.00     0.069 A 
HETATM   32  C   UNL     1     -43.460  55.492 -51.798  1.00  0.00     0.037 A 
HETATM   33  C   UNL     1     -43.974  56.669 -52.352  1.00  0.00     0.016 A 
BRANCH  31  34
HETATM   34  O   UNL     1     -41.669  54.454 -50.468  1.00  0.00    -0.347 OA
BRANCH  34  35
HETATM   35  C   UNL     1     -40.280  54.287 -50.746  1.00  0.00     0.216 C 
BRANCH  35  36
HETATM   36  C   UNL     1     -40.128  53.173 -51.754  1.00  0.00    -0.012 A 
HETATM   37  C   UNL     1     -40.254  53.393 -53.138  1.00  0.00     0.044 A 
HETATM   38 CL   UNL     1     -40.599  54.959 -53.784  1.00  0.00    -0.084 Cl
HETATM   39  C   UNL     1     -40.109  52.340 -54.045  1.00  0.00     0.048 A 
HETATM   40  C   UNL     1     -39.824  51.061 -53.577  1.00  0.00     0.035 A 
HETATM   41 CL   UNL     1     -39.650  49.764 -54.693  1.00  0.00    -0.084 Cl
HETATM   42  C   UNL     1     -39.677  50.825 -52.214  1.00  0.00     0.024 A 
HETATM   43  C   UNL     1     -39.823  51.876 -51.306  1.00  0.00     0.013 A 
ENDBRANCH  35  36
ENDBRANCH  34  35
ENDBRANCH  31  34
ENDBRANCH  27  28
ENDBRANCH   1  26
TORSDOF 10
ENDMDL
MODEL 6
REMARK VINA RESULT:      -8.0      1.994      3.122
REMARK  10 active torsions:
REMARK  status: ('A' for Active; 'I' for Inactive)
REMARK    1  A    between atoms: C_2  and  C_3 
REMARK    2  A    between atoms: N_4  and  N_5 
REMARK       I    between atoms: N_5  and  C_6 
REMARK    3  A    between atoms: C_6  and  C_7 
REMARK    4  A    between atoms: N_10  and  C_11 
REMARK    5  A    between atoms: C_15  and  N_16 
REMARK    6  A    between atoms: C_17  and  C_18 
REMARK    7  A    between atoms: C_18  and  N_19 
REMARK    8  A    between atoms: C_29  and  O_30 
REMARK    9  A    between atoms: O_30  and  C_31 
REMARK   10  A    between atoms: C_31  and  C_32 
ROOT
HETATM    1  N   UNL     1     -42.550  61.410 -55.707  1.00  0.00    -0.242 N 
HETATM    2  C   UNL     1     -42.747  61.334 -57.074  1.00  0.00     0.294 C 
HETATM    3  O   UNL     1     -43.071  62.341 -57.708  1.00  0.00    -0.264 OA
HETATM    4  H   UNL     1     -42.656  62.321 -55.273  1.00  0.00     0.192 HD
ENDROOT
BRANCH   2   5
HETATM    5  C   UNL     1     -42.529  60.062 -57.773  1.00  0.00     0.176 A 
HETATM    6  N   UNL     1     -41.311  59.552 -58.123  1.00  0.00    -0.124 NA
HETATM    7  N   UNL     1     -41.493  58.408 -58.755  1.00  0.00    -0.058 NA
HETATM    8  N   UNL     1     -42.817  58.131 -58.799  1.00  0.00    -0.191 N 
HETATM    9  C   UNL     1     -43.516  59.172 -58.190  1.00  0.00     0.102 A 
BRANCH   8  10
HETATM   10  C   UNL     1     -43.313  56.926 -59.352  1.00  0.00     0.229 A 
HETATM   11  N   UNL     1     -43.568  56.840 -60.662  1.00  0.00    -0.081 NA
HETATM   12  O   UNL     1     -44.040  55.533 -60.822  1.00  0.00    -0.103 OA
HETATM   13  N   UNL     1     -44.095  54.868 -59.606  1.00  0.00    -0.083 NA
HETATM   14  C   UNL     1     -43.646  55.729 -58.695  1.00  0.00     0.201 A 
BRANCH  14  15
HETATM   15  N   UNL     1     -43.543  55.467 -57.384  1.00  0.00    -0.379 N 
HETATM   16  H   UNL     1     -44.275  54.960 -56.894  1.00  0.00     0.158 HD
HETATM   17  H   UNL     1     -42.731  55.706 -56.817  1.00  0.00     0.158 HD
ENDBRANCH  14  15
ENDBRANCH   8  10
BRANCH   9  18
HETATM   18  C   UNL     1     -44.992  59.282 -58.126  1.00  0.00     0.296 C 
BRANCH  18  19
HETATM   19  N   UNL     1     -45.709  58.934 -59.410  1.00  0.00    -0.066 N 
HETATM   20  H   UNL     1     -44.975  58.627 -60.067  1.00  0.00     0.280 HD
HETATM   21  C   UNL     1     -46.718  57.819 -59.259  1.00  0.00     0.235 C 
HETATM   22  C   UNL     1     -47.258  57.446 -60.634  1.00  0.00     0.028 C 
HETATM   23  C   UNL     1     -47.859  58.649 -61.353  1.00  0.00     0.003 C 
HETATM   24  C   UNL     1     -46.871  59.809 -61.412  1.00  0.00     0.028 C 
HETATM   25  C   UNL     1     -46.334  60.163 -60.034  1.00  0.00     0.235 C 
ENDBRANCH  18  19
ENDBRANCH   9  18
ENDBRANCH   2   5
BRANCH   1  26
HETATM   26  N   UNL     1     -42.287  60.327 -54.935  1.00  0.00    -0.184 NA
HETATM   27  C   UNL     1     -42.772  60.337 -53.735  1.00  0.00     0.150 C 
BRANCH  27  28
HETATM   28  C   UNL     1     -42.571  59.185 -52.833  1.00  0.00    -0.017 A 
HETATM   29  C   UNL     1     -43.675  58.572 -52.243  1.00  0.00     0.016 A 
HETATM   30  C   UNL     1     -43.478  57.498 -51.369  1.00  0.00     0.037 A 
HETATM   31  C   UNL     1     -42.189  57.024 -51.094  1.00  0.00     0.069 A 
HETATM   32  C   UNL     1     -41.093  57.625 -51.712  1.00  0.00     0.037 A 
HETATM   33  C   UNL     1     -41.283  58.713 -52.571  1.00  0.00     0.016 A 
BRANCH  31  34
HETATM   34  O   UNL     1     -42.142  55.984 -50.207  1.00  0.00    -0.347 OA
BRANCH  34  35
HETATM   35  C   UNL     1     -42.844  54.794 -50.555  1.00  0.00     0.216 C 
BRANCH  35  36
HETATM   36  C   UNL     1     -41.934  53.934 -51.399  1.00  0.00    -0.012 A 
HETATM   37  C   UNL     1     -42.088  53.828 -52.793  1.00  0.00     0.044 A 
HETATM   38 CL   UNL     1     -43.336  54.671 -53.640  1.00  0.00    -0.084 Cl
HETATM   39  C   UNL     1     -41.229  53.022 -53.547  1.00  0.00     0.048 A 
HETATM   40  C   UNL     1     -40.203  52.327 -52.914  1.00  0.00     0.035 A 
HETATM   41 CL   UNL     1     -39.149  51.332 -53.840  1.00  0.00    -0.084 Cl
HETATM   42  C   UNL     1     -40.022  52.434 -51.538  1.00  0.00     0.024 A 
HETATM   43  C   UNL     1     -40.880  53.237 -50.784  1.00  0.00     0.013 A 
ENDBRANCH  35  36
ENDBRANCH  34  35
ENDBRANCH  31  34
ENDBRANCH  27  28
ENDBRANCH   1  26
TORSDOF 10
ENDMDL
MODEL 7
REMARK VINA RESULT:      -7.7      1.896      3.743
REMARK  10 active torsions:
REMARK  status: ('A' for Active; 'I' for Inactive)
REMARK    1  A    between atoms: C_2  and  C_3 
REMARK    2  A    between atoms: N_4  and  N_5 
REMARK       I    between atoms: N_5  and  C_6 
REMARK    3  A    between atoms: C_6  and  C_7 
REMARK    4  A    between atoms: N_10  and  C_11 
REMARK    5  A    between atoms: C_15  and  N_16 
REMARK    6  A    between atoms: C_17  and  C_18 
REMARK    7  A    between atoms: C_18  and  N_19 
REMARK    8  A    between atoms: C_29  and  O_30 
REMARK    9  A    between atoms: O_30  and  C_31 
REMARK   10  A    between atoms: C_31  and  C_32 
ROOT
HETATM    1  N   UNL     1     -45.188  60.897 -56.015  1.00  0.00    -0.242 N 
HETATM    2  C   UNL     1     -46.034  60.736 -57.097  1.00  0.00     0.294 C 
HETATM    3  O   UNL     1     -46.673  61.698 -57.530  1.00  0.00    -0.264 OA
HETATM    4  H   UNL     1     -45.105  61.831 -55.625  1.00  0.00     0.192 HD
ENDROOT
BRANCH   2   5
HETATM    5  C   UNL     1     -46.136  59.428 -57.756  1.00  0.00     0.176 A 
HETATM    6  N   UNL     1     -47.259  58.654 -57.805  1.00  0.00    -0.124 NA
HETATM    7  N   UNL     1     -46.982  57.540 -58.456  1.00  0.00    -0.058 NA
HETATM    8  N   UNL     1     -45.695  57.578 -58.872  1.00  0.00    -0.191 N 
HETATM    9  C   UNL     1     -45.114  58.767 -58.434  1.00  0.00     0.102 A 
BRANCH   8  10
HETATM   10  C   UNL     1     -45.132  56.548 -59.664  1.00  0.00     0.229 A 
HETATM   11  N   UNL     1     -43.938  56.035 -59.352  1.00  0.00    -0.081 NA
HETATM   12  O   UNL     1     -43.721  55.075 -60.346  1.00  0.00    -0.103 OA
HETATM   13  N   UNL     1     -44.768  55.050 -61.255  1.00  0.00    -0.083 NA
HETATM   14  C   UNL     1     -45.642  55.962 -60.835  1.00  0.00     0.201 A 
BRANCH  14  15
HETATM   15  N   UNL     1     -46.800  56.249 -61.448  1.00  0.00    -0.379 N 
HETATM   16  H   UNL     1     -47.547  55.562 -61.500  1.00  0.00     0.158 HD
HETATM   17  H   UNL     1     -47.024  57.158 -61.847  1.00  0.00     0.158 HD
ENDBRANCH  14  15
ENDBRANCH   8  10
BRANCH   9  18
HETATM   18  C   UNL     1     -43.689  59.131 -58.608  1.00  0.00     0.296 C 
BRANCH  18  19
HETATM   19  N   UNL     1     -43.416  60.104 -59.731  1.00  0.00    -0.066 N 
HETATM   20  H   UNL     1     -44.267  60.104 -60.314  1.00  0.00     0.280 HD
HETATM   21  C   UNL     1     -43.152  61.516 -59.261  1.00  0.00     0.235 C 
HETATM   22  C   UNL     1     -43.050  62.433 -60.473  1.00  0.00     0.028 C 
HETATM   23  C   UNL     1     -41.982  61.962 -61.454  1.00  0.00     0.003 C 
HETATM   24  C   UNL     1     -42.194  60.504 -61.846  1.00  0.00     0.028 C 
HETATM   25  C   UNL     1     -42.303  59.603 -60.626  1.00  0.00     0.235 C 
ENDBRANCH  18  19
ENDBRANCH   9  18
ENDBRANCH   2   5
BRANCH   1  26
HETATM   26  N   UNL     1     -44.530  59.866 -55.429  1.00  0.00    -0.184 NA
HETATM   27  C   UNL     1     -45.139  59.264 -54.458  1.00  0.00     0.150 C 
BRANCH  27  28
HETATM   28  C   UNL     1     -44.519  58.106 -53.785  1.00  0.00    -0.017 A 
HETATM   29  C   UNL     1     -44.071  58.232 -52.470  1.00  0.00     0.016 A 
HETATM   30  C   UNL     1     -43.460  57.140 -51.846  1.00  0.00     0.037 A 
HETATM   31  C   UNL     1     -43.309  55.921 -52.518  1.00  0.00     0.069 A 
HETATM   32  C   UNL     1     -43.786  55.796 -53.822  1.00  0.00     0.037 A 
HETATM   33  C   UNL     1     -44.379  56.891 -54.460  1.00  0.00     0.016 A 
BRANCH  31  34
HETATM   34  O   UNL     1     -42.677  54.947 -51.796  1.00  0.00    -0.347 OA
BRANCH  34  35
HETATM   35  C   UNL     1     -41.252  54.979 -51.761  1.00  0.00     0.216 C 
BRANCH  35  36
HETATM   36  C   UNL     1     -40.732  53.705 -52.383  1.00  0.00    -0.012 A 
HETATM   37  C   UNL     1     -40.280  52.624 -51.606  1.00  0.00     0.044 A 
HETATM   38 CL   UNL     1     -40.280  52.680 -49.878  1.00  0.00    -0.084 Cl
HETATM   39  C   UNL     1     -39.804  51.458 -52.212  1.00  0.00     0.048 A 
HETATM   40  C   UNL     1     -39.789  51.359 -53.600  1.00  0.00     0.035 A 
HETATM   41 CL   UNL     1     -39.198  49.926 -54.346  1.00  0.00    -0.084 Cl
HETATM   42  C   UNL     1     -40.250  52.409 -54.388  1.00  0.00     0.024 A 
HETATM   43  C   UNL     1     -40.725  53.575 -53.783  1.00  0.00     0.013 A 
ENDBRANCH  35  36
ENDBRANCH  34  35
ENDBRANCH  31  34
ENDBRANCH  27  28
ENDBRANCH   1  26
TORSDOF 10
ENDMDL
MODEL 8
REMARK VINA RESULT:      -7.6      4.371      9.368
REMARK  10 active torsions:
REMARK  status: ('A' for Active; 'I' for Inactive)
REMARK    1  A    between atoms: C_2  and  C_3 
REMARK    2  A    between atoms: N_4  and  N_5 
REMARK       I    between atoms: N_5  and  C_6 
REMARK    3  A    between atoms: C_6  and  C_7 
REMARK    4  A    between atoms: N_10  and  C_11 
REMARK    5  A    between atoms: C_15  and  N_16 
REMARK    6  A    between atoms: C_17  and  C_18 
REMARK    7  A    between atoms: C_18  and  N_19 
REMARK    8  A    between atoms: C_29  and  O_30 
REMARK    9  A    between atoms: O_30  and  C_31 
REMARK   10  A    between atoms: C_31  and  C_32 
ROOT
HETATM    1  N   UNL     1     -43.493  55.084 -57.094  1.00  0.00    -0.242 N 
HETATM    2  C   UNL     1     -43.338  54.949 -55.726  1.00  0.00     0.294 C 
HETATM    3  O   UNL     1     -43.435  53.837 -55.201  1.00  0.00    -0.264 OA
HETATM    4  H   UNL     1     -43.658  54.237 -57.628  1.00  0.00     0.192 HD
ENDROOT
BRANCH   2   5
HETATM    5  C   UNL     1     -43.016  56.125 -54.908  1.00  0.00     0.176 A 
HETATM    6  N   UNL     1     -43.861  57.168 -54.657  1.00  0.00    -0.124 NA
HETATM    7  N   UNL     1     -43.234  58.054 -53.908  1.00  0.00    -0.058 NA
HETATM    8  N   UNL     1     -41.992  57.597 -53.625  1.00  0.00    -0.191 N 
HETATM    9  C   UNL     1     -41.809  56.368 -54.256  1.00  0.00     0.102 A 
BRANCH   8  10
HETATM   10  C   UNL     1     -41.109  58.303 -52.773  1.00  0.00     0.229 A 
HETATM   11  N   UNL     1     -39.998  58.860 -53.266  1.00  0.00    -0.081 NA
HETATM   12  O   UNL     1     -39.396  59.444 -52.146  1.00  0.00    -0.103 OA
HETATM   13  N   UNL     1     -40.133  59.200 -50.997  1.00  0.00    -0.083 NA
HETATM   14  C   UNL     1     -41.194  58.494 -51.383  1.00  0.00     0.201 A 
BRANCH  14  15
HETATM   15  N   UNL     1     -42.157  58.053 -50.561  1.00  0.00    -0.379 N 
HETATM   16  H   UNL     1     -43.134  58.080 -50.840  1.00  0.00     0.158 HD
HETATM   17  H   UNL     1     -41.981  57.630 -49.651  1.00  0.00     0.158 HD
ENDBRANCH  14  15
ENDBRANCH   8  10
BRANCH   9  18
HETATM   18  C   UNL     1     -40.544  55.597 -54.267  1.00  0.00     0.296 C 
BRANCH  18  19
HETATM   19  N   UNL     1     -40.666  54.174 -53.776  1.00  0.00    -0.066 N 
HETATM   20  H   UNL     1     -41.677  53.971 -53.754  1.00  0.00     0.280 HD
HETATM   21  C   UNL     1     -39.990  53.162 -54.673  1.00  0.00     0.235 C 
HETATM   22  C   UNL     1     -40.311  51.760 -54.173  1.00  0.00     0.028 C 
HETATM   23  C   UNL     1     -39.908  51.570 -52.715  1.00  0.00     0.003 C 
HETATM   24  C   UNL     1     -40.510  52.655 -51.829  1.00  0.00     0.028 C 
HETATM   25  C   UNL     1     -40.189  54.049 -52.346  1.00  0.00     0.235 C 
ENDBRANCH  18  19
ENDBRANCH   9  18
ENDBRANCH   2   5
BRANCH   1  26
HETATM   26  N   UNL     1     -43.494  56.284 -57.724  1.00  0.00    -0.184 NA
HETATM   27  C   UNL     1     -43.060  56.301 -58.944  1.00  0.00     0.150 C 
BRANCH  27  28
HETATM   28  C   UNL     1     -43.059  57.554 -59.724  1.00  0.00    -0.017 A 
HETATM   29  C   UNL     1     -44.245  58.271 -59.878  1.00  0.00     0.016 A 
HETATM   30  C   UNL     1     -44.244  59.443 -60.641  1.00  0.00     0.037 A 
HETATM   31  C   UNL     1     -43.066  59.912 -61.236  1.00  0.00     0.069 A 
HETATM   32  C   UNL     1     -41.879  59.203 -61.052  1.00  0.00     0.037 A 
HETATM   33  C   UNL     1     -41.878  58.019 -60.308  1.00  0.00     0.016 A 
BRANCH  31  34
HETATM   34  O   UNL     1     -43.214  61.056 -61.970  1.00  0.00    -0.347 OA
BRANCH  34  35
HETATM   35  C   UNL     1     -43.413  62.272 -61.253  1.00  0.00     0.216 C 
BRANCH  35  36
HETATM   36  C   UNL     1     -42.067  62.776 -60.789  1.00  0.00    -0.012 A 
HETATM   37  C   UNL     1     -41.633  62.634 -59.459  1.00  0.00     0.044 A 
HETATM   38 CL   UNL     1     -42.615  61.874 -58.256  1.00  0.00    -0.084 Cl
HETATM   39  C   UNL     1     -40.382  63.112 -59.061  1.00  0.00     0.048 A 
HETATM   40  C   UNL     1     -39.550  63.725 -59.993  1.00  0.00     0.035 A 
HETATM   41 CL   UNL     1     -38.012  64.319 -59.503  1.00  0.00    -0.084 Cl
HETATM   42  C   UNL     1     -39.952  63.859 -61.319  1.00  0.00     0.024 A 
HETATM   43  C   UNL     1     -41.203  63.383 -61.717  1.00  0.00     0.013 A 
ENDBRANCH  35  36
ENDBRANCH  34  35
ENDBRANCH  31  34
ENDBRANCH  27  28
ENDBRANCH   1  26
TORSDOF 10
ENDMDL
MODEL 9
REMARK VINA RESULT:      -7.4      2.605      4.277
REMARK  10 active torsions:
REMARK  status: ('A' for Active; 'I' for Inactive)
REMARK    1  A    between atoms: C_2  and  C_3 
REMARK    2  A    between atoms: N_4  and  N_5 
REMARK       I    between atoms: N_5  and  C_6 
REMARK    3  A    between atoms: C_6  and  C_7 
REMARK    4  A    between atoms: N_10  and  C_11 
REMARK    5  A    between atoms: C_15  and  N_16 
REMARK    6  A    between atoms: C_17  and  C_18 
REMARK    7  A    between atoms: C_18  and  N_19 
REMARK    8  A    between atoms: C_29  and  O_30 
REMARK    9  A    between atoms: O_30  and  C_31 
REMARK   10  A    between atoms: C_31  and  C_32 
ROOT
HETATM    1  N   UNL     1     -43.944  61.590 -58.400  1.00  0.00    -0.242 N 
HETATM    2  C   UNL     1     -43.945  61.083 -59.687  1.00  0.00     0.294 C 
HETATM    3  O   UNL     1     -44.189  61.825 -60.642  1.00  0.00    -0.264 OA
HETATM    4  H   UNL     1     -44.123  62.583 -58.292  1.00  0.00     0.192 HD
ENDROOT
BRANCH   2   5
HETATM    5  C   UNL     1     -43.612  59.672 -59.916  1.00  0.00     0.176 A 
HETATM    6  N   UNL     1     -42.368  59.192 -60.210  1.00  0.00    -0.124 NA
HETATM    7  N   UNL     1     -42.443  57.884 -60.373  1.00  0.00    -0.058 NA
HETATM    8  N   UNL     1     -43.716  57.482 -60.155  1.00  0.00    -0.191 N 
HETATM    9  C   UNL     1     -44.499  58.599 -59.870  1.00  0.00     0.102 A 
BRANCH   8  10
HETATM   10  C   UNL     1     -44.087  56.116 -60.185  1.00  0.00     0.229 A 
HETATM   11  N   UNL     1     -44.587  55.578 -61.302  1.00  0.00    -0.081 NA
HETATM   12  O   UNL     1     -44.835  54.248 -60.945  1.00  0.00    -0.103 OA
HETATM   13  N   UNL     1     -44.514  54.018 -59.616  1.00  0.00    -0.083 NA
HETATM   14  C   UNL     1     -44.051  55.173 -59.143  1.00  0.00     0.201 A 
BRANCH  14  15
HETATM   15  N   UNL     1     -43.633  55.370 -57.884  1.00  0.00    -0.379 N 
HETATM   16  H   UNL     1     -43.196  56.245 -57.610  1.00  0.00     0.158 HD
HETATM   17  H   UNL     1     -43.764  54.699 -57.129  1.00  0.00     0.158 HD
ENDBRANCH  14  15
ENDBRANCH   8  10
BRANCH   9  18
HETATM   18  C   UNL     1     -45.967  58.580 -59.670  1.00  0.00     0.296 C 
BRANCH  18  19
HETATM   19  N   UNL     1     -46.771  58.265 -60.910  1.00  0.00    -0.066 N 
HETATM   20  H   UNL     1     -46.083  58.164 -61.672  1.00  0.00     0.280 HD
HETATM   21  C   UNL     1     -47.569  56.986 -60.807  1.00  0.00     0.235 C 
HETATM   22  C   UNL     1     -48.207  56.687 -62.158  1.00  0.00     0.028 C 
HETATM   23  C   UNL     1     -49.069  57.845 -62.647  1.00  0.00     0.003 C 
HETATM   24  C   UNL     1     -48.288  59.154 -62.651  1.00  0.00     0.028 C 
HETATM   25  C   UNL     1     -47.650  59.434 -61.299  1.00  0.00     0.235 C 
ENDBRANCH  18  19
ENDBRANCH   9  18
ENDBRANCH   2   5
BRANCH   1  26
HETATM   26  N   UNL     1     -43.778  60.816 -57.299  1.00  0.00    -0.184 NA
HETATM   27  C   UNL     1     -44.850  60.489 -56.652  1.00  0.00     0.150 C 
BRANCH  27  28
HETATM   28  C   UNL     1     -44.773  59.617 -55.463  1.00  0.00    -0.017 A 
HETATM   29  C   UNL     1     -44.445  60.167 -54.224  1.00  0.00     0.016 A 
HETATM   30  C   UNL     1     -44.348  59.332 -53.107  1.00  0.00     0.037 A 
HETATM   31  C   UNL     1     -44.593  57.958 -53.214  1.00  0.00     0.069 A 
HETATM   32  C   UNL     1     -44.949  57.422 -54.451  1.00  0.00     0.037 A 
HETATM   33  C   UNL     1     -45.027  58.247 -55.577  1.00  0.00     0.016 A 
BRANCH  31  34
HETATM   34  O   UNL     1     -44.442  57.260 -52.048  1.00  0.00    -0.347 OA
BRANCH  34  35
HETATM   35  C   UNL     1     -43.124  57.155 -51.513  1.00  0.00     0.216 C 
BRANCH  35  36
HETATM   36  C   UNL     1     -42.382  56.089 -52.283  1.00  0.00    -0.012 A 
HETATM   37  C   UNL     1     -42.623  54.718 -52.083  1.00  0.00     0.044 A 
HETATM   38 CL   UNL     1     -43.786  54.154 -50.935  1.00  0.00    -0.084 Cl
HETATM   39  C   UNL     1     -41.918  53.755 -52.811  1.00  0.00     0.048 A 
HETATM   40  C   UNL     1     -40.976  54.156 -53.753  1.00  0.00     0.035 A 
HETATM   41 CL   UNL     1     -40.104  52.972 -54.645  1.00  0.00    -0.084 Cl
HETATM   42  C   UNL     1     -40.735  55.508 -53.980  1.00  0.00     0.024 A 
HETATM   43  C   UNL     1     -41.438  56.471 -53.253  1.00  0.00     0.013 A 
ENDBRANCH  35  36
ENDBRANCH  34  35
ENDBRANCH  31  34
ENDBRANCH  27  28
ENDBRANCH   1  26
TORSDOF 10
ENDMDL
MODEL 10
REMARK VINA RESULT:      -7.4      6.025      9.420
REMARK  10 active torsions:
REMARK  status: ('A' for Active; 'I' for Inactive)
REMARK    1  A    between atoms: C_2  and  C_3 
REMARK    2  A    between atoms: N_4  and  N_5 
REMARK       I    between atoms: N_5  and  C_6 
REMARK    3  A    between atoms: C_6  and  C_7 
REMARK    4  A    between atoms: N_10  and  C_11 
REMARK    5  A    between atoms: C_15  and  N_16 
REMARK    6  A    between atoms: C_17  and  C_18 
REMARK    7  A    between atoms: C_18  and  N_19 
REMARK    8  A    between atoms: C_29  and  O_30 
REMARK    9  A    between atoms: O_30  and  C_31 
REMARK   10  A    between atoms: C_31  and  C_32 
ROOT
HETATM    1  N   UNL     1     -42.255  60.165 -50.067  1.00  0.00    -0.242 N 
HETATM    2  C   UNL     1     -41.195  59.586 -50.742  1.00  0.00     0.294 C 
HETATM    3  O   UNL     1     -40.079  59.546 -50.221  1.00  0.00    -0.264 OA
HETATM    4  H   UNL     1     -42.072  60.520 -49.134  1.00  0.00     0.192 HD
ENDROOT
BRANCH   2   5
HETATM    5  C   UNL     1     -41.414  58.982 -52.063  1.00  0.00     0.176 A 
HETATM    6  N   UNL     1     -41.214  59.607 -53.260  1.00  0.00    -0.124 NA
HETATM    7  N   UNL     1     -41.531  58.775 -54.234  1.00  0.00    -0.058 NA
HETATM    8  N   UNL     1     -41.906  57.589 -53.700  1.00  0.00    -0.191 N 
HETATM    9  C   UNL     1     -41.855  57.684 -52.310  1.00  0.00     0.102 A 
BRANCH   8  10
HETATM   10  C   UNL     1     -42.232  56.473 -54.507  1.00  0.00     0.229 A 
HETATM   11  N   UNL     1     -41.269  55.798 -55.143  1.00  0.00    -0.081 NA
HETATM   12  O   UNL     1     -41.966  54.796 -55.828  1.00  0.00    -0.103 OA
HETATM   13  N   UNL     1     -43.333  54.906 -55.622  1.00  0.00    -0.083 NA
HETATM   14  C   UNL     1     -43.500  55.944 -54.805  1.00  0.00     0.201 A 
BRANCH  14  15
HETATM   15  N   UNL     1     -44.687  56.383 -54.362  1.00  0.00    -0.379 N 
HETATM   16  H   UNL     1     -44.782  57.310 -53.957  1.00  0.00     0.158 HD
HETATM   17  H   UNL     1     -45.556  55.858 -54.443  1.00  0.00     0.158 HD
ENDBRANCH  14  15
ENDBRANCH   8  10
BRANCH   9  18
HETATM   18  C   UNL     1     -42.287  56.625 -51.369  1.00  0.00     0.296 C 
BRANCH  18  19
HETATM   19  N   UNL     1     -41.276  55.525 -51.147  1.00  0.00    -0.066 N 
HETATM   20  H   UNL     1     -40.424  55.822 -51.649  1.00  0.00     0.280 HD
HETATM   21  C   UNL     1     -40.927  55.305 -49.693  1.00  0.00     0.235 C 
HETATM   22  C   UNL     1     -39.791  54.294 -49.599  1.00  0.00     0.028 C 
HETATM   23  C   UNL     1     -40.140  52.983 -50.294  1.00  0.00     0.003 C 
HETATM   24  C   UNL     1     -40.590  53.220 -51.731  1.00  0.00     0.028 C 
HETATM   25  C   UNL     1     -41.717  54.238 -51.808  1.00  0.00     0.235 C 
ENDBRANCH  18  19
ENDBRANCH   9  18
ENDBRANCH   2   5
BRANCH   1  26
HETATM   26  N   UNL     1     -43.483  60.328 -50.617  1.00  0.00    -0.184 NA
HETATM   27  C   UNL     1     -43.776  61.515 -51.044  1.00  0.00     0.150 C 
BRANCH  27  28
HETATM   28  C   UNL     1     -45.075  61.781 -51.693  1.00  0.00    -0.017 A 
HETATM   29  C   UNL     1     -46.105  60.849 -51.580  1.00  0.00     0.016 A 
HETATM   30  C   UNL     1     -47.325  61.094 -52.219  1.00  0.00     0.037 A 
HETATM   31  C   UNL     1     -47.528  62.269 -52.953  1.00  0.00     0.069 A 
HETATM   32  C   UNL     1     -46.501  63.209 -53.035  1.00  0.00     0.037 A 
HETATM   33  C   UNL     1     -45.271  62.960 -52.417  1.00  0.00     0.016 A 
BRANCH  31  34
HETATM   34  O   UNL     1     -48.758  62.368 -53.541  1.00  0.00    -0.347 OA
BRANCH  34  35
HETATM   35  C   UNL     1     -49.879  61.890 -52.801  1.00  0.00     0.216 C 
BRANCH  35  36
HETATM   36  C   UNL     1     -51.134  62.212 -53.576  1.00  0.00    -0.012 A 
HETATM   37  C   UNL     1     -52.296  62.697 -52.950  1.00  0.00     0.044 A 
HETATM   38 CL   UNL     1     -52.372  62.954 -51.243  1.00  0.00    -0.084 Cl
HETATM   39  C   UNL     1     -53.442  62.984 -53.696  1.00  0.00     0.048 A 
HETATM   40  C   UNL     1     -53.431  62.801 -55.076  1.00  0.00     0.035 A 
HETATM   41 CL   UNL     1     -54.843  63.149 -55.994  1.00  0.00    -0.084 Cl
HETATM   42  C   UNL     1     -52.285  62.340 -55.717  1.00  0.00     0.024 A 
HETATM   43  C   UNL     1     -51.140  62.051 -54.973  1.00  0.00     0.013 A 
ENDBRANCH  35  36
ENDBRANCH  34  35
ENDBRANCH  31  34
ENDBRANCH  27  28
ENDBRANCH   1  26
TORSDOF 10
ENDMDL
