MODEL 1
REMARK VINA RESULT:      -8.7      0.000      0.000
REMARK  7 active torsions:
REMARK  status: ('A' for Active; 'I' for Inactive)
REMARK    1  A    between atoms: C_11  and  N_12 
REMARK       I    between atoms: N_12  and  C_13 
REMARK    2  A    between atoms: C_13  and  C_14 
REMARK    3  A    between atoms: C_14  and  S_15 
REMARK    4  A    between atoms: S_15  and  C_16 
REMARK    5  A    between atoms: N_17  and  C_18 
REMARK    6  A    between atoms: C_18  and  C_19 
REMARK    7  A    between atoms: C_25  and  C_26 
ROOT
HETATM    1  N   UNL     1     -42.322  57.504 -53.763  1.00  0.00    -0.326 N 
HETATM    2  C   UNL     1     -42.676  57.088 -55.038  1.00  0.00     0.231 C 
HETATM    3  O   UNL     1     -43.491  57.640 -55.772  1.00  0.00    -0.272 OA
HETATM    4  H   UNL     1     -41.757  56.853 -53.229  1.00  0.00     0.169 HD
ENDROOT
BRANCH   2   5
HETATM    5  C   UNL     1     -41.891  55.883 -55.532  1.00  0.00     0.185 C 
BRANCH   5   6
HETATM    6  S   UNL     1     -42.754  54.318 -55.180  1.00  0.00    -0.081 SA
BRANCH   6   7
HETATM    7  C   UNL     1     -42.678  54.336 -53.448  1.00  0.00     0.192 A 
HETATM    8  N   UNL     1     -41.594  53.949 -52.694  1.00  0.00    -0.307 N 
HETATM    9  C   UNL     1     -41.982  54.148 -51.384  1.00  0.00     0.135 A 
HETATM   10  N   UNL     1     -43.215  54.622 -51.379  1.00  0.00    -0.134 NA
HETATM   11  N   UNL     1     -43.655  54.724 -52.666  1.00  0.00    -0.123 NA
BRANCH   8  12
HETATM   12  C   UNL     1     -40.294  53.565 -53.211  1.00  0.00     0.171 C 
BRANCH  12  13
HETATM   13  C   UNL     1     -40.004  52.083 -53.154  1.00  0.00    -0.040 A 
HETATM   14  C   UNL     1     -39.633  51.422 -51.973  1.00  0.00     0.009 A 
HETATM   15  C   UNL     1     -39.392  50.046 -51.973  1.00  0.00     0.001 A 
HETATM   16  C   UNL     1     -39.538  49.308 -53.145  1.00  0.00     0.000 A 
HETATM   17  C   UNL     1     -39.932  49.943 -54.319  1.00  0.00     0.001 A 
HETATM   18  C   UNL     1     -40.170  51.319 -54.323  1.00  0.00     0.009 A 
ENDBRANCH  12  13
ENDBRANCH   8  12
BRANCH   9  19
HETATM   19  C   UNL     1     -41.301  53.933 -50.037  1.00  0.00     0.057 A 
HETATM   20  C   UNL     1     -39.974  54.588 -49.731  1.00  0.00     0.013 A 
HETATM   21  C   UNL     1     -41.191  54.987 -48.966  1.00  0.00     0.013 A 
ENDBRANCH   9  19
ENDBRANCH   6   7
ENDBRANCH   5   6
ENDBRANCH   2   5
BRANCH   1  22
HETATM   22  C   UNL     1     -42.749  58.672 -53.098  1.00  0.00     0.037 A 
HETATM   23  C   UNL     1     -42.372  59.962 -53.482  1.00  0.00     0.032 A 
HETATM   24  C   UNL     1     -42.812  61.078 -52.762  1.00  0.00     0.041 A 
HETATM   25  C   UNL     1     -43.647  60.917 -51.662  1.00  0.00     0.096 A 
HETATM   26  O   UNL     1     -44.010  62.055 -51.002  1.00  0.00    -0.335 OA
HETATM   27  C   UNL     1     -44.026  59.634 -51.269  1.00  0.00     0.070 A 
HETATM   28  C   UNL     1     -45.096  61.906 -50.091  1.00  0.00     0.217 C 
HETATM   29  C   UNL     1     -46.366  62.390 -50.787  1.00  0.00     0.050 C 
HETATM   30  C   UNL     1     -45.358  60.528 -49.467  1.00  0.00     0.251 C 
HETATM   31  N   UNL     1     -44.843  59.462 -50.152  1.00  0.00    -0.323 N 
HETATM   32  O   UNL     1     -46.044  60.361 -48.460  1.00  0.00    -0.270 OA
HETATM   33  H   UNL     1     -45.065  58.542 -49.797  1.00  0.00     0.169 HD
HETATM   34  C   UNL     1     -43.573  58.514 -51.974  1.00  0.00     0.062 A 
ENDBRANCH   1  22
TORSDOF 7
ENDMDL
MODEL 2
REMARK VINA RESULT:      -8.4      3.526      6.554
REMARK  7 active torsions:
REMARK  status: ('A' for Active; 'I' for Inactive)
REMARK    1  A    between atoms: C_11  and  N_12 
REMARK       I    between atoms: N_12  and  C_13 
REMARK    2  A    between atoms: C_13  and  C_14 
REMARK    3  A    between atoms: C_14  and  S_15 
REMARK    4  A    between atoms: S_15  and  C_16 
REMARK    5  A    between atoms: N_17  and  C_18 
REMARK    6  A    between atoms: C_18  and  C_19 
REMARK    7  A    between atoms: C_25  and  C_26 
ROOT
HETATM    1  N   UNL     1     -43.509  58.960 -55.063  1.00  0.00    -0.326 N 
HETATM    2  C   UNL     1     -42.468  59.691 -54.510  1.00  0.00     0.231 C 
HETATM    3  O   UNL     1     -41.355  59.841 -55.006  1.00  0.00    -0.272 OA
HETATM    4  H   UNL     1     -44.307  58.804 -54.457  1.00  0.00     0.169 HD
ENDROOT
BRANCH   2   5
HETATM    5  C   UNL     1     -42.836  60.403 -53.218  1.00  0.00     0.185 C 
BRANCH   5   6
HETATM    6  S   UNL     1     -43.872  59.364 -52.140  1.00  0.00    -0.081 SA
BRANCH   6   7
HETATM    7  C   UNL     1     -42.628  58.462 -51.336  1.00  0.00     0.192 A 
HETATM    8  N   UNL     1     -42.530  57.090 -51.310  1.00  0.00    -0.307 N 
HETATM    9  C   UNL     1     -41.389  56.829 -50.577  1.00  0.00     0.135 A 
HETATM   10  N   UNL     1     -40.860  57.979 -50.201  1.00  0.00    -0.134 NA
HETATM   11  N   UNL     1     -41.641  58.997 -50.662  1.00  0.00    -0.123 NA
BRANCH   8  12
HETATM   12  C   UNL     1     -43.379  56.163 -52.036  1.00  0.00     0.171 C 
BRANCH  12  13
HETATM   13  C   UNL     1     -42.805  55.675 -53.345  1.00  0.00    -0.040 A 
HETATM   14  C   UNL     1     -41.467  55.876 -53.716  1.00  0.00     0.009 A 
HETATM   15  C   UNL     1     -40.984  55.389 -54.933  1.00  0.00     0.001 A 
HETATM   16  C   UNL     1     -41.823  54.678 -55.786  1.00  0.00     0.000 A 
HETATM   17  C   UNL     1     -43.146  54.445 -55.423  1.00  0.00     0.001 A 
HETATM   18  C   UNL     1     -43.633  54.935 -54.208  1.00  0.00     0.009 A 
ENDBRANCH  12  13
ENDBRANCH   8  12
BRANCH   9  19
HETATM   19  C   UNL     1     -40.681  55.549 -50.147  1.00  0.00     0.057 A 
HETATM   20  C   UNL     1     -41.122  54.802 -48.910  1.00  0.00     0.013 A 
HETATM   21  C   UNL     1     -41.283  54.171 -50.252  1.00  0.00     0.013 A 
ENDBRANCH   9  19
ENDBRANCH   6   7
ENDBRANCH   5   6
ENDBRANCH   2   5
BRANCH   1  22
HETATM   22  C   UNL     1     -43.532  58.328 -56.323  1.00  0.00     0.037 A 
HETATM   23  C   UNL     1     -42.381  58.018 -57.054  1.00  0.00     0.032 A 
HETATM   24  C   UNL     1     -42.475  57.412 -58.311  1.00  0.00     0.041 A 
HETATM   25  C   UNL     1     -43.720  57.093 -58.842  1.00  0.00     0.096 A 
HETATM   26  O   UNL     1     -43.724  56.526 -60.084  1.00  0.00    -0.335 OA
HETATM   27  C   UNL     1     -44.874  57.400 -58.123  1.00  0.00     0.070 A 
HETATM   28  C   UNL     1     -44.959  55.928 -60.472  1.00  0.00     0.217 C 
HETATM   29  C   UNL     1     -44.850  54.424 -60.230  1.00  0.00     0.050 C 
HETATM   30  C   UNL     1     -46.263  56.445 -59.850  1.00  0.00     0.251 C 
HETATM   31  N   UNL     1     -46.127  57.107 -58.660  1.00  0.00    -0.323 N 
HETATM   32  O   UNL     1     -47.374  56.229 -60.329  1.00  0.00    -0.270 OA
HETATM   33  H   UNL     1     -46.980  57.392 -58.198  1.00  0.00     0.169 HD
HETATM   34  C   UNL     1     -44.785  58.025 -56.874  1.00  0.00     0.062 A 
ENDBRANCH   1  22
TORSDOF 7
ENDMDL
MODEL 3
REMARK VINA RESULT:      -8.3      4.241      9.176
REMARK  7 active torsions:
REMARK  status: ('A' for Active; 'I' for Inactive)
REMARK    1  A    between atoms: C_11  and  N_12 
REMARK       I    between atoms: N_12  and  C_13 
REMARK    2  A    between atoms: C_13  and  C_14 
REMARK    3  A    between atoms: C_14  and  S_15 
REMARK    4  A    between atoms: S_15  and  C_16 
REMARK    5  A    between atoms: N_17  and  C_18 
REMARK    6  A    between atoms: C_18  and  C_19 
REMARK    7  A    between atoms: C_25  and  C_26 
ROOT
HETATM    1  N   UNL     1     -42.957  55.365 -53.936  1.00  0.00    -0.326 N 
HETATM    2  C   UNL     1     -42.694  56.626 -54.452  1.00  0.00     0.231 C 
HETATM    3  O   UNL     1     -41.621  57.219 -54.383  1.00  0.00    -0.272 OA
HETATM    4  H   UNL     1     -43.931  55.083 -53.937  1.00  0.00     0.169 HD
ENDROOT
BRANCH   2   5
HETATM    5  C   UNL     1     -43.858  57.230 -55.221  1.00  0.00     0.185 C 
BRANCH   5   6
HETATM    6  S   UNL     1     -43.937  59.039 -55.024  1.00  0.00    -0.081 SA
BRANCH   6   7
HETATM    7  C   UNL     1     -42.983  59.515 -56.391  1.00  0.00     0.192 A 
HETATM    8  N   UNL     1     -43.364  59.397 -57.708  1.00  0.00    -0.307 N 
HETATM    9  C   UNL     1     -42.307  59.912 -58.432  1.00  0.00     0.135 A 
HETATM   10  N   UNL     1     -41.371  60.304 -57.586  1.00  0.00    -0.134 NA
HETATM   11  N   UNL     1     -41.786  60.041 -56.314  1.00  0.00    -0.123 NA
BRANCH   8  12
HETATM   12  C   UNL     1     -44.665  58.961 -58.180  1.00  0.00     0.171 C 
BRANCH  12  13
HETATM   13  C   UNL     1     -44.675  57.599 -58.834  1.00  0.00    -0.040 A 
HETATM   14  C   UNL     1     -43.664  56.647 -58.634  1.00  0.00     0.009 A 
HETATM   15  C   UNL     1     -43.732  55.396 -59.251  1.00  0.00     0.001 A 
HETATM   16  C   UNL     1     -44.817  55.070 -60.059  1.00  0.00     0.000 A 
HETATM   17  C   UNL     1     -45.843  55.992 -60.247  1.00  0.00     0.001 A 
HETATM   18  C   UNL     1     -45.776  57.245 -59.634  1.00  0.00     0.009 A 
ENDBRANCH  12  13
ENDBRANCH   8  12
BRANCH   9  19
HETATM   19  C   UNL     1     -42.037  60.095 -59.921  1.00  0.00     0.057 A 
HETATM   20  C   UNL     1     -41.903  58.897 -60.832  1.00  0.00     0.013 A 
HETATM   21  C   UNL     1     -43.052  59.833 -61.004  1.00  0.00     0.013 A 
ENDBRANCH   9  19
ENDBRANCH   6   7
ENDBRANCH   5   6
ENDBRANCH   2   5
BRANCH   1  22
HETATM   22  C   UNL     1     -42.040  54.488 -53.320  1.00  0.00     0.037 A 
HETATM   23  C   UNL     1     -41.446  54.737 -52.080  1.00  0.00     0.032 A 
HETATM   24  C   UNL     1     -40.524  53.836 -51.536  1.00  0.00     0.041 A 
HETATM   25  C   UNL     1     -40.202  52.668 -52.218  1.00  0.00     0.096 A 
HETATM   26  O   UNL     1     -39.277  51.855 -51.630  1.00  0.00    -0.335 OA
HETATM   27  C   UNL     1     -40.787  52.411 -53.458  1.00  0.00     0.070 A 
HETATM   28  C   UNL     1     -39.193  50.539 -52.173  1.00  0.00     0.217 C 
HETATM   29  C   UNL     1     -39.994  49.605 -51.268  1.00  0.00     0.050 C 
HETATM   30  C   UNL     1     -39.613  50.311 -53.631  1.00  0.00     0.251 C 
HETATM   31  N   UNL     1     -40.450  51.255 -54.160  1.00  0.00    -0.323 N 
HETATM   32  O   UNL     1     -39.294  49.315 -54.279  1.00  0.00    -0.270 OA
HETATM   33  H   UNL     1     -40.795  51.085 -55.095  1.00  0.00     0.169 HD
HETATM   34  C   UNL     1     -41.694  53.320 -54.014  1.00  0.00     0.062 A 
ENDBRANCH   1  22
TORSDOF 7
ENDMDL
MODEL 4
REMARK VINA RESULT:      -8.2      4.859      6.764
REMARK  7 active torsions:
REMARK  status: ('A' for Active; 'I' for Inactive)
REMARK    1  A    between atoms: C_11  and  N_12 
REMARK       I    between atoms: N_12  and  C_13 
REMARK    2  A    between atoms: C_13  and  C_14 
REMARK    3  A    between atoms: C_14  and  S_15 
REMARK    4  A    between atoms: S_15  and  C_16 
REMARK    5  A    between atoms: N_17  and  C_18 
REMARK    6  A    between atoms: C_18  and  C_19 
REMARK    7  A    between atoms: C_25  and  C_26 
ROOT
HETATM    1  N   UNL     1     -44.554  57.237 -57.467  1.00  0.00    -0.326 N 
HETATM    2  C   UNL     1     -43.178  57.275 -57.632  1.00  0.00     0.231 C 
HETATM    3  O   UNL     1     -42.585  57.710 -58.616  1.00  0.00    -0.272 OA
HETATM    4  H   UNL     1     -44.888  56.705 -56.671  1.00  0.00     0.169 HD
ENDROOT
BRANCH   2   5
HETATM    5  C   UNL     1     -42.399  56.792 -56.418  1.00  0.00     0.185 C 
BRANCH   5   6
HETATM    6  S   UNL     1     -42.548  54.992 -56.188  1.00  0.00    -0.081 SA
BRANCH   6   7
HETATM    7  C   UNL     1     -42.721  54.941 -54.463  1.00  0.00     0.192 A 
HETATM    8  N   UNL     1     -41.786  54.446 -53.583  1.00  0.00    -0.307 N 
HETATM    9  C   UNL     1     -42.343  54.626 -52.333  1.00  0.00     0.135 A 
HETATM   10  N   UNL     1     -43.528  55.191 -52.480  1.00  0.00    -0.134 NA
HETATM   11  N   UNL     1     -43.770  55.374 -53.809  1.00  0.00    -0.123 NA
BRANCH   8  12
HETATM   12  C   UNL     1     -40.455  53.983 -53.930  1.00  0.00     0.171 C 
BRANCH  12  13
HETATM   13  C   UNL     1     -40.192  52.528 -53.619  1.00  0.00    -0.040 A 
HETATM   14  C   UNL     1     -39.633  52.094 -52.407  1.00  0.00     0.009 A 
HETATM   15  C   UNL     1     -39.425  50.734 -52.165  1.00  0.00     0.001 A 
HETATM   16  C   UNL     1     -39.790  49.788 -53.118  1.00  0.00     0.000 A 
HETATM   17  C   UNL     1     -40.370  50.199 -54.315  1.00  0.00     0.001 A 
HETATM   18  C   UNL     1     -40.576  51.558 -54.561  1.00  0.00     0.009 A 
ENDBRANCH  12  13
ENDBRANCH   8  12
BRANCH   9  19
HETATM   19  C   UNL     1     -41.880  54.311 -50.915  1.00  0.00     0.057 A 
HETATM   20  C   UNL     1     -40.604  54.910 -50.371  1.00  0.00     0.013 A 
HETATM   21  C   UNL     1     -41.916  55.295 -49.774  1.00  0.00     0.013 A 
ENDBRANCH   9  19
ENDBRANCH   6   7
ENDBRANCH   5   6
ENDBRANCH   2   5
BRANCH   1  22
HETATM   22  C   UNL     1     -45.533  57.760 -58.338  1.00  0.00     0.037 A 
HETATM   23  C   UNL     1     -46.112  59.023 -58.180  1.00  0.00     0.032 A 
HETATM   24  C   UNL     1     -47.097  59.471 -59.067  1.00  0.00     0.041 A 
HETATM   25  C   UNL     1     -47.499  58.670 -60.130  1.00  0.00     0.096 A 
HETATM   26  O   UNL     1     -48.481  59.173 -60.933  1.00  0.00    -0.335 OA
HETATM   27  C   UNL     1     -46.929  57.409 -60.294  1.00  0.00     0.070 A 
HETATM   28  C   UNL     1     -48.655  58.495 -62.175  1.00  0.00     0.217 C 
HETATM   29  C   UNL     1     -47.926  59.292 -63.254  1.00  0.00     0.050 C 
HETATM   30  C   UNL     1     -48.247  57.018 -62.277  1.00  0.00     0.251 C 
HETATM   31  N   UNL     1     -47.344  56.589 -61.343  1.00  0.00    -0.323 N 
HETATM   32  O   UNL     1     -48.633  56.270 -63.173  1.00  0.00    -0.270 OA
HETATM   33  H   UNL     1     -47.009  55.640 -61.437  1.00  0.00     0.169 HD
HETATM   34  C   UNL     1     -45.958  56.948 -59.398  1.00  0.00     0.062 A 
ENDBRANCH   1  22
TORSDOF 7
ENDMDL
MODEL 5
REMARK VINA RESULT:      -8.1      4.377      9.389
REMARK  7 active torsions:
REMARK  status: ('A' for Active; 'I' for Inactive)
REMARK    1  A    between atoms: C_11  and  N_12 
REMARK       I    between atoms: N_12  and  C_13 
REMARK    2  A    between atoms: C_13  and  C_14 
REMARK    3  A    between atoms: C_14  and  S_15 
REMARK    4  A    between atoms: S_15  and  C_16 
REMARK    5  A    between atoms: N_17  and  C_18 
REMARK    6  A    between atoms: C_18  and  C_19 
REMARK    7  A    between atoms: C_25  and  C_26 
ROOT
HETATM    1  N   UNL     1     -43.266  55.453 -53.556  1.00  0.00    -0.326 N 
HETATM    2  C   UNL     1     -43.478  56.777 -53.201  1.00  0.00     0.231 C 
HETATM    3  O   UNL     1     -42.868  57.393 -52.330  1.00  0.00    -0.272 OA
HETATM    4  H   UNL     1     -43.955  55.049 -54.181  1.00  0.00     0.169 HD
ENDROOT
BRANCH   2   5
HETATM    5  C   UNL     1     -44.514  57.486 -54.059  1.00  0.00     0.185 C 
BRANCH   5   6
HETATM    6  S   UNL     1     -43.741  58.491 -55.367  1.00  0.00    -0.081 SA
BRANCH   6   7
HETATM    7  C   UNL     1     -43.512  57.262 -56.569  1.00  0.00     0.192 A 
HETATM    8  N   UNL     1     -44.022  57.292 -57.846  1.00  0.00    -0.307 N 
HETATM    9  C   UNL     1     -43.572  56.129 -58.437  1.00  0.00     0.135 A 
HETATM   10  N   UNL     1     -42.846  55.464 -57.556  1.00  0.00    -0.134 NA
HETATM   11  N   UNL     1     -42.821  56.165 -56.386  1.00  0.00    -0.123 NA
BRANCH   8  12
HETATM   12  C   UNL     1     -44.744  58.399 -58.446  1.00  0.00     0.171 C 
BRANCH  12  13
HETATM   13  C   UNL     1     -43.945  59.210 -59.440  1.00  0.00    -0.040 A 
HETATM   14  C   UNL     1     -42.615  59.597 -59.216  1.00  0.00     0.009 A 
HETATM   15  C   UNL     1     -41.917  60.334 -60.176  1.00  0.00     0.001 A 
HETATM   16  C   UNL     1     -42.528  60.676 -61.379  1.00  0.00     0.000 A 
HETATM   17  C   UNL     1     -43.838  60.277 -61.629  1.00  0.00     0.001 A 
HETATM   18  C   UNL     1     -44.540  59.544 -60.669  1.00  0.00     0.009 A 
ENDBRANCH  12  13
ENDBRANCH   8  12
BRANCH   9  19
HETATM   19  C   UNL     1     -43.751  55.509 -59.819  1.00  0.00     0.057 A 
HETATM   20  C   UNL     1     -44.785  54.433 -60.053  1.00  0.00     0.013 A 
HETATM   21  C   UNL     1     -44.937  55.762 -60.714  1.00  0.00     0.013 A 
ENDBRANCH   9  19
ENDBRANCH   6   7
ENDBRANCH   5   6
ENDBRANCH   2   5
BRANCH   1  22
HETATM   22  C   UNL     1     -42.268  54.587 -53.062  1.00  0.00     0.037 A 
HETATM   23  C   UNL     1     -41.579  54.804 -51.865  1.00  0.00     0.032 A 
HETATM   24  C   UNL     1     -40.582  53.917 -51.446  1.00  0.00     0.041 A 
HETATM   25  C   UNL     1     -40.276  52.796 -52.209  1.00  0.00     0.096 A 
HETATM   26  O   UNL     1     -39.275  51.995 -51.740  1.00  0.00    -0.335 OA
HETATM   27  C   UNL     1     -40.956  52.572 -53.406  1.00  0.00     0.070 A 
HETATM   28  C   UNL     1     -39.190  50.710 -52.352  1.00  0.00     0.217 C 
HETATM   29  C   UNL     1     -39.875  49.704 -51.430  1.00  0.00     0.050 C 
HETATM   30  C   UNL     1     -39.725  50.531 -53.779  1.00  0.00     0.251 C 
HETATM   31  N   UNL     1     -40.638  51.464 -54.189  1.00  0.00    -0.323 N 
HETATM   32  O   UNL     1     -39.426  49.580 -54.499  1.00  0.00    -0.270 OA
HETATM   33  H   UNL     1     -41.055  51.322 -55.099  1.00  0.00     0.169 HD
HETATM   34  C   UNL     1     -41.940  53.468 -53.839  1.00  0.00     0.062 A 
ENDBRANCH   1  22
TORSDOF 7
ENDMDL
MODEL 6
REMARK VINA RESULT:      -8.0      4.379      9.477
REMARK  7 active torsions:
REMARK  status: ('A' for Active; 'I' for Inactive)
REMARK    1  A    between atoms: C_11  and  N_12 
REMARK       I    between atoms: N_12  and  C_13 
REMARK    2  A    between atoms: C_13  and  C_14 
REMARK    3  A    between atoms: C_14  and  S_15 
REMARK    4  A    between atoms: S_15  and  C_16 
REMARK    5  A    between atoms: N_17  and  C_18 
REMARK    6  A    between atoms: C_18  and  C_19 
REMARK    7  A    between atoms: C_25  and  C_26 
ROOT
HETATM    1  N   UNL     1     -42.397  55.823 -53.219  1.00  0.00    -0.326 N 
HETATM    2  C   UNL     1     -41.990  57.118 -53.508  1.00  0.00     0.231 C 
HETATM    3  O   UNL     1     -40.860  57.568 -53.342  1.00  0.00    -0.272 OA
HETATM    4  H   UNL     1     -43.396  55.655 -53.264  1.00  0.00     0.169 HD
ENDROOT
BRANCH   2   5
HETATM    5  C   UNL     1     -43.070  57.971 -54.154  1.00  0.00     0.185 C 
BRANCH   5   6
HETATM    6  S   UNL     1     -42.522  58.672 -55.743  1.00  0.00    -0.081 SA
BRANCH   6   7
HETATM    7  C   UNL     1     -42.811  57.304 -56.769  1.00  0.00     0.192 A 
HETATM    8  N   UNL     1     -43.243  57.364 -58.074  1.00  0.00    -0.307 N 
HETATM    9  C   UNL     1     -43.314  56.049 -58.487  1.00  0.00     0.135 A 
HETATM   10  N   UNL     1     -42.947  55.274 -57.482  1.00  0.00    -0.134 NA
HETATM   11  N   UNL     1     -42.647  56.056 -56.406  1.00  0.00    -0.123 NA
BRANCH   8  12
HETATM   12  C   UNL     1     -43.426  58.575 -58.853  1.00  0.00     0.171 C 
BRANCH  12  13
HETATM   13  C   UNL     1     -44.860  58.884 -59.213  1.00  0.00    -0.040 A 
HETATM   14  C   UNL     1     -45.256  59.287 -60.498  1.00  0.00     0.009 A 
HETATM   15  C   UNL     1     -46.599  59.545 -60.781  1.00  0.00     0.001 A 
HETATM   16  C   UNL     1     -47.567  59.385 -59.794  1.00  0.00     0.000 A 
HETATM   17  C   UNL     1     -47.197  58.959 -58.522  1.00  0.00     0.001 A 
HETATM   18  C   UNL     1     -45.854  58.704 -58.235  1.00  0.00     0.009 A 
ENDBRANCH  12  13
ENDBRANCH   8  12
BRANCH   9  19
HETATM   19  C   UNL     1     -43.716  55.372 -59.793  1.00  0.00     0.057 A 
HETATM   20  C   UNL     1     -44.757  54.278 -59.805  1.00  0.00     0.013 A 
HETATM   21  C   UNL     1     -45.042  55.577 -60.480  1.00  0.00     0.013 A 
ENDBRANCH   9  19
ENDBRANCH   6   7
ENDBRANCH   5   6
ENDBRANCH   2   5
BRANCH   1  22
HETATM   22  C   UNL     1     -41.591  54.756 -52.770  1.00  0.00     0.037 A 
HETATM   23  C   UNL     1     -40.939  54.747 -51.534  1.00  0.00     0.032 A 
HETATM   24  C   UNL     1     -40.133  53.666 -51.161  1.00  0.00     0.041 A 
HETATM   25  C   UNL     1     -39.985  52.576 -52.012  1.00  0.00     0.096 A 
HETATM   26  O   UNL     1     -39.162  51.575 -51.582  1.00  0.00    -0.335 OA
HETATM   27  C   UNL     1     -40.628  52.578 -53.249  1.00  0.00     0.070 A 
HETATM   28  C   UNL     1     -39.268  50.352 -52.306  1.00  0.00     0.217 C 
HETATM   29  C   UNL     1     -40.164  49.407 -51.507  1.00  0.00     0.050 C 
HETATM   30  C   UNL     1     -39.749  50.391 -53.763  1.00  0.00     0.251 C 
HETATM   31  N   UNL     1     -40.465  51.501 -54.119  1.00  0.00    -0.323 N 
HETATM   32  O   UNL     1     -39.581  49.466 -54.556  1.00  0.00    -0.270 OA
HETATM   33  H   UNL     1     -40.852  51.512 -55.053  1.00  0.00     0.169 HD
HETATM   34  C   UNL     1     -41.419  53.666 -53.635  1.00  0.00     0.062 A 
ENDBRANCH   1  22
TORSDOF 7
ENDMDL
MODEL 7
REMARK VINA RESULT:      -7.8      2.831      5.020
REMARK  7 active torsions:
REMARK  status: ('A' for Active; 'I' for Inactive)
REMARK    1  A    between atoms: C_11  and  N_12 
REMARK       I    between atoms: N_12  and  C_13 
REMARK    2  A    between atoms: C_13  and  C_14 
REMARK    3  A    between atoms: C_14  and  S_15 
REMARK    4  A    between atoms: S_15  and  C_16 
REMARK    5  A    between atoms: N_17  and  C_18 
REMARK    6  A    between atoms: C_18  and  C_19 
REMARK    7  A    between atoms: C_25  and  C_26 
ROOT
HETATM    1  N   UNL     1     -44.918  60.475 -50.420  1.00  0.00    -0.326 N 
HETATM    2  C   UNL     1     -45.517  59.273 -50.765  1.00  0.00     0.231 C 
HETATM    3  O   UNL     1     -46.574  58.843 -50.312  1.00  0.00    -0.272 OA
HETATM    4  H   UNL     1     -43.973  60.611 -50.764  1.00  0.00     0.169 HD
ENDROOT
BRANCH   2   5
HETATM    5  C   UNL     1     -44.786  58.513 -51.861  1.00  0.00     0.185 C 
BRANCH   5   6
HETATM    6  S   UNL     1     -44.186  56.894 -51.281  1.00  0.00    -0.081 SA
BRANCH   6   7
HETATM    7  C   UNL     1     -43.426  56.337 -52.736  1.00  0.00     0.192 A 
HETATM    8  N   UNL     1     -42.850  55.100 -52.911  1.00  0.00    -0.307 N 
HETATM    9  C   UNL     1     -42.395  55.099 -54.214  1.00  0.00     0.135 A 
HETATM   10  N   UNL     1     -42.690  56.265 -54.761  1.00  0.00    -0.134 NA
HETATM   11  N   UNL     1     -43.319  57.042 -53.834  1.00  0.00    -0.123 NA
BRANCH   8  12
HETATM   12  C   UNL     1     -42.873  54.010 -51.953  1.00  0.00     0.171 C 
BRANCH  12  13
HETATM   13  C   UNL     1     -41.741  54.023 -50.953  1.00  0.00    -0.040 A 
HETATM   14  C   UNL     1     -40.438  53.606 -51.268  1.00  0.00     0.009 A 
HETATM   15  C   UNL     1     -39.423  53.655 -50.308  1.00  0.00     0.001 A 
HETATM   16  C   UNL     1     -39.689  54.138 -49.031  1.00  0.00     0.000 A 
HETATM   17  C   UNL     1     -40.968  54.582 -48.709  1.00  0.00     0.001 A 
HETATM   18  C   UNL     1     -41.986  54.531 -49.665  1.00  0.00     0.009 A 
ENDBRANCH  12  13
ENDBRANCH   8  12
BRANCH   9  19
HETATM   19  C   UNL     1     -41.663  54.077 -55.076  1.00  0.00     0.057 A 
HETATM   20  C   UNL     1     -40.158  53.959 -55.022  1.00  0.00     0.013 A 
HETATM   21  C   UNL     1     -41.006  52.831 -54.539  1.00  0.00     0.013 A 
ENDBRANCH   9  19
ENDBRANCH   6   7
ENDBRANCH   5   6
ENDBRANCH   2   5
BRANCH   1  22
HETATM   22  C   UNL     1     -45.433  61.471 -49.564  1.00  0.00     0.037 A 
HETATM   23  C   UNL     1     -46.359  62.436 -49.969  1.00  0.00     0.032 A 
HETATM   24  C   UNL     1     -46.811  63.412 -49.074  1.00  0.00     0.041 A 
HETATM   25  C   UNL     1     -46.355  63.421 -47.760  1.00  0.00     0.096 A 
HETATM   26  O   UNL     1     -46.827  64.420 -46.960  1.00  0.00    -0.335 OA
HETATM   27  C   UNL     1     -45.429  62.464 -47.347  1.00  0.00     0.070 A 
HETATM   28  C   UNL     1     -46.604  64.234 -45.564  1.00  0.00     0.217 C 
HETATM   29  C   UNL     1     -47.891  63.687 -44.950  1.00  0.00     0.050 C 
HETATM   30  C   UNL     1     -45.421  63.368 -45.110  1.00  0.00     0.251 C 
HETATM   31  N   UNL     1     -44.949  62.481 -46.038  1.00  0.00    -0.323 N 
HETATM   32  O   UNL     1     -44.959  63.397 -43.971  1.00  0.00    -0.270 OA
HETATM   33  H   UNL     1     -44.217  61.852 -45.735  1.00  0.00     0.169 HD
HETATM   34  C   UNL     1     -44.960  61.498 -48.245  1.00  0.00     0.062 A 
ENDBRANCH   1  22
TORSDOF 7
ENDMDL
MODEL 8
REMARK VINA RESULT:      -7.4      5.094      7.230
REMARK  7 active torsions:
REMARK  status: ('A' for Active; 'I' for Inactive)
REMARK    1  A    between atoms: C_11  and  N_12 
REMARK       I    between atoms: N_12  and  C_13 
REMARK    2  A    between atoms: C_13  and  C_14 
REMARK    3  A    between atoms: C_14  and  S_15 
REMARK    4  A    between atoms: S_15  and  C_16 
REMARK    5  A    between atoms: N_17  and  C_18 
REMARK    6  A    between atoms: C_18  and  C_19 
REMARK    7  A    between atoms: C_25  and  C_26 
ROOT
HETATM    1  N   UNL     1     -44.308  56.600 -58.116  1.00  0.00    -0.326 N 
HETATM    2  C   UNL     1     -43.159  57.199 -57.623  1.00  0.00     0.231 C 
HETATM    3  O   UNL     1     -42.820  58.365 -57.811  1.00  0.00    -0.272 OA
HETATM    4  H   UNL     1     -44.363  55.593 -58.004  1.00  0.00     0.169 HD
ENDROOT
BRANCH   2   5
HETATM    5  C   UNL     1     -42.335  56.297 -56.717  1.00  0.00     0.185 C 
BRANCH   5   6
HETATM    6  S   UNL     1     -43.388  55.287 -55.626  1.00  0.00    -0.081 SA
BRANCH   6   7
HETATM    7  C   UNL     1     -43.152  56.141 -54.136  1.00  0.00     0.192 A 
HETATM    8  N   UNL     1     -41.973  56.202 -53.430  1.00  0.00    -0.307 N 
HETATM    9  C   UNL     1     -42.253  56.996 -52.336  1.00  0.00     0.135 A 
HETATM   10  N   UNL     1     -43.518  57.371 -52.403  1.00  0.00    -0.134 NA
HETATM   11  N   UNL     1     -44.083  56.825 -53.518  1.00  0.00    -0.123 NA
BRANCH   8  12
HETATM   12  C   UNL     1     -40.697  55.660 -53.860  1.00  0.00     0.171 C 
BRANCH  12  13
HETATM   13  C   UNL     1     -40.463  54.218 -53.478  1.00  0.00    -0.040 A 
HETATM   14  C   UNL     1     -40.234  53.204 -54.421  1.00  0.00     0.009 A 
HETATM   15  C   UNL     1     -40.007  51.888 -54.012  1.00  0.00     0.001 A 
HETATM   16  C   UNL     1     -39.984  51.569 -52.657  1.00  0.00     0.000 A 
HETATM   17  C   UNL     1     -40.182  52.566 -51.707  1.00  0.00     0.001 A 
HETATM   18  C   UNL     1     -40.413  53.882 -52.113  1.00  0.00     0.009 A 
ENDBRANCH  12  13
ENDBRANCH   8  12
BRANCH   9  19
HETATM   19  C   UNL     1     -41.433  57.480 -51.146  1.00  0.00     0.057 A 
HETATM   20  C   UNL     1     -40.254  58.404 -51.347  1.00  0.00     0.013 A 
HETATM   21  C   UNL     1     -41.461  58.891 -50.616  1.00  0.00     0.013 A 
ENDBRANCH   9  19
ENDBRANCH   6   7
ENDBRANCH   5   6
ENDBRANCH   2   5
BRANCH   1  22
HETATM   22  C   UNL     1     -45.347  57.217 -58.844  1.00  0.00     0.037 A 
HETATM   23  C   UNL     1     -45.892  58.460 -58.510  1.00  0.00     0.032 A 
HETATM   24  C   UNL     1     -46.940  59.005 -59.261  1.00  0.00     0.041 A 
HETATM   25  C   UNL     1     -47.440  58.321 -60.363  1.00  0.00     0.096 A 
HETATM   26  O   UNL     1     -48.478  58.910 -61.025  1.00  0.00    -0.335 OA
HETATM   27  C   UNL     1     -46.906  57.079 -60.702  1.00  0.00     0.070 A 
HETATM   28  C   UNL     1     -48.764  58.364 -62.310  1.00  0.00     0.217 C 
HETATM   29  C   UNL     1     -48.114  59.263 -63.360  1.00  0.00     0.050 C 
HETATM   30  C   UNL     1     -48.389  56.904 -62.597  1.00  0.00     0.251 C 
HETATM   31  N   UNL     1     -47.419  56.374 -61.791  1.00  0.00    -0.323 N 
HETATM   32  O   UNL     1     -48.859  56.255 -63.529  1.00  0.00    -0.270 OA
HETATM   33  H   UNL     1     -47.107  55.438 -62.009  1.00  0.00     0.169 HD
HETATM   34  C   UNL     1     -45.871  56.521 -59.942  1.00  0.00     0.062 A 
ENDBRANCH   1  22
TORSDOF 7
ENDMDL
MODEL 9
REMARK VINA RESULT:      -7.4      4.012      4.926
REMARK  7 active torsions:
REMARK  status: ('A' for Active; 'I' for Inactive)
REMARK    1  A    between atoms: C_11  and  N_12 
REMARK       I    between atoms: N_12  and  C_13 
REMARK    2  A    between atoms: C_13  and  C_14 
REMARK    3  A    between atoms: C_14  and  S_15 
REMARK    4  A    between atoms: S_15  and  C_16 
REMARK    5  A    between atoms: N_17  and  C_18 
REMARK    6  A    between atoms: C_18  and  C_19 
REMARK    7  A    between atoms: C_25  and  C_26 
ROOT
HETATM    1  N   UNL     1     -43.465  58.173 -56.346  1.00  0.00    -0.326 N 
HETATM    2  C   UNL     1     -43.138  56.863 -56.666  1.00  0.00     0.231 C 
HETATM    3  O   UNL     1     -43.568  56.232 -57.628  1.00  0.00    -0.272 OA
HETATM    4  H   UNL     1     -43.150  58.495 -55.437  1.00  0.00     0.169 HD
ENDROOT
BRANCH   2   5
HETATM    5  C   UNL     1     -42.093  56.248 -55.749  1.00  0.00     0.185 C 
BRANCH   5   6
HETATM    6  S   UNL     1     -42.435  54.491 -55.412  1.00  0.00    -0.081 SA
BRANCH   6   7
HETATM    7  C   UNL     1     -42.497  54.542 -53.680  1.00  0.00     0.192 A 
HETATM    8  N   UNL     1     -41.505  54.102 -52.834  1.00  0.00    -0.307 N 
HETATM    9  C   UNL     1     -41.982  54.355 -51.564  1.00  0.00     0.135 A 
HETATM   10  N   UNL     1     -43.178  54.907 -51.667  1.00  0.00    -0.134 NA
HETATM   11  N   UNL     1     -43.505  55.010 -52.988  1.00  0.00    -0.123 NA
BRANCH   8  12
HETATM   12  C   UNL     1     -40.196  53.623 -53.237  1.00  0.00     0.171 C 
BRANCH  12  13
HETATM   13  C   UNL     1     -40.027  52.123 -53.180  1.00  0.00    -0.040 A 
HETATM   14  C   UNL     1     -40.187  51.292 -54.299  1.00  0.00     0.009 A 
HETATM   15  C   UNL     1     -40.003  49.911 -54.193  1.00  0.00     0.001 A 
HETATM   16  C   UNL     1     -39.637  49.343 -52.976  1.00  0.00     0.000 A 
HETATM   17  C   UNL     1     -39.447  50.155 -51.862  1.00  0.00     0.001 A 
HETATM   18  C   UNL     1     -39.634  51.536 -51.964  1.00  0.00     0.009 A 
ENDBRANCH  12  13
ENDBRANCH   8  12
BRANCH   9  19
HETATM   19  C   UNL     1     -41.427  54.125 -50.163  1.00  0.00     0.057 A 
HETATM   20  C   UNL     1     -40.040  54.599 -49.796  1.00  0.00     0.013 A 
HETATM   21  C   UNL     1     -41.230  55.216 -49.141  1.00  0.00     0.013 A 
ENDBRANCH   9  19
ENDBRANCH   6   7
ENDBRANCH   5   6
ENDBRANCH   2   5
BRANCH   1  22
HETATM   22  C   UNL     1     -44.271  59.058 -57.092  1.00  0.00     0.037 A 
HETATM   23  C   UNL     1     -43.757  60.032 -57.952  1.00  0.00     0.032 A 
HETATM   24  C   UNL     1     -44.613  60.896 -58.644  1.00  0.00     0.041 A 
HETATM   25  C   UNL     1     -45.991  60.782 -58.496  1.00  0.00     0.096 A 
HETATM   26  O   UNL     1     -46.754  61.678 -59.187  1.00  0.00    -0.335 OA
HETATM   27  C   UNL     1     -46.514  59.815 -57.637  1.00  0.00     0.070 A 
HETATM   28  C   UNL     1     -48.140  61.356 -59.273  1.00  0.00     0.217 C 
HETATM   29  C   UNL     1     -48.389  60.709 -60.634  1.00  0.00     0.050 C 
HETATM   30  C   UNL     1     -48.768  60.482 -58.178  1.00  0.00     0.251 C 
HETATM   31  N   UNL     1     -47.893  59.711 -57.464  1.00  0.00    -0.323 N 
HETATM   32  O   UNL     1     -49.980  60.407 -57.986  1.00  0.00    -0.270 OA
HETATM   33  H   UNL     1     -48.294  59.076 -56.787  1.00  0.00     0.169 HD
HETATM   34  C   UNL     1     -45.660  58.962 -56.928  1.00  0.00     0.062 A 
ENDBRANCH   1  22
TORSDOF 7
ENDMDL
MODEL 10
REMARK VINA RESULT:      -7.4      3.835      6.294
REMARK  7 active torsions:
REMARK  status: ('A' for Active; 'I' for Inactive)
REMARK    1  A    between atoms: C_11  and  N_12 
REMARK       I    between atoms: N_12  and  C_13 
REMARK    2  A    between atoms: C_13  and  C_14 
REMARK    3  A    between atoms: C_14  and  S_15 
REMARK    4  A    between atoms: S_15  and  C_16 
REMARK    5  A    between atoms: N_17  and  C_18 
REMARK    6  A    between atoms: C_18  and  C_19 
REMARK    7  A    between atoms: C_25  and  C_26 
ROOT
HETATM    1  N   UNL     1     -43.111  58.982 -55.220  1.00  0.00    -0.326 N 
HETATM    2  C   UNL     1     -42.231  59.142 -54.161  1.00  0.00     0.231 C 
HETATM    3  O   UNL     1     -41.011  59.252 -54.253  1.00  0.00    -0.272 OA
HETATM    4  H   UNL     1     -44.065  58.748 -54.968  1.00  0.00     0.169 HD
ENDROOT
BRANCH   2   5
HETATM    5  C   UNL     1     -42.912  59.260 -52.807  1.00  0.00     0.185 C 
BRANCH   5   6
HETATM    6  S   UNL     1     -43.659  57.684 -52.282  1.00  0.00    -0.081 SA
BRANCH   6   7
HETATM    7  C   UNL     1     -42.393  57.100 -51.252  1.00  0.00     0.192 A 
HETATM    8  N   UNL     1     -42.043  55.780 -51.088  1.00  0.00    -0.307 N 
HETATM    9  C   UNL     1     -40.987  55.798 -50.199  1.00  0.00     0.135 A 
HETATM   10  N   UNL     1     -40.741  57.052 -49.867  1.00  0.00    -0.134 NA
HETATM   11  N   UNL     1     -41.627  57.863 -50.512  1.00  0.00    -0.123 NA
BRANCH   8  12
HETATM   12  C   UNL     1     -42.593  54.658 -51.827  1.00  0.00     0.171 C 
BRANCH  12  13
HETATM   13  C   UNL     1     -41.835  54.295 -53.082  1.00  0.00    -0.040 A 
HETATM   14  C   UNL     1     -41.879  55.068 -54.252  1.00  0.00     0.009 A 
HETATM   15  C   UNL     1     -41.145  54.695 -55.381  1.00  0.00     0.001 A 
HETATM   16  C   UNL     1     -40.342  53.559 -55.351  1.00  0.00     0.000 A 
HETATM   17  C   UNL     1     -40.264  52.795 -54.190  1.00  0.00     0.001 A 
HETATM   18  C   UNL     1     -41.000  53.164 -53.061  1.00  0.00     0.009 A 
ENDBRANCH  12  13
ENDBRANCH   8  12
BRANCH   9  19
HETATM   19  C   UNL     1     -40.119  54.714 -49.570  1.00  0.00     0.057 A 
HETATM   20  C   UNL     1     -40.587  53.967 -48.343  1.00  0.00     0.013 A 
HETATM   21  C   UNL     1     -40.423  53.240 -49.636  1.00  0.00     0.013 A 
ENDBRANCH   9  19
ENDBRANCH   6   7
ENDBRANCH   5   6
ENDBRANCH   2   5
BRANCH   1  22
HETATM   22  C   UNL     1     -42.803  59.004 -56.596  1.00  0.00     0.037 A 
HETATM   23  C   UNL     1     -42.764  57.859 -57.398  1.00  0.00     0.032 A 
HETATM   24  C   UNL     1     -42.425  57.947 -58.752  1.00  0.00     0.041 A 
HETATM   25  C   UNL     1     -42.140  59.183 -59.323  1.00  0.00     0.096 A 
HETATM   26  O   UNL     1     -41.796  59.179 -60.644  1.00  0.00    -0.335 OA
HETATM   27  C   UNL     1     -42.173  60.330 -58.532  1.00  0.00     0.070 A 
HETATM   28  C   UNL     1     -41.815  60.454 -61.279  1.00  0.00     0.217 C 
HETATM   29  C   UNL     1     -43.133  60.581 -62.041  1.00  0.00     0.050 C 
HETATM   30  C   UNL     1     -41.604  61.712 -60.425  1.00  0.00     0.251 C 
HETATM   31  N   UNL     1     -41.865  61.570 -59.090  1.00  0.00    -0.323 N 
HETATM   32  O   UNL     1     -41.294  62.805 -60.896  1.00  0.00    -0.270 OA
HETATM   33  H   UNL     1     -41.800  62.404 -58.523  1.00  0.00     0.169 HD
HETATM   34  C   UNL     1     -42.492  60.244 -57.171  1.00  0.00     0.062 A 
ENDBRANCH   1  22
TORSDOF 7
ENDMDL
