MODEL 1
REMARK VINA RESULT:      -8.0      0.000      0.000
REMARK  3 active torsions:
REMARK  status: ('A' for Active; 'I' for Inactive)
REMARK       I    between atoms: N_2  and  C_3 
REMARK    1  A    between atoms: C_3  and  C_4 
REMARK    2  A    between atoms: C_7  and  N_8 
REMARK       I    between atoms: N_8  and  C_9 
REMARK    3  A    between atoms: C_9  and  C_10 
ROOT
HETATM    1  N   UNL     1     -34.472  40.609 -53.314  1.00  0.00    -0.321 N 
HETATM    2  C   UNL     1     -35.308  41.668 -53.622  1.00  0.00     0.280 C 
HETATM    3  O   UNL     1     -35.597  42.590 -52.868  1.00  0.00    -0.265 OA
HETATM    4  H   UNL     1     -34.328  39.950 -54.073  1.00  0.00     0.169 HD
ENDROOT
BRANCH   1   5
HETATM    5  C   UNL     1     -33.845  40.319 -52.089  1.00  0.00     0.035 A 
HETATM    6  C   UNL     1     -34.532  39.981 -50.921  1.00  0.00     0.030 A 
HETATM    7  C   UNL     1     -33.834  39.665 -49.748  1.00  0.00     0.019 A 
HETATM    8  C   UNL     1     -32.437  39.683 -49.735  1.00  0.00     0.032 A 
HETATM    9  C   UNL     1     -31.744  40.053 -50.891  1.00  0.00     0.019 A 
HETATM   10  C   UNL     1     -32.445  40.363 -52.061  1.00  0.00     0.030 A 
BRANCH   8  11
HETATM   11  C   UNL     1     -31.657  39.327 -48.519  1.00  0.00     0.251 C 
HETATM   12  N   UNL     1     -31.093  40.382 -47.830  1.00  0.00    -0.361 N 
HETATM   13  C   UNL     1     -30.421  40.158 -46.576  1.00  0.00     0.149 C 
HETATM   14  H   UNL     1     -31.395  41.322 -48.045  1.00  0.00     0.162 HD
HETATM   15  O   UNL     1     -31.580  38.160 -48.156  1.00  0.00    -0.268 OA
ENDBRANCH   8  11
ENDBRANCH   1   5
BRANCH   2  16
HETATM   16  C   UNL     1     -35.844  41.583 -54.969  1.00  0.00     0.144 A 
HETATM   17  O   UNL     1     -36.812  40.652 -55.252  1.00  0.00    -0.304 OA
HETATM   18  C   UNL     1     -37.153  40.814 -56.560  1.00  0.00     0.086 A 
HETATM   19  C   UNL     1     -36.408  41.837 -57.133  1.00  0.00     0.001 A 
HETATM   20  C   UNL     1     -38.114  40.072 -57.242  1.00  0.00     0.038 A 
HETATM   21  C   UNL     1     -35.563  42.322 -56.103  1.00  0.00     0.057 A 
HETATM   22  C   UNL     1     -36.628  42.155 -58.485  1.00  0.00     0.014 A 
HETATM   23  C   UNL     1     -37.593  41.427 -59.198  1.00  0.00     0.001 A 
HETATM   24  C   UNL     1     -38.321  40.404 -58.585  1.00  0.00     0.003 A 
ENDBRANCH   2  16
TORSDOF 3
ENDMDL
MODEL 2
REMARK VINA RESULT:      -8.0     16.072     18.010
REMARK  3 active torsions:
REMARK  status: ('A' for Active; 'I' for Inactive)
REMARK       I    between atoms: N_2  and  C_3 
REMARK    1  A    between atoms: C_3  and  C_4 
REMARK    2  A    between atoms: C_7  and  N_8 
REMARK       I    between atoms: N_8  and  C_9 
REMARK    3  A    between atoms: C_9  and  C_10 
ROOT
HETATM    1  N   UNL     1     -41.370  55.879 -52.042  1.00  0.00    -0.321 N 
HETATM    2  C   UNL     1     -41.004  55.455 -53.308  1.00  0.00     0.280 C 
HETATM    3  O   UNL     1     -40.988  56.152 -54.316  1.00  0.00    -0.265 OA
HETATM    4  H   UNL     1     -41.298  55.167 -51.322  1.00  0.00     0.169 HD
ENDROOT
BRANCH   1   5
HETATM    5  C   UNL     1     -41.859  57.138 -51.651  1.00  0.00     0.035 A 
HETATM    6  C   UNL     1     -43.180  57.554 -51.834  1.00  0.00     0.030 A 
HETATM    7  C   UNL     1     -43.602  58.810 -51.380  1.00  0.00     0.019 A 
HETATM    8  C   UNL     1     -42.703  59.662 -50.733  1.00  0.00     0.032 A 
HETATM    9  C   UNL     1     -41.372  59.266 -50.577  1.00  0.00     0.019 A 
HETATM   10  C   UNL     1     -40.956  58.009 -51.029  1.00  0.00     0.030 A 
BRANCH   8  11
HETATM   11  C   UNL     1     -43.117  60.992 -50.211  1.00  0.00     0.251 C 
HETATM   12  N   UNL     1     -44.140  60.989 -49.284  1.00  0.00    -0.361 N 
HETATM   13  C   UNL     1     -44.535  62.209 -48.628  1.00  0.00     0.149 C 
HETATM   14  H   UNL     1     -44.409  60.113 -48.858  1.00  0.00     0.162 HD
HETATM   15  O   UNL     1     -42.531  62.006 -50.571  1.00  0.00    -0.268 OA
ENDBRANCH   8  11
ENDBRANCH   1   5
BRANCH   2  16
HETATM   16  C   UNL     1     -40.635  54.051 -53.341  1.00  0.00     0.144 A 
HETATM   17  O   UNL     1     -40.277  53.419 -52.177  1.00  0.00    -0.304 OA
HETATM   18  C   UNL     1     -40.018  52.119 -52.489  1.00  0.00     0.086 A 
HETATM   19  C   UNL     1     -40.197  51.902 -53.850  1.00  0.00     0.001 A 
HETATM   20  C   UNL     1     -39.634  51.133 -51.585  1.00  0.00     0.038 A 
HETATM   21  C   UNL     1     -40.588  53.152 -54.392  1.00  0.00     0.057 A 
HETATM   22  C   UNL     1     -39.980  50.610 -54.360  1.00  0.00     0.014 A 
HETATM   23  C   UNL     1     -39.595  49.593 -53.473  1.00  0.00     0.001 A 
HETATM   24  C   UNL     1     -39.425  49.853 -52.110  1.00  0.00     0.003 A 
ENDBRANCH   2  16
TORSDOF 3
ENDMDL
MODEL 3
REMARK VINA RESULT:      -7.5     16.279     18.316
REMARK  3 active torsions:
REMARK  status: ('A' for Active; 'I' for Inactive)
REMARK       I    between atoms: N_2  and  C_3 
REMARK    1  A    between atoms: C_3  and  C_4 
REMARK    2  A    between atoms: C_7  and  N_8 
REMARK       I    between atoms: N_8  and  C_9 
REMARK    3  A    between atoms: C_9  and  C_10 
ROOT
HETATM    1  N   UNL     1     -41.477  55.974 -51.546  1.00  0.00    -0.321 N 
HETATM    2  C   UNL     1     -40.923  55.072 -50.654  1.00  0.00     0.280 C 
HETATM    3  O   UNL     1     -40.702  55.288 -49.468  1.00  0.00    -0.265 OA
HETATM    4  H   UNL     1     -41.610  55.612 -52.485  1.00  0.00     0.169 HD
ENDROOT
BRANCH   1   5
HETATM    5  C   UNL     1     -41.831  57.317 -51.323  1.00  0.00     0.035 A 
HETATM    6  C   UNL     1     -40.921  58.315 -50.963  1.00  0.00     0.030 A 
HETATM    7  C   UNL     1     -41.344  59.640 -50.799  1.00  0.00     0.019 A 
HETATM    8  C   UNL     1     -42.686  59.980 -50.996  1.00  0.00     0.032 A 
HETATM    9  C   UNL     1     -43.606  58.981 -51.322  1.00  0.00     0.019 A 
HETATM   10  C   UNL     1     -43.179  57.659 -51.490  1.00  0.00     0.030 A 
BRANCH   8  11
HETATM   11  C   UNL     1     -43.171  61.379 -50.858  1.00  0.00     0.251 C 
HETATM   12  N   UNL     1     -44.440  61.633 -51.339  1.00  0.00    -0.361 N 
HETATM   13  C   UNL     1     -45.049  62.923 -51.147  1.00  0.00     0.149 C 
HETATM   14  H   UNL     1     -45.042  60.852 -51.559  1.00  0.00     0.162 HD
HETATM   15  O   UNL     1     -42.474  62.221 -50.303  1.00  0.00    -0.268 OA
ENDBRANCH   8  11
ENDBRANCH   1   5
BRANCH   2  16
HETATM   16  C   UNL     1     -40.604  53.799 -51.274  1.00  0.00     0.144 A 
HETATM   17  O   UNL     1     -40.752  53.653 -52.631  1.00  0.00    -0.304 OA
HETATM   18  C   UNL     1     -40.354  52.389 -52.944  1.00  0.00     0.086 A 
HETATM   19  C   UNL     1     -39.957  51.708 -51.799  1.00  0.00     0.001 A 
HETATM   20  C   UNL     1     -40.336  51.841 -54.224  1.00  0.00     0.038 A 
HETATM   21  C   UNL     1     -40.127  52.621 -50.729  1.00  0.00     0.057 A 
HETATM   22  C   UNL     1     -39.506  50.382 -51.927  1.00  0.00     0.014 A 
HETATM   23  C   UNL     1     -39.473  49.804 -53.205  1.00  0.00     0.001 A 
HETATM   24  C   UNL     1     -39.882  50.522 -54.331  1.00  0.00     0.003 A 
ENDBRANCH   2  16
TORSDOF 3
ENDMDL
MODEL 4
REMARK VINA RESULT:      -7.4      1.782      2.074
REMARK  3 active torsions:
REMARK  status: ('A' for Active; 'I' for Inactive)
REMARK       I    between atoms: N_2  and  C_3 
REMARK    1  A    between atoms: C_3  and  C_4 
REMARK    2  A    between atoms: C_7  and  N_8 
REMARK       I    between atoms: N_8  and  C_9 
REMARK    3  A    between atoms: C_9  and  C_10 
ROOT
HETATM    1  N   UNL     1     -34.103  40.352 -53.829  1.00  0.00    -0.321 N 
HETATM    2  C   UNL     1     -33.469  40.660 -55.020  1.00  0.00     0.280 C 
HETATM    3  O   UNL     1     -32.257  40.749 -55.180  1.00  0.00    -0.265 OA
HETATM    4  H   UNL     1     -35.115  40.299 -53.891  1.00  0.00     0.169 HD
ENDROOT
BRANCH   1   5
HETATM    5  C   UNL     1     -33.527  40.149 -52.561  1.00  0.00     0.035 A 
HETATM    6  C   UNL     1     -32.154  40.188 -52.313  1.00  0.00     0.030 A 
HETATM    7  C   UNL     1     -31.659  40.018 -51.013  1.00  0.00     0.019 A 
HETATM    8  C   UNL     1     -32.539  39.808 -49.948  1.00  0.00     0.032 A 
HETATM    9  C   UNL     1     -33.912  39.734 -50.195  1.00  0.00     0.019 A 
HETATM   10  C   UNL     1     -34.402  39.910 -51.494  1.00  0.00     0.030 A 
BRANCH   8  11
HETATM   11  C   UNL     1     -32.057  39.650 -48.549  1.00  0.00     0.251 C 
HETATM   12  N   UNL     1     -32.523  38.544 -47.867  1.00  0.00    -0.361 N 
HETATM   13  C   UNL     1     -32.025  38.233 -46.552  1.00  0.00     0.149 C 
HETATM   14  H   UNL     1     -32.980  37.808 -48.387  1.00  0.00     0.162 HD
HETATM   15  O   UNL     1     -31.256  40.450 -48.079  1.00  0.00    -0.268 OA
ENDBRANCH   8  11
ENDBRANCH   1   5
BRANCH   2  16
HETATM   16  C   UNL     1     -34.404  40.891 -56.107  1.00  0.00     0.144 A 
HETATM   17  O   UNL     1     -34.706  39.864 -56.966  1.00  0.00    -0.304 OA
HETATM   18  C   UNL     1     -35.621  40.341 -57.854  1.00  0.00     0.086 A 
HETATM   19  C   UNL     1     -35.911  41.673 -57.584  1.00  0.00     0.001 A 
HETATM   20  C   UNL     1     -36.200  39.611 -58.889  1.00  0.00     0.038 A 
HETATM   21  C   UNL     1     -35.118  42.021 -56.462  1.00  0.00     0.057 A 
HETATM   22  C   UNL     1     -36.845  42.338 -58.399  1.00  0.00     0.014 A 
HETATM   23  C   UNL     1     -37.448  41.626 -59.447  1.00  0.00     0.001 A 
HETATM   24  C   UNL     1     -37.129  40.287 -59.686  1.00  0.00     0.003 A 
ENDBRANCH   2  16
TORSDOF 3
ENDMDL
MODEL 5
REMARK VINA RESULT:      -7.4     15.806     19.383
REMARK  3 active torsions:
REMARK  status: ('A' for Active; 'I' for Inactive)
REMARK       I    between atoms: N_2  and  C_3 
REMARK    1  A    between atoms: C_3  and  C_4 
REMARK    2  A    between atoms: C_7  and  N_8 
REMARK       I    between atoms: N_8  and  C_9 
REMARK    3  A    between atoms: C_9  and  C_10 
ROOT
HETATM    1  N   UNL     1     -42.297  55.439 -56.681  1.00  0.00    -0.321 N 
HETATM    2  C   UNL     1     -42.744  55.336 -55.375  1.00  0.00     0.280 C 
HETATM    3  O   UNL     1     -43.711  55.924 -54.904  1.00  0.00    -0.265 OA
HETATM    4  H   UNL     1     -41.494  54.858 -56.899  1.00  0.00     0.169 HD
ENDROOT
BRANCH   1   5
HETATM    5  C   UNL     1     -42.786  56.267 -57.708  1.00  0.00     0.035 A 
HETATM    6  C   UNL     1     -43.549  55.807 -58.784  1.00  0.00     0.030 A 
HETATM    7  C   UNL     1     -44.036  56.701 -59.747  1.00  0.00     0.019 A 
HETATM    8  C   UNL     1     -43.764  58.068 -59.638  1.00  0.00     0.032 A 
HETATM    9  C   UNL     1     -42.974  58.530 -58.582  1.00  0.00     0.019 A 
HETATM   10  C   UNL     1     -42.494  57.634 -57.621  1.00  0.00     0.030 A 
BRANCH   8  11
HETATM   11  C   UNL     1     -44.285  59.054 -60.623  1.00  0.00     0.251 C 
HETATM   12  N   UNL     1     -45.658  59.127 -60.742  1.00  0.00    -0.361 N 
HETATM   13  C   UNL     1     -46.267  60.130 -61.577  1.00  0.00     0.149 C 
HETATM   14  H   UNL     1     -46.232  58.684 -60.037  1.00  0.00     0.162 HD
HETATM   15  O   UNL     1     -43.511  59.774 -61.242  1.00  0.00    -0.268 OA
ENDBRANCH   8  11
ENDBRANCH   1   5
BRANCH   2  16
HETATM   16  C   UNL     1     -41.928  54.441 -54.575  1.00  0.00     0.144 A 
HETATM   17  O   UNL     1     -41.993  54.512 -53.206  1.00  0.00    -0.304 OA
HETATM   18  C   UNL     1     -41.163  53.550 -52.715  1.00  0.00     0.086 A 
HETATM   19  C   UNL     1     -40.552  52.859 -53.754  1.00  0.00     0.001 A 
HETATM   20  C   UNL     1     -40.949  53.279 -51.366  1.00  0.00     0.038 A 
HETATM   21  C   UNL     1     -41.045  53.444 -54.948  1.00  0.00     0.057 A 
HETATM   22  C   UNL     1     -39.660  51.819 -53.439  1.00  0.00     0.014 A 
HETATM   23  C   UNL     1     -39.427  51.521 -52.088  1.00  0.00     0.001 A 
HETATM   24  C   UNL     1     -40.061  52.239 -51.072  1.00  0.00     0.003 A 
ENDBRANCH   2  16
TORSDOF 3
ENDMDL
MODEL 6
REMARK VINA RESULT:      -7.3     14.919     16.537
REMARK  3 active torsions:
REMARK  status: ('A' for Active; 'I' for Inactive)
REMARK       I    between atoms: N_2  and  C_3 
REMARK    1  A    between atoms: C_3  and  C_4 
REMARK    2  A    between atoms: C_7  and  N_8 
REMARK       I    between atoms: N_8  and  C_9 
REMARK    3  A    between atoms: C_9  and  C_10 
ROOT
HETATM    1  N   UNL     1     -42.630  54.662 -55.357  1.00  0.00    -0.321 N 
HETATM    2  C   UNL     1     -42.489  55.912 -55.935  1.00  0.00     0.280 C 
HETATM    3  O   UNL     1     -41.823  56.836 -55.482  1.00  0.00    -0.265 OA
HETATM    4  H   UNL     1     -43.202  54.014 -55.888  1.00  0.00     0.169 HD
ENDROOT
BRANCH   1   5
HETATM    5  C   UNL     1     -42.121  54.208 -54.127  1.00  0.00     0.035 A 
HETATM    6  C   UNL     1     -40.884  53.575 -53.980  1.00  0.00     0.030 A 
HETATM    7  C   UNL     1     -40.427  53.188 -52.714  1.00  0.00     0.019 A 
HETATM    8  C   UNL     1     -41.206  53.434 -51.579  1.00  0.00     0.032 A 
HETATM    9  C   UNL     1     -42.458  54.036 -51.723  1.00  0.00     0.019 A 
HETATM   10  C   UNL     1     -42.909  54.425 -52.989  1.00  0.00     0.030 A 
BRANCH   8  11
HETATM   11  C   UNL     1     -40.745  53.063 -50.214  1.00  0.00     0.251 C 
HETATM   12  N   UNL     1     -40.697  54.088 -49.290  1.00  0.00    -0.361 N 
HETATM   13  C   UNL     1     -40.380  53.814 -47.912  1.00  0.00     0.149 C 
HETATM   14  H   UNL     1     -41.158  54.961 -49.507  1.00  0.00     0.162 HD
HETATM   15  O   UNL     1     -40.475  51.897 -49.950  1.00  0.00    -0.268 OA
ENDBRANCH   8  11
ENDBRANCH   1   5
BRANCH   2  16
HETATM   16  C   UNL     1     -43.239  56.042 -57.172  1.00  0.00     0.144 A 
HETATM   17  O   UNL     1     -43.331  54.968 -58.022  1.00  0.00    -0.304 OA
HETATM   18  C   UNL     1     -44.109  55.353 -59.071  1.00  0.00     0.086 A 
HETATM   19  C   UNL     1     -44.517  56.672 -58.914  1.00  0.00     0.001 A 
HETATM   20  C   UNL     1     -44.461  54.551 -60.153  1.00  0.00     0.038 A 
HETATM   21  C   UNL     1     -43.947  57.110 -57.692  1.00  0.00     0.057 A 
HETATM   22  C   UNL     1     -45.338  57.245 -59.902  1.00  0.00     0.014 A 
HETATM   23  C   UNL     1     -45.712  56.460 -61.003  1.00  0.00     0.001 A 
HETATM   24  C   UNL     1     -45.280  55.137 -61.124  1.00  0.00     0.003 A 
ENDBRANCH   2  16
TORSDOF 3
ENDMDL
MODEL 7
REMARK VINA RESULT:      -7.3     16.301     18.650
REMARK  3 active torsions:
REMARK  status: ('A' for Active; 'I' for Inactive)
REMARK       I    between atoms: N_2  and  C_3 
REMARK    1  A    between atoms: C_3  and  C_4 
REMARK    2  A    between atoms: C_7  and  N_8 
REMARK       I    between atoms: N_8  and  C_9 
REMARK    3  A    between atoms: C_9  and  C_10 
ROOT
HETATM    1  N   UNL     1     -42.288  55.874 -52.319  1.00  0.00    -0.321 N 
HETATM    2  C   UNL     1     -41.246  55.518 -53.158  1.00  0.00     0.280 C 
HETATM    3  O   UNL     1     -40.716  56.249 -53.985  1.00  0.00    -0.265 OA
HETATM    4  H   UNL     1     -42.584  55.143 -51.680  1.00  0.00     0.169 HD
ENDROOT
BRANCH   1   5
HETATM    5  C   UNL     1     -42.997  57.088 -52.276  1.00  0.00     0.035 A 
HETATM    6  C   UNL     1     -42.683  58.146 -51.420  1.00  0.00     0.030 A 
HETATM    7  C   UNL     1     -43.412  59.341 -51.466  1.00  0.00     0.019 A 
HETATM    8  C   UNL     1     -44.465  59.489 -52.374  1.00  0.00     0.032 A 
HETATM    9  C   UNL     1     -44.805  58.422 -53.209  1.00  0.00     0.019 A 
HETATM   10  C   UNL     1     -44.071  57.232 -53.164  1.00  0.00     0.030 A 
BRANCH   8  11
HETATM   11  C   UNL     1     -45.246  60.751 -52.473  1.00  0.00     0.251 C 
HETATM   12  N   UNL     1     -46.615  60.611 -52.584  1.00  0.00    -0.361 N 
HETATM   13  C   UNL     1     -47.471  61.769 -52.566  1.00  0.00     0.149 C 
HETATM   14  H   UNL     1     -47.030  59.711 -52.388  1.00  0.00     0.162 HD
HETATM   15  O   UNL     1     -44.677  61.834 -52.411  1.00  0.00    -0.268 OA
ENDBRANCH   8  11
ENDBRANCH   1   5
BRANCH   2  16
HETATM   16  C   UNL     1     -40.827  54.140 -52.972  1.00  0.00     0.144 A 
HETATM   17  O   UNL     1     -40.810  53.289 -54.049  1.00  0.00    -0.304 OA
HETATM   18  C   UNL     1     -40.350  52.088 -53.603  1.00  0.00     0.086 A 
HETATM   19  C   UNL     1     -40.073  52.148 -52.243  1.00  0.00     0.001 A 
HETATM   20  C   UNL     1     -40.168  50.951 -54.387  1.00  0.00     0.038 A 
HETATM   21  C   UNL     1     -40.390  53.471 -51.844  1.00  0.00     0.057 A 
HETATM   22  C   UNL     1     -39.580  50.997 -51.604  1.00  0.00     0.014 A 
HETATM   23  C   UNL     1     -39.383  49.837 -52.368  1.00  0.00     0.001 A 
HETATM   24  C   UNL     1     -39.674  49.816 -53.734  1.00  0.00     0.003 A 
ENDBRANCH   2  16
TORSDOF 3
ENDMDL
MODEL 8
REMARK VINA RESULT:      -7.3     15.952     18.401
REMARK  3 active torsions:
REMARK  status: ('A' for Active; 'I' for Inactive)
REMARK       I    between atoms: N_2  and  C_3 
REMARK    1  A    between atoms: C_3  and  C_4 
REMARK    2  A    between atoms: C_7  and  N_8 
REMARK       I    between atoms: N_8  and  C_9 
REMARK    3  A    between atoms: C_9  and  C_10 
ROOT
HETATM    1  N   UNL     1     -41.620  55.821 -52.982  1.00  0.00    -0.321 N 
HETATM    2  C   UNL     1     -41.081  55.258 -51.838  1.00  0.00     0.280 C 
HETATM    3  O   UNL     1     -40.922  55.833 -50.767  1.00  0.00    -0.265 OA
HETATM    4  H   UNL     1     -41.697  55.185 -53.769  1.00  0.00     0.169 HD
ENDROOT
BRANCH   1   5
HETATM    5  C   UNL     1     -42.026  57.151 -53.191  1.00  0.00     0.035 A 
HETATM    6  C   UNL     1     -41.214  58.136 -53.758  1.00  0.00     0.030 A 
HETATM    7  C   UNL     1     -41.705  59.430 -53.973  1.00  0.00     0.019 A 
HETATM    8  C   UNL     1     -43.020  59.750 -53.623  1.00  0.00     0.032 A 
HETATM    9  C   UNL     1     -43.827  58.779 -53.025  1.00  0.00     0.019 A 
HETATM   10  C   UNL     1     -43.334  57.486 -52.817  1.00  0.00     0.030 A 
BRANCH   8  11
HETATM   11  C   UNL     1     -43.589  61.104 -53.860  1.00  0.00     0.251 C 
HETATM   12  N   UNL     1     -42.722  62.165 -53.695  1.00  0.00    -0.361 N 
HETATM   13  C   UNL     1     -43.139  63.505 -54.015  1.00  0.00     0.149 C 
HETATM   14  H   UNL     1     -41.731  61.979 -53.632  1.00  0.00     0.162 HD
HETATM   15  O   UNL     1     -44.753  61.228 -54.224  1.00  0.00    -0.268 OA
ENDBRANCH   8  11
ENDBRANCH   1   5
BRANCH   2  16
HETATM   16  C   UNL     1     -40.692  53.872 -52.028  1.00  0.00     0.144 A 
HETATM   17  O   UNL     1     -40.666  53.346 -53.296  1.00  0.00    -0.304 OA
HETATM   18  C   UNL     1     -40.239  52.058 -53.186  1.00  0.00     0.086 A 
HETATM   19  C   UNL     1     -39.996  51.738 -51.856  1.00  0.00     0.001 A 
HETATM   20  C   UNL     1     -40.061  51.173 -54.247  1.00  0.00     0.038 A 
HETATM   21  C   UNL     1     -40.296  52.910 -51.117  1.00  0.00     0.057 A 
HETATM   22  C   UNL     1     -39.540  50.445 -51.547  1.00  0.00     0.014 A 
HETATM   23  C   UNL     1     -39.347  49.532 -52.595  1.00  0.00     0.001 A 
HETATM   24  C   UNL     1     -39.604  49.892 -53.920  1.00  0.00     0.003 A 
ENDBRANCH   2  16
TORSDOF 3
ENDMDL
MODEL 9
REMARK VINA RESULT:      -7.2     15.695     17.517
REMARK  3 active torsions:
REMARK  status: ('A' for Active; 'I' for Inactive)
REMARK       I    between atoms: N_2  and  C_3 
REMARK    1  A    between atoms: C_3  and  C_4 
REMARK    2  A    between atoms: C_7  and  N_8 
REMARK       I    between atoms: N_8  and  C_9 
REMARK    3  A    between atoms: C_9  and  C_10 
ROOT
HETATM    1  N   UNL     1     -43.189  55.061 -56.426  1.00  0.00    -0.321 N 
HETATM    2  C   UNL     1     -43.087  56.243 -57.138  1.00  0.00     0.280 C 
HETATM    3  O   UNL     1     -42.246  57.115 -56.954  1.00  0.00    -0.265 OA
HETATM    4  H   UNL     1     -43.934  54.445 -56.735  1.00  0.00     0.169 HD
ENDROOT
BRANCH   1   5
HETATM    5  C   UNL     1     -42.425  54.638 -55.323  1.00  0.00     0.035 A 
HETATM    6  C   UNL     1     -41.057  54.361 -55.380  1.00  0.00     0.030 A 
HETATM    7  C   UNL     1     -40.357  53.985 -54.227  1.00  0.00     0.019 A 
HETATM    8  C   UNL     1     -41.021  53.885 -53.002  1.00  0.00     0.032 A 
HETATM    9  C   UNL     1     -42.396  54.128 -52.944  1.00  0.00     0.019 A 
HETATM   10  C   UNL     1     -43.091  54.508 -54.097  1.00  0.00     0.030 A 
BRANCH   8  11
HETATM   11  C   UNL     1     -40.309  53.515 -51.749  1.00  0.00     0.251 C 
HETATM   12  N   UNL     1     -40.413  54.411 -50.704  1.00  0.00    -0.361 N 
HETATM   13  C   UNL     1     -39.863  54.092 -49.412  1.00  0.00     0.149 C 
HETATM   14  H   UNL     1     -41.110  55.141 -50.756  1.00  0.00     0.162 HD
HETATM   15  O   UNL     1     -39.713  52.447 -51.671  1.00  0.00    -0.268 OA
ENDBRANCH   8  11
ENDBRANCH   1   5
BRANCH   2  16
HETATM   16  C   UNL     1     -44.114  56.371 -58.157  1.00  0.00     0.144 A 
HETATM   17  O   UNL     1     -44.897  57.497 -58.189  1.00  0.00    -0.304 OA
HETATM   18  C   UNL     1     -45.739  57.370 -59.251  1.00  0.00     0.086 A 
HETATM   19  C   UNL     1     -45.516  56.165 -59.906  1.00  0.00     0.001 A 
HETATM   20  C   UNL     1     -46.691  58.307 -59.643  1.00  0.00     0.038 A 
HETATM   21  C   UNL     1     -44.472  55.525 -59.192  1.00  0.00     0.057 A 
HETATM   22  C   UNL     1     -46.293  55.860 -61.038  1.00  0.00     0.014 A 
HETATM   23  C   UNL     1     -47.258  56.787 -61.460  1.00  0.00     0.001 A 
HETATM   24  C   UNL     1     -47.453  57.988 -60.773  1.00  0.00     0.003 A 
ENDBRANCH   2  16
TORSDOF 3
ENDMDL
MODEL 10
REMARK VINA RESULT:      -7.1     17.178     18.928
REMARK  3 active torsions:
REMARK  status: ('A' for Active; 'I' for Inactive)
REMARK       I    between atoms: N_2  and  C_3 
REMARK    1  A    between atoms: C_3  and  C_4 
REMARK    2  A    between atoms: C_7  and  N_8 
REMARK       I    between atoms: N_8  and  C_9 
REMARK    3  A    between atoms: C_9  and  C_10 
ROOT
HETATM    1  N   UNL     1     -42.120  57.003 -51.858  1.00  0.00    -0.321 N 
HETATM    2  C   UNL     1     -41.453  58.076 -51.293  1.00  0.00     0.280 C 
HETATM    3  O   UNL     1     -40.252  58.122 -51.054  1.00  0.00    -0.265 OA
HETATM    4  H   UNL     1     -43.113  57.153 -52.005  1.00  0.00     0.169 HD
ENDROOT
BRANCH   1   5
HETATM    5  C   UNL     1     -41.606  55.741 -52.208  1.00  0.00     0.035 A 
HETATM    6  C   UNL     1     -41.154  55.409 -53.487  1.00  0.00     0.030 A 
HETATM    7  C   UNL     1     -40.615  54.143 -53.747  1.00  0.00     0.019 A 
HETATM    8  C   UNL     1     -40.522  53.195 -52.724  1.00  0.00     0.032 A 
HETATM    9  C   UNL     1     -41.003  53.509 -51.451  1.00  0.00     0.019 A 
HETATM   10  C   UNL     1     -41.536  54.777 -51.194  1.00  0.00     0.030 A 
BRANCH   8  11
HETATM   11  C   UNL     1     -39.932  51.848 -52.952  1.00  0.00     0.251 C 
HETATM   12  N   UNL     1     -40.274  51.227 -54.136  1.00  0.00    -0.361 N 
HETATM   13  C   UNL     1     -39.664  49.976 -54.507  1.00  0.00     0.149 C 
HETATM   14  H   UNL     1     -40.718  51.772 -54.862  1.00  0.00     0.162 HD
HETATM   15  O   UNL     1     -39.154  51.370 -52.134  1.00  0.00    -0.268 OA
ENDBRANCH   8  11
ENDBRANCH   1   5
BRANCH   2  16
HETATM   16  C   UNL     1     -42.339  59.184 -50.984  1.00  0.00     0.144 A 
HETATM   17  O   UNL     1     -43.687  59.054 -51.210  1.00  0.00    -0.304 OA
HETATM   18  C   UNL     1     -44.275  60.213 -50.805  1.00  0.00     0.086 A 
HETATM   19  C   UNL     1     -43.319  61.100 -50.324  1.00  0.00     0.001 A 
HETATM   20  C   UNL     1     -45.639  60.486 -50.852  1.00  0.00     0.038 A 
HETATM   21  C   UNL     1     -42.075  60.432 -50.450  1.00  0.00     0.057 A 
HETATM   22  C   UNL     1     -43.742  62.356 -49.853  1.00  0.00     0.014 A 
HETATM   23  C   UNL     1     -45.111  62.659 -49.885  1.00  0.00     0.001 A 
HETATM   24  C   UNL     1     -46.041  61.739 -50.376  1.00  0.00     0.003 A 
ENDBRANCH   2  16
TORSDOF 3
ENDMDL
