MODEL 1
REMARK VINA RESULT:      -9.1      0.000      0.000
REMARK  8 active torsions:
REMARK  status: ('A' for Active; 'I' for Inactive)
REMARK    1  A    between atoms: C_4  and  C_5 
REMARK    2  A    between atoms: C_5  and  C_6 
REMARK    3  A    between atoms: C_6  and  C_7 
REMARK    4  A    between atoms: C_7  and  N_8 
REMARK    5  A    between atoms: C_17  and  C_18 
REMARK    6  A    between atoms: C_18  and  N_19 
REMARK    7  A    between atoms: C_23  and  O_24 
REMARK    8  A    between atoms: C_23  and  C_25 
ROOT
HETATM    1  N   UNL     1     -41.991  56.076 -52.008  1.00  0.00    -0.065 N 
HETATM    2  H   UNL     1     -41.273  55.462 -51.603  1.00  0.00     0.280 HD
HETATM    3  C   UNL     1     -41.303  57.402 -52.263  1.00  0.00     0.276 C 
HETATM    4  C   UNL     1     -42.120  58.386 -53.057  1.00  0.00     0.001 A 
HETATM    5  C   UNL     1     -43.289  58.913 -52.504  1.00  0.00     0.076 A 
HETATM    6  O   UNL     1     -43.695  58.540 -51.254  1.00  0.00    -0.349 OA
HETATM    7  C   UNL     1     -44.171  57.185 -51.243  1.00  0.00     0.203 C 
HETATM    8  C   UNL     1     -43.048  56.196 -50.907  1.00  0.00     0.261 C 
HETATM    9  C   UNL     1     -41.754  58.782 -54.356  1.00  0.00     0.020 A 
HETATM   10  C   UNL     1     -42.545  59.690 -55.089  1.00  0.00    -0.032 A 
HETATM   11  C   UNL     1     -43.687  60.235 -54.484  1.00  0.00     0.011 A 
HETATM   12  C   UNL     1     -44.049  59.855 -53.190  1.00  0.00     0.038 A 
ENDROOT
BRANCH  10  13
HETATM   13  C   UNL     1     -42.193  60.041 -56.516  1.00  0.00     0.273 C 
BRANCH  13  14
HETATM   14  N   UNL     1     -42.048  58.868 -57.466  1.00  0.00    -0.067 N 
HETATM   15  H   UNL     1     -41.111  58.469 -57.307  1.00  0.00     0.280 HD
HETATM   16  C   UNL     1     -43.048  57.769 -57.198  1.00  0.00     0.238 C 
HETATM   17  C   UNL     1     -42.874  56.648 -58.205  1.00  0.00     0.071 C 
HETATM   18  C   UNL     1     -43.078  57.140 -59.652  1.00  0.00     0.089 C 
HETATM   19  C   UNL     1     -42.007  58.221 -59.890  1.00  0.00     0.071 C 
HETATM   20  C   UNL     1     -42.087  59.369 -58.896  1.00  0.00     0.238 C 
BRANCH  18  21
HETATM   21  O   UNL     1     -42.740  56.046 -60.503  1.00  0.00    -0.385 OA
HETATM   22  H   UNL     1     -43.077  56.203 -61.406  1.00  0.00     0.211 HD
ENDBRANCH  18  21
BRANCH  18  23
HETATM   23  C   UNL     1     -44.520  57.544 -59.939  1.00  0.00    -0.006 A 
HETATM   24  C   UNL     1     -44.883  58.799 -60.425  1.00  0.00     0.126 A 
HETATM   25  N   UNL     1     -46.154  59.215 -60.608  1.00  0.00    -0.272 NA
HETATM   26  C   UNL     1     -47.138  58.320 -60.392  1.00  0.00     0.116 A 
HETATM   27  C   UNL     1     -46.898  57.025 -59.977  1.00  0.00     0.020 A 
HETATM   28  C   UNL     1     -45.578  56.637 -59.754  1.00  0.00     0.013 A 
ENDBRANCH  18  23
ENDBRANCH  13  14
ENDBRANCH  10  13
BRANCH   1  29
HETATM   29  C   UNL     1     -42.510  55.349 -53.243  1.00  0.00     0.236 C 
BRANCH  29  30
HETATM   30  C   UNL     1     -42.085  53.877 -53.235  1.00  0.00     0.039 C 
BRANCH  30  31
HETATM   31  C   UNL     1     -40.609  53.627 -53.603  1.00  0.00     0.040 C 
HETATM   32  C   UNL     1     -40.255  54.135 -55.004  1.00  0.00     0.017 C 
BRANCH  31  33
HETATM   33  C   UNL     1     -40.217  52.202 -53.433  1.00  0.00     0.057 A 
HETATM   34  O   UNL     1     -39.953  51.780 -52.164  1.00  0.00    -0.319 OA
HETATM   35  C   UNL     1     -39.651  50.452 -52.242  1.00  0.00     0.049 A 
HETATM   36  C   UNL     1     -39.350  49.754 -50.974  1.00  0.00     0.076 C 
HETATM   37  C   UNL     1     -39.711  50.028 -53.551  1.00  0.00     0.035 A 
HETATM   38  C   UNL     1     -40.075  51.157 -54.321  1.00  0.00     0.035 A 
ENDBRANCH  31  33
ENDBRANCH  30  31
ENDBRANCH  29  30
ENDBRANCH   1  29
TORSDOF 8
ENDMDL
MODEL 2
REMARK VINA RESULT:      -9.0      1.699      5.300
REMARK  8 active torsions:
REMARK  status: ('A' for Active; 'I' for Inactive)
REMARK    1  A    between atoms: C_4  and  C_5 
REMARK    2  A    between atoms: C_5  and  C_6 
REMARK    3  A    between atoms: C_6  and  C_7 
REMARK    4  A    between atoms: C_7  and  N_8 
REMARK    5  A    between atoms: C_17  and  C_18 
REMARK    6  A    between atoms: C_18  and  N_19 
REMARK    7  A    between atoms: C_23  and  O_24 
REMARK    8  A    between atoms: C_23  and  C_25 
ROOT
HETATM    1  N   UNL     1     -41.230  53.625 -50.317  1.00  0.00    -0.065 N 
HETATM    2  H   UNL     1     -41.769  53.523 -49.447  1.00  0.00     0.280 HD
HETATM    3  C   UNL     1     -42.245  53.550 -51.441  1.00  0.00     0.276 C 
HETATM    4  C   UNL     1     -41.696  53.892 -52.800  1.00  0.00     0.001 A 
HETATM    5  C   UNL     1     -40.741  53.059 -53.386  1.00  0.00     0.076 A 
HETATM    6  O   UNL     1     -40.302  51.941 -52.735  1.00  0.00    -0.349 OA
HETATM    7  C   UNL     1     -39.473  52.283 -51.613  1.00  0.00     0.203 C 
HETATM    8  C   UNL     1     -40.294  52.413 -50.324  1.00  0.00     0.261 C 
HETATM    9  C   UNL     1     -42.101  55.044 -53.498  1.00  0.00     0.020 A 
HETATM   10  C   UNL     1     -41.560  55.357 -54.762  1.00  0.00    -0.032 A 
HETATM   11  C   UNL     1     -40.637  54.472 -55.341  1.00  0.00     0.011 A 
HETATM   12  C   UNL     1     -40.241  53.321 -54.657  1.00  0.00     0.038 A 
ENDROOT
BRANCH  10  13
HETATM   13  C   UNL     1     -41.933  56.641 -55.464  1.00  0.00     0.273 C 
BRANCH  13  14
HETATM   14  N   UNL     1     -42.051  56.556 -56.975  1.00  0.00    -0.067 N 
HETATM   15  H   UNL     1     -41.221  56.044 -57.309  1.00  0.00     0.280 HD
HETATM   16  C   UNL     1     -43.263  55.776 -57.425  1.00  0.00     0.238 C 
HETATM   17  C   UNL     1     -43.342  55.763 -58.940  1.00  0.00     0.071 C 
HETATM   18  C   UNL     1     -43.444  57.187 -59.521  1.00  0.00     0.089 C 
HETATM   19  C   UNL     1     -42.166  57.923 -59.074  1.00  0.00     0.071 C 
HETATM   20  C   UNL     1     -41.990  57.950 -57.565  1.00  0.00     0.238 C 
BRANCH  18  21
HETATM   21  O   UNL     1     -43.355  57.053 -60.939  1.00  0.00    -0.385 OA
HETATM   22  H   UNL     1     -43.884  56.290 -61.240  1.00  0.00     0.211 HD
ENDBRANCH  18  21
BRANCH  18  23
HETATM   23  C   UNL     1     -44.766  57.867 -59.184  1.00  0.00    -0.006 A 
HETATM   24  C   UNL     1     -44.902  59.246 -59.028  1.00  0.00     0.126 A 
HETATM   25  N   UNL     1     -46.038  59.869 -58.647  1.00  0.00    -0.272 NA
HETATM   26  C   UNL     1     -47.141  59.112 -58.497  1.00  0.00     0.116 A 
HETATM   27  C   UNL     1     -47.148  57.745 -58.693  1.00  0.00     0.020 A 
HETATM   28  C   UNL     1     -45.950  57.123 -59.043  1.00  0.00     0.013 A 
ENDBRANCH  18  23
ENDBRANCH  13  14
ENDBRANCH  10  13
BRANCH   1  29
HETATM   29  C   UNL     1     -40.480  54.946 -50.188  1.00  0.00     0.236 C 
BRANCH  29  30
HETATM   30  C   UNL     1     -41.433  56.087 -49.816  1.00  0.00     0.039 C 
BRANCH  30  31
HETATM   31  C   UNL     1     -41.496  57.237 -50.842  1.00  0.00     0.040 C 
HETATM   32  C   UNL     1     -40.668  58.453 -50.417  1.00  0.00     0.017 C 
BRANCH  31  33
HETATM   33  C   UNL     1     -42.894  57.625 -51.170  1.00  0.00     0.057 A 
HETATM   34  O   UNL     1     -43.085  58.873 -51.686  1.00  0.00    -0.319 OA
HETATM   35  C   UNL     1     -44.420  58.998 -51.938  1.00  0.00     0.049 A 
HETATM   36  C   UNL     1     -44.876  60.271 -52.534  1.00  0.00     0.076 C 
HETATM   37  C   UNL     1     -45.081  57.844 -51.578  1.00  0.00     0.035 A 
HETATM   38  C   UNL     1     -44.097  56.958 -51.081  1.00  0.00     0.035 A 
ENDBRANCH  31  33
ENDBRANCH  30  31
ENDBRANCH  29  30
ENDBRANCH   1  29
TORSDOF 8
ENDMDL
MODEL 3
REMARK VINA RESULT:      -8.8      1.906      4.843
REMARK  8 active torsions:
REMARK  status: ('A' for Active; 'I' for Inactive)
REMARK    1  A    between atoms: C_4  and  C_5 
REMARK    2  A    between atoms: C_5  and  C_6 
REMARK    3  A    between atoms: C_6  and  C_7 
REMARK    4  A    between atoms: C_7  and  N_8 
REMARK    5  A    between atoms: C_17  and  C_18 
REMARK    6  A    between atoms: C_18  and  N_19 
REMARK    7  A    between atoms: C_23  and  O_24 
REMARK    8  A    between atoms: C_23  and  C_25 
ROOT
HETATM    1  N   UNL     1     -42.272  54.268 -50.366  1.00  0.00    -0.065 N 
HETATM    2  H   UNL     1     -42.853  54.034 -49.550  1.00  0.00     0.280 HD
HETATM    3  C   UNL     1     -42.932  53.591 -51.550  1.00  0.00     0.276 C 
HETATM    4  C   UNL     1     -42.362  53.981 -52.887  1.00  0.00     0.001 A 
HETATM    5  C   UNL     1     -41.050  53.625 -53.207  1.00  0.00     0.076 A 
HETATM    6  O   UNL     1     -40.283  52.930 -52.315  1.00  0.00    -0.349 OA
HETATM    7  C   UNL     1     -39.904  53.753 -51.201  1.00  0.00     0.203 C 
HETATM    8  C   UNL     1     -40.911  53.642 -50.049  1.00  0.00     0.261 C 
HETATM    9  C   UNL     1     -43.106  54.716 -53.829  1.00  0.00     0.020 A 
HETATM   10  C   UNL     1     -42.546  55.088 -55.068  1.00  0.00    -0.032 A 
HETATM   11  C   UNL     1     -41.241  54.672 -55.373  1.00  0.00     0.011 A 
HETATM   12  C   UNL     1     -40.502  53.932 -54.448  1.00  0.00     0.038 A 
ENDROOT
BRANCH  10  13
HETATM   13  C   UNL     1     -43.320  55.953 -56.035  1.00  0.00     0.273 C 
BRANCH  13  14
HETATM   14  N   UNL     1     -42.589  56.333 -57.310  1.00  0.00    -0.067 N 
HETATM   15  H   UNL     1     -41.636  55.946 -57.233  1.00  0.00     0.280 HD
HETATM   16  C   UNL     1     -43.213  55.731 -58.545  1.00  0.00     0.238 C 
HETATM   17  C   UNL     1     -42.460  56.182 -59.783  1.00  0.00     0.071 C 
HETATM   18  C   UNL     1     -42.473  57.715 -59.936  1.00  0.00     0.089 C 
HETATM   19  C   UNL     1     -41.784  58.276 -58.677  1.00  0.00     0.071 C 
HETATM   20  C   UNL     1     -42.457  57.840 -57.385  1.00  0.00     0.238 C 
BRANCH  18  21
HETATM   21  O   UNL     1     -41.613  58.020 -61.033  1.00  0.00    -0.385 OA
HETATM   22  H   UNL     1     -41.113  57.226 -61.302  1.00  0.00     0.211 HD
ENDBRANCH  18  21
BRANCH  18  23
HETATM   23  C   UNL     1     -43.861  58.264 -60.247  1.00  0.00    -0.006 A 
HETATM   24  C   UNL     1     -44.087  59.560 -60.708  1.00  0.00     0.126 A 
HETATM   25  N   UNL     1     -45.308  60.102 -60.910  1.00  0.00    -0.272 NA
HETATM   26  C   UNL     1     -46.378  59.302 -60.742  1.00  0.00     0.116 A 
HETATM   27  C   UNL     1     -46.276  57.981 -60.356  1.00  0.00     0.020 A 
HETATM   28  C   UNL     1     -45.006  57.461 -60.111  1.00  0.00     0.013 A 
ENDBRANCH  18  23
ENDBRANCH  13  14
ENDBRANCH  10  13
BRANCH   1  29
HETATM   29  C   UNL     1     -42.221  55.791 -50.415  1.00  0.00     0.236 C 
BRANCH  29  30
HETATM   30  C   UNL     1     -43.601  56.379 -50.730  1.00  0.00     0.039 C 
BRANCH  30  31
HETATM   31  C   UNL     1     -43.574  57.749 -51.436  1.00  0.00     0.040 C 
HETATM   32  C   UNL     1     -44.567  57.833 -52.599  1.00  0.00     0.017 C 
BRANCH  31  33
HETATM   33  C   UNL     1     -42.204  58.135 -51.870  1.00  0.00     0.057 A 
HETATM   34  O   UNL     1     -41.390  58.690 -50.928  1.00  0.00    -0.319 OA
HETATM   35  C   UNL     1     -40.191  58.931 -51.531  1.00  0.00     0.049 A 
HETATM   36  C   UNL     1     -39.121  59.514 -50.695  1.00  0.00     0.076 C 
HETATM   37  C   UNL     1     -40.239  58.544 -52.852  1.00  0.00     0.035 A 
HETATM   38  C   UNL     1     -41.538  58.031 -53.072  1.00  0.00     0.035 A 
ENDBRANCH  31  33
ENDBRANCH  30  31
ENDBRANCH  29  30
ENDBRANCH   1  29
TORSDOF 8
ENDMDL
MODEL 4
REMARK VINA RESULT:      -8.5      2.045      5.755
REMARK  8 active torsions:
REMARK  status: ('A' for Active; 'I' for Inactive)
REMARK    1  A    between atoms: C_4  and  C_5 
REMARK    2  A    between atoms: C_5  and  C_6 
REMARK    3  A    between atoms: C_6  and  C_7 
REMARK    4  A    between atoms: C_7  and  N_8 
REMARK    5  A    between atoms: C_17  and  C_18 
REMARK    6  A    between atoms: C_18  and  N_19 
REMARK    7  A    between atoms: C_23  and  O_24 
REMARK    8  A    between atoms: C_23  and  C_25 
ROOT
HETATM    1  N   UNL     1     -42.243  55.561 -50.087  1.00  0.00    -0.065 N 
HETATM    2  H   UNL     1     -42.828  55.835 -49.286  1.00  0.00     0.280 HD
HETATM    3  C   UNL     1     -43.008  54.465 -50.800  1.00  0.00     0.276 C 
HETATM    4  C   UNL     1     -42.429  54.065 -52.131  1.00  0.00     0.001 A 
HETATM    5  C   UNL     1     -41.177  53.449 -52.179  1.00  0.00     0.076 A 
HETATM    6  O   UNL     1     -40.476  53.209 -51.031  1.00  0.00    -0.349 OA
HETATM    7  C   UNL     1     -39.975  54.429 -50.462  1.00  0.00     0.203 C 
HETATM    8  C   UNL     1     -40.959  55.025 -49.448  1.00  0.00     0.261 C 
HETATM    9  C   UNL     1     -43.103  54.312 -53.341  1.00  0.00     0.020 A 
HETATM   10  C   UNL     1     -42.533  53.947 -54.578  1.00  0.00    -0.032 A 
HETATM   11  C   UNL     1     -41.295  53.287 -54.585  1.00  0.00     0.011 A 
HETATM   12  C   UNL     1     -40.627  53.029 -53.386  1.00  0.00     0.038 A 
ENDROOT
BRANCH  10  13
HETATM   13  C   UNL     1     -43.222  54.296 -55.876  1.00  0.00     0.273 C 
BRANCH  13  14
HETATM   14  N   UNL     1     -42.638  55.472 -56.637  1.00  0.00    -0.067 N 
HETATM   15  H   UNL     1     -41.614  55.355 -56.625  1.00  0.00     0.280 HD
HETATM   16  C   UNL     1     -43.064  55.503 -58.085  1.00  0.00     0.238 C 
HETATM   17  C   UNL     1     -42.479  56.722 -58.774  1.00  0.00     0.071 C 
HETATM   18  C   UNL     1     -42.940  58.033 -58.109  1.00  0.00     0.089 C 
HETATM   19  C   UNL     1     -42.441  57.972 -56.653  1.00  0.00     0.071 C 
HETATM   20  C   UNL     1     -42.953  56.756 -55.898  1.00  0.00     0.238 C 
BRANCH  18  21
HETATM   21  O   UNL     1     -42.210  59.086 -58.739  1.00  0.00    -0.385 OA
HETATM   22  H   UNL     1     -42.292  59.020 -59.710  1.00  0.00     0.211 HD
ENDBRANCH  18  21
BRANCH  18  23
HETATM   23  C   UNL     1     -44.429  58.300 -58.301  1.00  0.00    -0.006 A 
HETATM   24  C   UNL     1     -45.281  58.673 -57.263  1.00  0.00     0.126 A 
HETATM   25  N   UNL     1     -46.617  58.833 -57.384  1.00  0.00    -0.272 NA
HETATM   26  C   UNL     1     -47.148  58.711 -58.616  1.00  0.00     0.116 A 
HETATM   27  C   UNL     1     -46.394  58.413 -59.734  1.00  0.00     0.020 A 
HETATM   28  C   UNL     1     -45.024  58.211 -59.571  1.00  0.00     0.013 A 
ENDBRANCH  18  23
ENDBRANCH  13  14
ENDBRANCH  10  13
BRANCH   1  29
HETATM   29  C   UNL     1     -42.012  56.838 -50.887  1.00  0.00     0.236 C 
BRANCH  29  30
HETATM   30  C   UNL     1     -40.977  57.737 -50.204  1.00  0.00     0.039 C 
BRANCH  30  31
HETATM   31  C   UNL     1     -40.217  58.686 -51.153  1.00  0.00     0.040 C 
HETATM   32  C   UNL     1     -39.299  59.657 -50.406  1.00  0.00     0.017 C 
BRANCH  31  33
HETATM   33  C   UNL     1     -41.130  59.412 -52.077  1.00  0.00     0.057 A 
HETATM   34  O   UNL     1     -42.019  60.279 -51.516  1.00  0.00    -0.319 OA
HETATM   35  C   UNL     1     -42.720  60.847 -52.538  1.00  0.00     0.049 A 
HETATM   36  C   UNL     1     -43.740  61.854 -52.178  1.00  0.00     0.076 C 
HETATM   37  C   UNL     1     -42.292  60.341 -53.745  1.00  0.00     0.035 A 
HETATM   38  C   UNL     1     -41.266  59.413 -53.449  1.00  0.00     0.035 A 
ENDBRANCH  31  33
ENDBRANCH  30  31
ENDBRANCH  29  30
ENDBRANCH   1  29
TORSDOF 8
ENDMDL
MODEL 5
REMARK VINA RESULT:      -8.4      2.125      6.499
REMARK  8 active torsions:
REMARK  status: ('A' for Active; 'I' for Inactive)
REMARK    1  A    between atoms: C_4  and  C_5 
REMARK    2  A    between atoms: C_5  and  C_6 
REMARK    3  A    between atoms: C_6  and  C_7 
REMARK    4  A    between atoms: C_7  and  N_8 
REMARK    5  A    between atoms: C_17  and  C_18 
REMARK    6  A    between atoms: C_18  and  N_19 
REMARK    7  A    between atoms: C_23  and  O_24 
REMARK    8  A    between atoms: C_23  and  C_25 
ROOT
HETATM    1  N   UNL     1     -43.654  56.203 -58.197  1.00  0.00    -0.065 N 
HETATM    2  H   UNL     1     -44.318  55.429 -58.331  1.00  0.00     0.280 HD
HETATM    3  C   UNL     1     -44.503  57.445 -58.011  1.00  0.00     0.276 C 
HETATM    4  C   UNL     1     -43.734  58.666 -57.584  1.00  0.00     0.001 A 
HETATM    5  C   UNL     1     -42.804  59.234 -58.458  1.00  0.00     0.076 A 
HETATM    6  O   UNL     1     -42.588  58.687 -59.692  1.00  0.00    -0.349 OA
HETATM    7  C   UNL     1     -41.892  57.435 -59.592  1.00  0.00     0.203 C 
HETATM    8  C   UNL     1     -42.867  56.253 -59.509  1.00  0.00     0.261 C 
HETATM    9  C   UNL     1     -43.906  59.251 -56.317  1.00  0.00     0.020 A 
HETATM   10  C   UNL     1     -43.161  60.384 -55.930  1.00  0.00    -0.032 A 
HETATM   11  C   UNL     1     -42.270  60.955 -56.852  1.00  0.00     0.011 A 
HETATM   12  C   UNL     1     -42.104  60.386 -58.116  1.00  0.00     0.038 A 
ENDROOT
BRANCH  10  13
HETATM   13  C   UNL     1     -43.287  60.951 -54.536  1.00  0.00     0.273 C 
BRANCH  13  14
HETATM   14  N   UNL     1     -42.211  60.528 -53.553  1.00  0.00    -0.067 N 
HETATM   15  H   UNL     1     -41.445  61.213 -53.638  1.00  0.00     0.280 HD
HETATM   16  C   UNL     1     -42.681  60.564 -52.119  1.00  0.00     0.238 C 
HETATM   17  C   UNL     1     -41.572  60.094 -51.195  1.00  0.00     0.071 C 
HETATM   18  C   UNL     1     -41.128  58.654 -51.519  1.00  0.00     0.089 C 
HETATM   19  C   UNL     1     -40.615  58.682 -52.972  1.00  0.00     0.071 C 
HETATM   20  C   UNL     1     -41.657  59.179 -53.962  1.00  0.00     0.238 C 
BRANCH  18  21
HETATM   21  O   UNL     1     -39.992  58.386 -50.698  1.00  0.00    -0.385 OA
HETATM   22  H   UNL     1     -39.356  57.820 -51.175  1.00  0.00     0.211 HD
ENDBRANCH  18  21
BRANCH  18  23
HETATM   23  C   UNL     1     -42.203  57.621 -51.203  1.00  0.00    -0.006 A 
HETATM   24  C   UNL     1     -43.569  57.898 -51.243  1.00  0.00     0.126 A 
HETATM   25  N   UNL     1     -44.541  57.031 -50.886  1.00  0.00    -0.272 NA
HETATM   26  C   UNL     1     -44.166  55.780 -50.557  1.00  0.00     0.116 A 
HETATM   27  C   UNL     1     -42.849  55.366 -50.550  1.00  0.00     0.020 A 
HETATM   28  C   UNL     1     -41.864  56.296 -50.880  1.00  0.00     0.013 A 
ENDBRANCH  18  23
ENDBRANCH  13  14
ENDBRANCH  10  13
BRANCH   1  29
HETATM   29  C   UNL     1     -42.788  55.806 -57.007  1.00  0.00     0.236 C 
BRANCH  29  30
HETATM   30  C   UNL     1     -43.258  54.480 -56.401  1.00  0.00     0.039 C 
BRANCH  30  31
HETATM   31  C   UNL     1     -43.256  54.436 -54.860  1.00  0.00     0.040 C 
HETATM   32  C   UNL     1     -43.488  55.812 -54.230  1.00  0.00     0.017 C 
BRANCH  31  33
HETATM   33  C   UNL     1     -42.031  53.793 -54.314  1.00  0.00     0.057 A 
HETATM   34  O   UNL     1     -41.819  52.487 -54.639  1.00  0.00    -0.319 OA
HETATM   35  C   UNL     1     -40.637  52.121 -54.065  1.00  0.00     0.049 A 
HETATM   36  C   UNL     1     -40.174  50.737 -54.300  1.00  0.00     0.076 C 
HETATM   37  C   UNL     1     -40.101  53.180 -53.368  1.00  0.00     0.035 A 
HETATM   38  C   UNL     1     -41.000  54.260 -53.527  1.00  0.00     0.035 A 
ENDBRANCH  31  33
ENDBRANCH  30  31
ENDBRANCH  29  30
ENDBRANCH   1  29
TORSDOF 8
ENDMDL
MODEL 6
REMARK VINA RESULT:      -8.3      1.852      3.130
REMARK  8 active torsions:
REMARK  status: ('A' for Active; 'I' for Inactive)
REMARK    1  A    between atoms: C_4  and  C_5 
REMARK    2  A    between atoms: C_5  and  C_6 
REMARK    3  A    between atoms: C_6  and  C_7 
REMARK    4  A    between atoms: C_7  and  N_8 
REMARK    5  A    between atoms: C_17  and  C_18 
REMARK    6  A    between atoms: C_18  and  N_19 
REMARK    7  A    between atoms: C_23  and  O_24 
REMARK    8  A    between atoms: C_23  and  C_25 
ROOT
HETATM    1  N   UNL     1     -41.198  56.890 -51.701  1.00  0.00    -0.065 N 
HETATM    2  H   UNL     1     -40.684  56.050 -51.404  1.00  0.00     0.280 HD
HETATM    3  C   UNL     1     -41.193  56.863 -53.216  1.00  0.00     0.276 C 
HETATM    4  C   UNL     1     -42.079  57.894 -53.860  1.00  0.00     0.001 A 
HETATM    5  C   UNL     1     -41.773  59.249 -53.720  1.00  0.00     0.076 A 
HETATM    6  O   UNL     1     -40.679  59.643 -53.002  1.00  0.00    -0.349 OA
HETATM    7  C   UNL     1     -40.874  59.430 -51.596  1.00  0.00     0.203 C 
HETATM    8  C   UNL     1     -40.362  58.052 -51.157  1.00  0.00     0.261 C 
HETATM    9  C   UNL     1     -43.228  57.538 -54.590  1.00  0.00     0.020 A 
HETATM   10  C   UNL     1     -44.056  58.521 -55.169  1.00  0.00    -0.032 A 
HETATM   11  C   UNL     1     -43.691  59.871 -55.047  1.00  0.00     0.011 A 
HETATM   12  C   UNL     1     -42.545  60.229 -54.335  1.00  0.00     0.038 A 
ENDROOT
BRANCH  10  13
HETATM   13  C   UNL     1     -45.335  58.135 -55.873  1.00  0.00     0.273 C 
BRANCH  13  14
HETATM   14  N   UNL     1     -45.167  57.336 -57.152  1.00  0.00    -0.067 N 
HETATM   15  H   UNL     1     -45.535  56.392 -56.964  1.00  0.00     0.280 HD
HETATM   16  C   UNL     1     -45.964  57.900 -58.304  1.00  0.00     0.238 C 
HETATM   17  C   UNL     1     -45.721  57.080 -59.557  1.00  0.00     0.071 C 
HETATM   18  C   UNL     1     -44.233  57.075 -59.960  1.00  0.00     0.089 C 
HETATM   19  C   UNL     1     -43.473  56.449 -58.775  1.00  0.00     0.071 C 
HETATM   20  C   UNL     1     -43.692  57.191 -57.466  1.00  0.00     0.238 C 
BRANCH  18  21
HETATM   21  O   UNL     1     -44.110  56.157 -61.045  1.00  0.00    -0.385 OA
HETATM   22  H   UNL     1     -43.246  56.269 -61.487  1.00  0.00     0.211 HD
ENDBRANCH  18  21
BRANCH  18  23
HETATM   23  C   UNL     1     -43.745  58.441 -60.428  1.00  0.00    -0.006 A 
HETATM   24  C   UNL     1     -44.602  59.472 -60.811  1.00  0.00     0.126 A 
HETATM   25  N   UNL     1     -44.201  60.660 -61.310  1.00  0.00    -0.272 NA
HETATM   26  C   UNL     1     -42.876  60.900 -61.356  1.00  0.00     0.116 A 
HETATM   27  C   UNL     1     -41.932  59.983 -60.938  1.00  0.00     0.020 A 
HETATM   28  C   UNL     1     -42.374  58.748 -60.468  1.00  0.00     0.013 A 
ENDBRANCH  18  23
ENDBRANCH  13  14
ENDBRANCH  10  13
BRANCH   1  29
HETATM   29  C   UNL     1     -42.568  56.792 -51.040  1.00  0.00     0.236 C 
BRANCH  29  30
HETATM   30  C   UNL     1     -43.052  55.339 -50.986  1.00  0.00     0.039 C 
BRANCH  30  31
HETATM   31  C   UNL     1     -42.166  54.392 -50.152  1.00  0.00     0.040 C 
HETATM   32  C   UNL     1     -41.370  55.128 -49.071  1.00  0.00     0.017 C 
BRANCH  31  33
HETATM   33  C   UNL     1     -41.276  53.556 -51.001  1.00  0.00     0.057 A 
HETATM   34  O   UNL     1     -41.391  53.702 -52.352  1.00  0.00    -0.319 OA
HETATM   35  C   UNL     1     -40.469  52.874 -52.921  1.00  0.00     0.049 A 
HETATM   36  C   UNL     1     -40.383  52.876 -54.397  1.00  0.00     0.076 C 
HETATM   37  C   UNL     1     -39.776  52.194 -51.945  1.00  0.00     0.035 A 
HETATM   38  C   UNL     1     -40.296  52.633 -50.705  1.00  0.00     0.035 A 
ENDBRANCH  31  33
ENDBRANCH  30  31
ENDBRANCH  29  30
ENDBRANCH   1  29
TORSDOF 8
ENDMDL
MODEL 7
REMARK VINA RESULT:      -8.3      2.201      7.951
REMARK  8 active torsions:
REMARK  status: ('A' for Active; 'I' for Inactive)
REMARK    1  A    between atoms: C_4  and  C_5 
REMARK    2  A    between atoms: C_5  and  C_6 
REMARK    3  A    between atoms: C_6  and  C_7 
REMARK    4  A    between atoms: C_7  and  N_8 
REMARK    5  A    between atoms: C_17  and  C_18 
REMARK    6  A    between atoms: C_18  and  N_19 
REMARK    7  A    between atoms: C_23  and  O_24 
REMARK    8  A    between atoms: C_23  and  C_25 
ROOT
HETATM    1  N   UNL     1     -42.705  61.134 -57.319  1.00  0.00    -0.065 N 
HETATM    2  H   UNL     1     -42.044  61.890 -57.097  1.00  0.00     0.280 HD
HETATM    3  C   UNL     1     -41.869  60.014 -57.906  1.00  0.00     0.276 C 
HETATM    4  C   UNL     1     -42.612  58.721 -58.105  1.00  0.00     0.001 A 
HETATM    5  C   UNL     1     -43.648  58.658 -59.039  1.00  0.00     0.076 A 
HETATM    6  O   UNL     1     -43.991  59.761 -59.770  1.00  0.00    -0.349 OA
HETATM    7  C   UNL     1     -44.642  60.746 -58.952  1.00  0.00     0.203 C 
HETATM    8  C   UNL     1     -43.637  61.748 -58.368  1.00  0.00     0.261 C 
HETATM    9  C   UNL     1     -42.310  57.566 -57.361  1.00  0.00     0.020 A 
HETATM   10  C   UNL     1     -43.032  56.369 -57.549  1.00  0.00    -0.032 A 
HETATM   11  C   UNL     1     -44.035  56.331 -58.530  1.00  0.00     0.011 A 
HETATM   12  C   UNL     1     -44.331  57.471 -59.280  1.00  0.00     0.038 A 
ENDROOT
BRANCH  10  13
HETATM   13  C   UNL     1     -42.762  55.161 -56.683  1.00  0.00     0.273 C 
BRANCH  13  14
HETATM   14  N   UNL     1     -42.591  55.438 -55.201  1.00  0.00    -0.067 N 
HETATM   15  H   UNL     1     -43.104  56.308 -55.000  1.00  0.00     0.280 HD
HETATM   16  C   UNL     1     -43.189  54.359 -54.331  1.00  0.00     0.238 C 
HETATM   17  C   UNL     1     -42.949  54.677 -52.867  1.00  0.00     0.071 C 
HETATM   18  C   UNL     1     -41.446  54.778 -52.541  1.00  0.00     0.089 C 
HETATM   19  C   UNL     1     -40.896  55.920 -53.416  1.00  0.00     0.071 C 
HETATM   20  C   UNL     1     -41.129  55.698 -54.902  1.00  0.00     0.238 C 
BRANCH  18  21
HETATM   21  O   UNL     1     -41.354  55.229 -51.190  1.00  0.00    -0.385 OA
HETATM   22  H   UNL     1     -41.161  54.478 -50.596  1.00  0.00     0.211 HD
ENDBRANCH  18  21
BRANCH  18  23
HETATM   23  C   UNL     1     -40.728  53.438 -52.651  1.00  0.00    -0.006 A 
HETATM   24  C   UNL     1     -40.363  52.860 -53.866  1.00  0.00     0.126 A 
HETATM   25  N   UNL     1     -39.805  51.638 -54.000  1.00  0.00    -0.272 NA
HETATM   26  C   UNL     1     -39.493  50.971 -52.872  1.00  0.00     0.116 A 
HETATM   27  C   UNL     1     -39.741  51.472 -51.609  1.00  0.00     0.020 A 
HETATM   28  C   UNL     1     -40.358  52.717 -51.503  1.00  0.00     0.013 A 
ENDBRANCH  18  23
ENDBRANCH  13  14
ENDBRANCH  10  13
BRANCH   1  29
HETATM   29  C   UNL     1     -43.421  60.813 -56.012  1.00  0.00     0.236 C 
BRANCH  29  30
HETATM   30  C   UNL     1     -42.426  60.684 -54.855  1.00  0.00     0.039 C 
BRANCH  30  31
HETATM   31  C   UNL     1     -42.456  59.327 -54.123  1.00  0.00     0.040 C 
HETATM   32  C   UNL     1     -43.837  58.665 -54.165  1.00  0.00     0.017 C 
BRANCH  31  33
HETATM   33  C   UNL     1     -41.947  59.425 -52.729  1.00  0.00     0.057 A 
HETATM   34  O   UNL     1     -40.600  59.316 -52.552  1.00  0.00    -0.319 OA
HETATM   35  C   UNL     1     -40.361  59.466 -51.217  1.00  0.00     0.049 A 
HETATM   36  C   UNL     1     -38.952  59.412 -50.775  1.00  0.00     0.076 C 
HETATM   37  C   UNL     1     -41.546  59.659 -50.542  1.00  0.00     0.035 A 
HETATM   38  C   UNL     1     -42.571  59.632 -51.517  1.00  0.00     0.035 A 
ENDBRANCH  31  33
ENDBRANCH  30  31
ENDBRANCH  29  30
ENDBRANCH   1  29
TORSDOF 8
ENDMDL
MODEL 8
REMARK VINA RESULT:      -8.2      2.431      5.454
REMARK  8 active torsions:
REMARK  status: ('A' for Active; 'I' for Inactive)
REMARK    1  A    between atoms: C_4  and  C_5 
REMARK    2  A    between atoms: C_5  and  C_6 
REMARK    3  A    between atoms: C_6  and  C_7 
REMARK    4  A    between atoms: C_7  and  N_8 
REMARK    5  A    between atoms: C_17  and  C_18 
REMARK    6  A    between atoms: C_18  and  N_19 
REMARK    7  A    between atoms: C_23  and  O_24 
REMARK    8  A    between atoms: C_23  and  C_25 
ROOT
HETATM    1  N   UNL     1     -42.311  54.356 -50.468  1.00  0.00    -0.065 N 
HETATM    2  H   UNL     1     -42.977  54.262 -49.690  1.00  0.00     0.280 HD
HETATM    3  C   UNL     1     -42.921  53.594 -51.628  1.00  0.00     0.276 C 
HETATM    4  C   UNL     1     -42.209  53.782 -52.940  1.00  0.00     0.001 A 
HETATM    5  C   UNL     1     -40.909  53.297 -53.093  1.00  0.00     0.076 A 
HETATM    6  O   UNL     1     -40.281  52.658 -52.062  1.00  0.00    -0.349 OA
HETATM    7  C   UNL     1     -39.931  53.576 -51.014  1.00  0.00     0.203 C 
HETATM    8  C   UNL     1     -41.038  53.674 -49.957  1.00  0.00     0.261 C 
HETATM    9  C   UNL     1     -42.807  54.453 -54.022  1.00  0.00     0.020 A 
HETATM   10  C   UNL     1     -42.114  54.635 -55.237  1.00  0.00    -0.032 A 
HETATM   11  C   UNL     1     -40.827  54.093 -55.370  1.00  0.00     0.011 A 
HETATM   12  C   UNL     1     -40.234  53.415 -54.303  1.00  0.00     0.038 A 
ENDROOT
BRANCH  10  13
HETATM   13  C   UNL     1     -42.729  55.434 -56.362  1.00  0.00     0.273 C 
BRANCH  13  14
HETATM   14  N   UNL     1     -43.031  56.888 -56.049  1.00  0.00    -0.067 N 
HETATM   15  H   UNL     1     -43.176  56.949 -55.030  1.00  0.00     0.280 HD
HETATM   16  C   UNL     1     -41.887  57.812 -56.391  1.00  0.00     0.238 C 
HETATM   17  C   UNL     1     -42.270  59.249 -56.091  1.00  0.00     0.071 C 
HETATM   18  C   UNL     1     -43.505  59.694 -56.899  1.00  0.00     0.089 C 
HETATM   19  C   UNL     1     -44.651  58.754 -56.480  1.00  0.00     0.071 C 
HETATM   20  C   UNL     1     -44.334  57.286 -56.714  1.00  0.00     0.238 C 
BRANCH  18  21
HETATM   21  O   UNL     1     -43.856  60.992 -56.421  1.00  0.00    -0.385 OA
HETATM   22  H   UNL     1     -44.440  60.919 -55.642  1.00  0.00     0.211 HD
ENDBRANCH  18  21
BRANCH  18  23
HETATM   23  C   UNL     1     -43.225  59.792 -58.395  1.00  0.00    -0.006 A 
HETATM   24  C   UNL     1     -42.019  60.254 -58.921  1.00  0.00     0.126 A 
HETATM   25  N   UNL     1     -41.773  60.433 -60.236  1.00  0.00    -0.272 NA
HETATM   26  C   UNL     1     -42.728  60.051 -61.105  1.00  0.00     0.116 A 
HETATM   27  C   UNL     1     -43.936  59.514 -60.706  1.00  0.00     0.020 A 
HETATM   28  C   UNL     1     -44.180  59.382 -59.340  1.00  0.00     0.013 A 
ENDBRANCH  18  23
ENDBRANCH  13  14
ENDBRANCH  10  13
BRANCH   1  29
HETATM   29  C   UNL     1     -42.130  55.854 -50.680  1.00  0.00     0.236 C 
BRANCH  29  30
HETATM   30  C   UNL     1     -43.472  56.537 -50.966  1.00  0.00     0.039 C 
BRANCH  30  31
HETATM   31  C   UNL     1     -43.363  57.940 -51.597  1.00  0.00     0.040 C 
HETATM   32  C   UNL     1     -44.187  58.075 -52.881  1.00  0.00     0.017 C 
BRANCH  31  33
HETATM   33  C   UNL     1     -41.951  58.353 -51.816  1.00  0.00     0.057 A 
HETATM   34  O   UNL     1     -41.317  58.969 -50.778  1.00  0.00    -0.319 OA
HETATM   35  C   UNL     1     -40.042  59.226 -51.188  1.00  0.00     0.049 A 
HETATM   36  C   UNL     1     -39.140  59.874 -50.213  1.00  0.00     0.076 C 
HETATM   37  C   UNL     1     -39.862  58.787 -52.481  1.00  0.00     0.035 A 
HETATM   38  C   UNL     1     -41.094  58.225 -52.888  1.00  0.00     0.035 A 
ENDBRANCH  31  33
ENDBRANCH  30  31
ENDBRANCH  29  30
ENDBRANCH   1  29
TORSDOF 8
ENDMDL
MODEL 9
REMARK VINA RESULT:      -8.1      2.098      6.070
REMARK  8 active torsions:
REMARK  status: ('A' for Active; 'I' for Inactive)
REMARK    1  A    between atoms: C_4  and  C_5 
REMARK    2  A    between atoms: C_5  and  C_6 
REMARK    3  A    between atoms: C_6  and  C_7 
REMARK    4  A    between atoms: C_7  and  N_8 
REMARK    5  A    between atoms: C_17  and  C_18 
REMARK    6  A    between atoms: C_18  and  N_19 
REMARK    7  A    between atoms: C_23  and  O_24 
REMARK    8  A    between atoms: C_23  and  C_25 
ROOT
HETATM    1  N   UNL     1     -42.990  55.245 -50.400  1.00  0.00    -0.065 N 
HETATM    2  H   UNL     1     -43.693  55.265 -49.649  1.00  0.00     0.280 HD
HETATM    3  C   UNL     1     -43.413  54.124 -51.329  1.00  0.00     0.276 C 
HETATM    4  C   UNL     1     -42.638  54.058 -52.617  1.00  0.00     0.001 A 
HETATM    5  C   UNL     1     -41.279  53.741 -52.587  1.00  0.00     0.076 A 
HETATM    6  O   UNL     1     -40.650  53.493 -51.400  1.00  0.00    -0.349 OA
HETATM    7  C   UNL     1     -40.497  54.696 -50.630  1.00  0.00     0.203 C 
HETATM    8  C   UNL     1     -41.681  54.911 -49.678  1.00  0.00     0.261 C 
HETATM    9  C   UNL     1     -43.237  54.327 -53.862  1.00  0.00     0.020 A 
HETATM   10  C   UNL     1     -42.488  54.279 -55.055  1.00  0.00    -0.032 A 
HETATM   11  C   UNL     1     -41.135  53.910 -54.991  1.00  0.00     0.011 A 
HETATM   12  C   UNL     1     -40.539  53.630 -53.760  1.00  0.00     0.038 A 
ENDROOT
BRANCH  10  13
HETATM   13  C   UNL     1     -43.117  54.656 -56.376  1.00  0.00     0.273 C 
BRANCH  13  14
HETATM   14  N   UNL     1     -42.543  55.888 -57.051  1.00  0.00    -0.067 N 
HETATM   15  H   UNL     1     -41.518  55.824 -56.965  1.00  0.00     0.280 HD
HETATM   16  C   UNL     1     -42.861  55.950 -58.525  1.00  0.00     0.238 C 
HETATM   17  C   UNL     1     -42.294  57.222 -59.127  1.00  0.00     0.071 C 
HETATM   18  C   UNL     1     -42.874  58.483 -58.457  1.00  0.00     0.089 C 
HETATM   19  C   UNL     1     -42.482  58.394 -56.970  1.00  0.00     0.071 C 
HETATM   20  C   UNL     1     -42.981  57.126 -56.296  1.00  0.00     0.238 C 
BRANCH  18  21
HETATM   21  O   UNL     1     -42.158  59.594 -58.995  1.00  0.00    -0.385 OA
HETATM   22  H   UNL     1     -42.716  60.080 -59.631  1.00  0.00     0.211 HD
ENDBRANCH  18  21
BRANCH  18  23
HETATM   23  C   UNL     1     -44.357  58.678 -58.753  1.00  0.00    -0.006 A 
HETATM   24  C   UNL     1     -45.278  59.114 -57.802  1.00  0.00     0.126 A 
HETATM   25  N   UNL     1     -46.608  59.214 -58.009  1.00  0.00    -0.272 NA
HETATM   26  C   UNL     1     -47.064  58.964 -59.252  1.00  0.00     0.116 A 
HETATM   27  C   UNL     1     -46.239  58.593 -60.295  1.00  0.00     0.020 A 
HETATM   28  C   UNL     1     -44.875  58.455 -60.040  1.00  0.00     0.013 A 
ENDBRANCH  18  23
ENDBRANCH  13  14
ENDBRANCH  10  13
BRANCH   1  29
HETATM   29  C   UNL     1     -42.988  56.644 -51.004  1.00  0.00     0.236 C 
BRANCH  29  30
HETATM   30  C   UNL     1     -44.411  57.101 -51.341  1.00  0.00     0.039 C 
BRANCH  30  31
HETATM   31  C   UNL     1     -44.493  58.334 -52.264  1.00  0.00     0.040 C 
HETATM   32  C   UNL     1     -43.152  58.665 -52.926  1.00  0.00     0.017 C 
BRANCH  31  33
HETATM   33  C   UNL     1     -45.060  59.522 -51.572  1.00  0.00     0.057 A 
HETATM   34  O   UNL     1     -44.304  60.085 -50.587  1.00  0.00    -0.319 OA
HETATM   35  C   UNL     1     -44.997  61.164 -50.122  1.00  0.00     0.049 A 
HETATM   36  C   UNL     1     -44.361  61.963 -49.054  1.00  0.00     0.076 C 
HETATM   37  C   UNL     1     -46.192  61.286 -50.795  1.00  0.00     0.035 A 
HETATM   38  C   UNL     1     -46.234  60.226 -51.731  1.00  0.00     0.035 A 
ENDBRANCH  31  33
ENDBRANCH  30  31
ENDBRANCH  29  30
ENDBRANCH   1  29
TORSDOF 8
ENDMDL
MODEL 10
REMARK VINA RESULT:      -8.0      2.509      5.463
REMARK  8 active torsions:
REMARK  status: ('A' for Active; 'I' for Inactive)
REMARK    1  A    between atoms: C_4  and  C_5 
REMARK    2  A    between atoms: C_5  and  C_6 
REMARK    3  A    between atoms: C_6  and  C_7 
REMARK    4  A    between atoms: C_7  and  N_8 
REMARK    5  A    between atoms: C_17  and  C_18 
REMARK    6  A    between atoms: C_18  and  N_19 
REMARK    7  A    between atoms: C_23  and  O_24 
REMARK    8  A    between atoms: C_23  and  C_25 
ROOT
HETATM    1  N   UNL     1     -42.763  55.961 -51.592  1.00  0.00    -0.065 N 
HETATM    2  H   UNL     1     -43.103  56.114 -50.633  1.00  0.00     0.280 HD
HETATM    3  C   UNL     1     -43.733  56.696 -52.495  1.00  0.00     0.276 C 
HETATM    4  C   UNL     1     -43.300  56.783 -53.934  1.00  0.00     0.001 A 
HETATM    5  C   UNL     1     -43.217  55.617 -54.699  1.00  0.00     0.076 A 
HETATM    6  O   UNL     1     -43.522  54.404 -54.150  1.00  0.00    -0.349 OA
HETATM    7  C   UNL     1     -42.518  53.989 -53.210  1.00  0.00     0.203 C 
HETATM    8  C   UNL     1     -42.856  54.445 -51.785  1.00  0.00     0.261 C 
HETATM    9  C   UNL     1     -42.955  58.006 -54.536  1.00  0.00     0.020 A 
HETATM   10  C   UNL     1     -42.533  58.062 -55.880  1.00  0.00    -0.032 A 
HETATM   11  C   UNL     1     -42.506  56.877 -56.631  1.00  0.00     0.011 A 
HETATM   12  C   UNL     1     -42.860  55.661 -56.042  1.00  0.00     0.038 A 
ENDROOT
BRANCH  10  13
HETATM   13  C   UNL     1     -42.078  59.366 -56.492  1.00  0.00     0.273 C 
BRANCH  13  14
HETATM   14  N   UNL     1     -42.714  59.727 -57.821  1.00  0.00    -0.067 N 
HETATM   15  H   UNL     1     -42.525  60.728 -57.979  1.00  0.00     0.280 HD
HETATM   16  C   UNL     1     -42.113  58.973 -58.983  1.00  0.00     0.238 C 
HETATM   17  C   UNL     1     -42.819  59.352 -60.271  1.00  0.00     0.071 C 
HETATM   18  C   UNL     1     -44.325  59.028 -60.217  1.00  0.00     0.089 C 
HETATM   19  C   UNL     1     -44.897  59.856 -59.050  1.00  0.00     0.071 C 
HETATM   20  C   UNL     1     -44.217  59.564 -57.722  1.00  0.00     0.238 C 
BRANCH  18  21
HETATM   21  O   UNL     1     -44.898  59.565 -61.408  1.00  0.00    -0.385 OA
HETATM   22  H   UNL     1     -44.510  59.134 -62.194  1.00  0.00     0.211 HD
ENDBRANCH  18  21
BRANCH  18  23
HETATM   23  C   UNL     1     -44.605  57.530 -60.182  1.00  0.00    -0.006 A 
HETATM   24  C   UNL     1     -45.888  56.988 -60.233  1.00  0.00     0.126 A 
HETATM   25  N   UNL     1     -46.173  55.673 -60.118  1.00  0.00    -0.272 NA
HETATM   26  C   UNL     1     -45.136  54.817 -60.041  1.00  0.00     0.116 A 
HETATM   27  C   UNL     1     -43.818  55.230 -60.053  1.00  0.00     0.020 A 
HETATM   28  C   UNL     1     -43.555  56.597 -60.128  1.00  0.00     0.013 A 
ENDBRANCH  18  23
ENDBRANCH  13  14
ENDBRANCH  10  13
BRANCH   1  29
HETATM   29  C   UNL     1     -41.326  56.468 -51.607  1.00  0.00     0.236 C 
BRANCH  29  30
HETATM   30  C   UNL     1     -41.148  57.649 -50.648  1.00  0.00     0.039 C 
BRANCH  30  31
HETATM   31  C   UNL     1     -40.646  58.949 -51.308  1.00  0.00     0.040 C 
HETATM   32  C   UNL     1     -39.494  59.598 -50.533  1.00  0.00     0.017 C 
BRANCH  31  33
HETATM   33  C   UNL     1     -41.745  59.922 -51.551  1.00  0.00     0.057 A 
HETATM   34  O   UNL     1     -41.797  60.501 -52.784  1.00  0.00    -0.319 OA
HETATM   35  C   UNL     1     -42.888  61.319 -52.792  1.00  0.00     0.049 A 
HETATM   36  C   UNL     1     -43.175  62.048 -54.046  1.00  0.00     0.076 C 
HETATM   37  C   UNL     1     -43.525  61.273 -51.572  1.00  0.00     0.035 A 
HETATM   38  C   UNL     1     -42.787  60.372 -50.769  1.00  0.00     0.035 A 
ENDBRANCH  31  33
ENDBRANCH  30  31
ENDBRANCH  29  30
ENDBRANCH   1  29
TORSDOF 8
ENDMDL
