MODEL 1
REMARK VINA RESULT:      -7.5      0.000      0.000
REMARK  6 active torsions:
REMARK  status: ('A' for Active; 'I' for Inactive)
REMARK    1  A    between atoms: C_2  and  C_3 
REMARK    2  A    between atoms: C_3  and  O_4 
REMARK    3  A    between atoms: O_4  and  C_5 
REMARK    4  A    between atoms: C_8  and  C_9 
REMARK    5  A    between atoms: C_9  and  N_10 
REMARK       I    between atoms: N_10  and  C_11 
REMARK       I    between atoms: C_11  and  N_12 
REMARK    6  A    between atoms: N_12  and  C_13 
ROOT
HETATM    1  N   UNL     1     -44.225  58.159 -51.041  1.00  0.00    -0.339 N 
HETATM    2  C   UNL     1     -45.107  59.076 -50.588  1.00  0.00     0.316 C 
HETATM    3  N   UNL     1     -44.733  60.371 -50.576  1.00  0.00    -0.338 N 
HETATM    4  O   UNL     1     -46.232  58.787 -50.187  1.00  0.00    -0.247 OA
HETATM    5  H   UNL     1     -43.258  58.430 -51.089  1.00  0.00     0.164 HD
HETATM    6  H   UNL     1     -45.503  60.941 -50.247  1.00  0.00     0.164 HD
ENDROOT
BRANCH   1   7
HETATM    7  C   UNL     1     -44.492  56.744 -50.942  1.00  0.00     0.164 C 
BRANCH   7   8
HETATM    8  C   UNL     1     -43.391  55.901 -51.521  1.00  0.00    -0.021 A 
HETATM    9  C   UNL     1     -42.931  54.769 -50.853  1.00  0.00     0.128 A 
HETATM   10  N   UNL     1     -41.914  53.988 -51.287  1.00  0.00    -0.235 NA
HETATM   11  C   UNL     1     -41.327  54.335 -52.457  1.00  0.00     0.186 A 
HETATM   12  C   UNL     1     -41.736  55.429 -53.218  1.00  0.00     0.087 A 
HETATM   13  C   UNL     1     -42.784  56.218 -52.741  1.00  0.00     0.038 A 
HETATM   14 CL   UNL     1     -40.987  55.851 -54.712  1.00  0.00    -0.080 Cl
BRANCH  11  15
HETATM   15  O   UNL     1     -40.264  53.580 -52.916  1.00  0.00    -0.333 OA
BRANCH  15  16
HETATM   16  C   UNL     1     -40.652  52.509 -53.781  1.00  0.00     0.181 C 
BRANCH  16  17
HETATM   17  C   UNL     1     -39.688  51.329 -53.576  1.00  0.00     0.002 C 
HETATM   18  C   UNL     1     -40.206  50.086 -54.298  1.00  0.00     0.011 C 
HETATM   19  C   UNL     1     -39.483  51.031 -52.089  1.00  0.00     0.011 C 
ENDBRANCH  16  17
ENDBRANCH  15  16
ENDBRANCH  11  15
ENDBRANCH   7   8
ENDBRANCH   1   7
BRANCH   3  20
HETATM   20  C   UNL     1     -43.522  61.110 -50.961  1.00  0.00     0.090 C 
HETATM   21  C   UNL     1     -42.189  60.462 -50.492  1.00  0.00     0.067 C 
HETATM   22  C   UNL     1     -41.451  59.813 -51.606  1.00  0.00    -0.013 A 
HETATM   23  C   UNL     1     -41.826  59.898 -52.925  1.00  0.00     0.035 A 
HETATM   24  C   UNL     1     -40.287  59.025 -51.621  1.00  0.00     0.148 A 
HETATM   25  N   UNL     1     -40.901  59.197 -53.640  1.00  0.00    -0.282 N 
HETATM   26  C   UNL     1     -43.018  60.587 -53.470  1.00  0.00     0.061 C 
HETATM   27  H   UNL     1     -40.848  59.050 -54.644  1.00  0.00     0.189 HD
HETATM   28  N   UNL     1     -39.963  58.633 -52.858  1.00  0.00    -0.187 NA
HETATM   29  C   UNL     1     -43.540  61.594 -52.434  1.00  0.00     0.031 C 
ENDBRANCH   3  20
TORSDOF 6
ENDMDL
MODEL 2
REMARK VINA RESULT:      -7.5      4.131      7.160
REMARK  6 active torsions:
REMARK  status: ('A' for Active; 'I' for Inactive)
REMARK    1  A    between atoms: C_2  and  C_3 
REMARK    2  A    between atoms: C_3  and  O_4 
REMARK    3  A    between atoms: O_4  and  C_5 
REMARK    4  A    between atoms: C_8  and  C_9 
REMARK    5  A    between atoms: C_9  and  N_10 
REMARK       I    between atoms: N_10  and  C_11 
REMARK       I    between atoms: C_11  and  N_12 
REMARK    6  A    between atoms: N_12  and  C_13 
ROOT
HETATM    1  N   UNL     1     -42.710  55.582 -52.242  1.00  0.00    -0.339 N 
HETATM    2  C   UNL     1     -42.911  54.541 -51.405  1.00  0.00     0.316 C 
HETATM    3  N   UNL     1     -41.919  53.639 -51.259  1.00  0.00    -0.338 N 
HETATM    4  O   UNL     1     -43.951  54.377 -50.773  1.00  0.00    -0.247 OA
HETATM    5  H   UNL     1     -41.967  55.501 -52.913  1.00  0.00     0.164 HD
HETATM    6  H   UNL     1     -42.197  52.941 -50.579  1.00  0.00     0.164 HD
ENDROOT
BRANCH   1   7
HETATM    7  C   UNL     1     -43.774  56.502 -52.569  1.00  0.00     0.164 C 
BRANCH   7   8
HETATM    8  C   UNL     1     -43.832  56.829 -54.034  1.00  0.00    -0.021 A 
HETATM    9  C   UNL     1     -43.155  56.048 -54.968  1.00  0.00     0.128 A 
HETATM   10  N   UNL     1     -43.122  56.307 -56.297  1.00  0.00    -0.235 NA
HETATM   11  C   UNL     1     -43.810  57.389 -56.731  1.00  0.00     0.186 A 
HETATM   12  C   UNL     1     -44.547  58.213 -55.882  1.00  0.00     0.087 A 
HETATM   13  C   UNL     1     -44.557  57.924 -54.517  1.00  0.00     0.038 A 
HETATM   14 CL   UNL     1     -45.428  59.581 -56.452  1.00  0.00    -0.080 Cl
BRANCH  11  15
HETATM   15  O   UNL     1     -43.774  57.703 -58.077  1.00  0.00    -0.333 OA
BRANCH  15  16
HETATM   16  C   UNL     1     -44.754  57.011 -58.854  1.00  0.00     0.181 C 
BRANCH  16  17
HETATM   17  C   UNL     1     -44.038  56.140 -59.899  1.00  0.00     0.002 C 
HETATM   18  C   UNL     1     -44.293  54.659 -59.624  1.00  0.00     0.011 C 
HETATM   19  C   UNL     1     -42.534  56.423 -59.920  1.00  0.00     0.011 C 
ENDBRANCH  16  17
ENDBRANCH  15  16
ENDBRANCH  11  15
ENDBRANCH   7   8
ENDBRANCH   1   7
BRANCH   3  20
HETATM   20  C   UNL     1     -40.566  53.478 -51.810  1.00  0.00     0.090 C 
HETATM   21  C   UNL     1     -39.853  52.157 -51.406  1.00  0.00     0.067 C 
HETATM   22  C   UNL     1     -39.801  51.177 -52.521  1.00  0.00    -0.013 A 
HETATM   23  C   UNL     1     -40.206  51.454 -53.805  1.00  0.00     0.035 A 
HETATM   24  C   UNL     1     -39.365  49.841 -52.571  1.00  0.00     0.148 A 
HETATM   25  N   UNL     1     -39.989  50.325 -54.536  1.00  0.00    -0.282 N 
HETATM   26  C   UNL     1     -40.792  52.721 -54.300  1.00  0.00     0.061 C 
HETATM   27  H   UNL     1     -40.159  50.161 -55.523  1.00  0.00     0.189 HD
HETATM   28  N   UNL     1     -39.498  49.316 -53.793  1.00  0.00    -0.187 NA
HETATM   29  C   UNL     1     -40.467  53.851 -53.312  1.00  0.00     0.031 C 
ENDBRANCH   3  20
TORSDOF 6
ENDMDL
MODEL 3
REMARK VINA RESULT:      -7.4      3.738      4.786
REMARK  6 active torsions:
REMARK  status: ('A' for Active; 'I' for Inactive)
REMARK    1  A    between atoms: C_2  and  C_3 
REMARK    2  A    between atoms: C_3  and  O_4 
REMARK    3  A    between atoms: O_4  and  C_5 
REMARK    4  A    between atoms: C_8  and  C_9 
REMARK    5  A    between atoms: C_9  and  N_10 
REMARK       I    between atoms: N_10  and  C_11 
REMARK       I    between atoms: C_11  and  N_12 
REMARK    6  A    between atoms: N_12  and  C_13 
ROOT
HETATM    1  N   UNL     1     -42.557  58.377 -53.389  1.00  0.00    -0.339 N 
HETATM    2  C   UNL     1     -41.651  59.084 -54.098  1.00  0.00     0.316 C 
HETATM    3  N   UNL     1     -41.925  59.357 -55.391  1.00  0.00    -0.338 N 
HETATM    4  O   UNL     1     -40.594  59.491 -53.624  1.00  0.00    -0.247 OA
HETATM    5  H   UNL     1     -43.247  57.858 -53.904  1.00  0.00     0.164 HD
HETATM    6  H   UNL     1     -41.178  59.919 -55.781  1.00  0.00     0.164 HD
ENDROOT
BRANCH   1   7
HETATM    7  C   UNL     1     -42.271  57.915 -52.051  1.00  0.00     0.164 C 
BRANCH   7   8
HETATM    8  C   UNL     1     -41.717  56.519 -52.023  1.00  0.00    -0.021 A 
HETATM    9  C   UNL     1     -41.749  55.714 -53.158  1.00  0.00     0.128 A 
HETATM   10  N   UNL     1     -41.313  54.433 -53.198  1.00  0.00    -0.235 NA
HETATM   11  C   UNL     1     -40.800  53.922 -52.053  1.00  0.00     0.186 A 
HETATM   12  C   UNL     1     -40.692  54.656 -50.874  1.00  0.00     0.087 A 
HETATM   13  C   UNL     1     -41.156  55.972 -50.864  1.00  0.00     0.038 A 
HETATM   14 CL   UNL     1     -40.026  53.995 -49.428  1.00  0.00    -0.080 Cl
BRANCH  11  15
HETATM   15  O   UNL     1     -40.373  52.607 -52.046  1.00  0.00    -0.333 OA
BRANCH  15  16
HETATM   16  C   UNL     1     -40.188  52.056 -53.352  1.00  0.00     0.181 C 
BRANCH  16  17
HETATM   17  C   UNL     1     -39.371  50.759 -53.235  1.00  0.00     0.002 C 
HETATM   18  C   UNL     1     -39.690  49.821 -54.399  1.00  0.00     0.011 C 
HETATM   19  C   UNL     1     -39.635  50.056 -51.902  1.00  0.00     0.011 C 
ENDBRANCH  16  17
ENDBRANCH  15  16
ENDBRANCH  11  15
ENDBRANCH   7   8
ENDBRANCH   1   7
BRANCH   3  20
HETATM   20  C   UNL     1     -43.039  59.068 -56.304  1.00  0.00     0.090 C 
HETATM   21  C   UNL     1     -42.759  59.400 -57.797  1.00  0.00     0.067 C 
HETATM   22  C   UNL     1     -42.528  58.182 -58.615  1.00  0.00    -0.013 A 
HETATM   23  C   UNL     1     -42.687  56.901 -58.143  1.00  0.00     0.035 A 
HETATM   24  C   UNL     1     -42.135  58.018 -59.955  1.00  0.00     0.148 A 
HETATM   25  N   UNL     1     -42.406  56.065 -59.182  1.00  0.00    -0.282 N 
HETATM   26  C   UNL     1     -43.060  56.498 -56.768  1.00  0.00     0.061 C 
HETATM   27  H   UNL     1     -42.429  55.050 -59.208  1.00  0.00     0.189 HD
HETATM   28  N   UNL     1     -42.041  56.728 -60.294  1.00  0.00    -0.187 NA
HETATM   29  C   UNL     1     -43.704  57.691 -56.046  1.00  0.00     0.031 C 
ENDBRANCH   3  20
TORSDOF 6
ENDMDL
MODEL 4
REMARK VINA RESULT:      -7.2     16.995     19.808
REMARK  6 active torsions:
REMARK  status: ('A' for Active; 'I' for Inactive)
REMARK    1  A    between atoms: C_2  and  C_3 
REMARK    2  A    between atoms: C_3  and  O_4 
REMARK    3  A    between atoms: O_4  and  C_5 
REMARK    4  A    between atoms: C_8  and  C_9 
REMARK    5  A    between atoms: C_9  and  N_10 
REMARK       I    between atoms: N_10  and  C_11 
REMARK       I    between atoms: C_11  and  N_12 
REMARK    6  A    between atoms: N_12  and  C_13 
ROOT
HETATM    1  N   UNL     1     -37.281  41.338 -58.492  1.00  0.00    -0.339 N 
HETATM    2  C   UNL     1     -37.258  41.710 -59.790  1.00  0.00     0.316 C 
HETATM    3  N   UNL     1     -37.276  40.744 -60.731  1.00  0.00    -0.338 N 
HETATM    4  O   UNL     1     -37.222  42.882 -60.154  1.00  0.00    -0.247 OA
HETATM    5  H   UNL     1     -37.037  40.387 -58.278  1.00  0.00     0.164 HD
HETATM    6  H   UNL     1     -37.291  41.169 -61.650  1.00  0.00     0.164 HD
ENDROOT
BRANCH   1   7
HETATM    7  C   UNL     1     -37.110  42.301 -57.430  1.00  0.00     0.164 C 
BRANCH   7   8
HETATM    8  C   UNL     1     -36.196  41.813 -56.342  1.00  0.00    -0.021 A 
HETATM    9  C   UNL     1     -36.603  41.821 -55.011  1.00  0.00     0.128 A 
HETATM   10  N   UNL     1     -35.821  41.442 -53.972  1.00  0.00    -0.235 NA
HETATM   11  C   UNL     1     -34.570  41.015 -54.267  1.00  0.00     0.186 A 
HETATM   12  C   UNL     1     -34.080  40.938 -55.569  1.00  0.00     0.087 A 
HETATM   13  C   UNL     1     -34.909  41.341 -56.618  1.00  0.00     0.038 A 
HETATM   14 CL   UNL     1     -32.489  40.381 -55.929  1.00  0.00    -0.080 Cl
BRANCH  11  15
HETATM   15  O   UNL     1     -33.732  40.650 -53.231  1.00  0.00    -0.333 OA
BRANCH  15  16
HETATM   16  C   UNL     1     -34.340  40.742 -51.940  1.00  0.00     0.181 C 
BRANCH  16  17
HETATM   17  C   UNL     1     -33.251  40.604 -50.864  1.00  0.00     0.002 C 
HETATM   18  C   UNL     1     -31.894  40.329 -51.511  1.00  0.00     0.011 C 
HETATM   19  C   UNL     1     -33.595  39.495 -49.866  1.00  0.00     0.011 C 
ENDBRANCH  16  17
ENDBRANCH  15  16
ENDBRANCH  11  15
ENDBRANCH   7   8
ENDBRANCH   1   7
BRANCH   3  20
HETATM   20  C   UNL     1     -37.322  39.275 -60.717  1.00  0.00     0.090 C 
HETATM   21  C   UNL     1     -38.739  38.671 -60.506  1.00  0.00     0.067 C 
HETATM   22  C   UNL     1     -39.305  38.102 -61.756  1.00  0.00    -0.013 A 
HETATM   23  C   UNL     1     -38.603  37.989 -62.932  1.00  0.00     0.035 A 
HETATM   24  C   UNL     1     -40.573  37.572 -62.050  1.00  0.00     0.148 A 
HETATM   25  N   UNL     1     -39.444  37.409 -63.834  1.00  0.00    -0.282 N 
HETATM   26  C   UNL     1     -37.215  38.437 -63.188  1.00  0.00     0.061 C 
HETATM   27  H   UNL     1     -39.268  37.161 -64.803  1.00  0.00     0.189 HD
HETATM   28  N   UNL     1     -40.664  37.168 -63.322  1.00  0.00    -0.187 NA
HETATM   29  C   UNL     1     -36.487  38.623 -61.848  1.00  0.00     0.031 C 
ENDBRANCH   3  20
TORSDOF 6
ENDMDL
MODEL 5
REMARK VINA RESULT:      -7.1      4.786      5.780
REMARK  6 active torsions:
REMARK  status: ('A' for Active; 'I' for Inactive)
REMARK    1  A    between atoms: C_2  and  C_3 
REMARK    2  A    between atoms: C_3  and  O_4 
REMARK    3  A    between atoms: O_4  and  C_5 
REMARK    4  A    between atoms: C_8  and  C_9 
REMARK    5  A    between atoms: C_9  and  N_10 
REMARK       I    between atoms: N_10  and  C_11 
REMARK       I    between atoms: C_11  and  N_12 
REMARK    6  A    between atoms: N_12  and  C_13 
ROOT
HETATM    1  N   UNL     1     -43.090  57.747 -54.883  1.00  0.00    -0.339 N 
HETATM    2  C   UNL     1     -44.370  57.329 -54.992  1.00  0.00     0.316 C 
HETATM    3  N   UNL     1     -44.994  57.483 -56.177  1.00  0.00    -0.338 N 
HETATM    4  O   UNL     1     -44.991  56.815 -54.065  1.00  0.00    -0.247 OA
HETATM    5  H   UNL     1     -42.751  58.388 -55.579  1.00  0.00     0.164 HD
HETATM    6  H   UNL     1     -45.928  57.095 -56.119  1.00  0.00     0.164 HD
ENDROOT
BRANCH   1   7
HETATM    7  C   UNL     1     -42.406  57.757 -53.612  1.00  0.00     0.164 C 
BRANCH   7   8
HETATM    8  C   UNL     1     -41.788  56.431 -53.272  1.00  0.00    -0.021 A 
HETATM    9  C   UNL     1     -41.094  55.699 -54.232  1.00  0.00     0.128 A 
HETATM   10  N   UNL     1     -40.550  54.478 -54.015  1.00  0.00    -0.235 NA
HETATM   11  C   UNL     1     -40.685  53.957 -52.772  1.00  0.00     0.186 A 
HETATM   12  C   UNL     1     -41.331  54.624 -51.734  1.00  0.00     0.087 A 
HETATM   13  C   UNL     1     -41.886  55.879 -51.991  1.00  0.00     0.038 A 
HETATM   14 CL   UNL     1     -41.485  53.951 -50.154  1.00  0.00    -0.080 Cl
BRANCH  11  15
HETATM   15  O   UNL     1     -40.171  52.699 -52.521  1.00  0.00    -0.333 OA
BRANCH  15  16
HETATM   16  C   UNL     1     -39.735  52.011 -53.697  1.00  0.00     0.181 C 
BRANCH  16  17
HETATM   17  C   UNL     1     -40.107  50.525 -53.573  1.00  0.00     0.002 C 
HETATM   18  C   UNL     1     -39.565  49.947 -52.266  1.00  0.00     0.011 C 
HETATM   19  C   UNL     1     -39.583  49.720 -54.765  1.00  0.00     0.011 C 
ENDBRANCH  16  17
ENDBRANCH  15  16
ENDBRANCH  11  15
ENDBRANCH   7   8
ENDBRANCH   1   7
BRANCH   3  20
HETATM   20  C   UNL     1     -44.618  58.027 -57.490  1.00  0.00     0.090 C 
HETATM   21  C   UNL     1     -43.654  57.127 -58.314  1.00  0.00     0.067 C 
HETATM   22  C   UNL     1     -44.341  56.440 -59.437  1.00  0.00    -0.013 A 
HETATM   23  C   UNL     1     -45.645  56.679 -59.800  1.00  0.00     0.035 A 
HETATM   24  C   UNL     1     -43.897  55.465 -60.348  1.00  0.00     0.148 A 
HETATM   25  N   UNL     1     -45.905  55.881 -60.873  1.00  0.00    -0.282 N 
HETATM   26  C   UNL     1     -46.598  57.601 -59.140  1.00  0.00     0.061 C 
HETATM   27  H   UNL     1     -46.761  55.797 -61.413  1.00  0.00     0.189 HD
HETATM   28  N   UNL     1     -44.855  55.110 -61.210  1.00  0.00    -0.187 NA
HETATM   29  C   UNL     1     -45.818  58.608 -58.281  1.00  0.00     0.031 C 
ENDBRANCH   3  20
TORSDOF 6
ENDMDL
MODEL 6
REMARK VINA RESULT:      -7.1      4.193      7.609
REMARK  6 active torsions:
REMARK  status: ('A' for Active; 'I' for Inactive)
REMARK    1  A    between atoms: C_2  and  C_3 
REMARK    2  A    between atoms: C_3  and  O_4 
REMARK    3  A    between atoms: O_4  and  C_5 
REMARK    4  A    between atoms: C_8  and  C_9 
REMARK    5  A    between atoms: C_9  and  N_10 
REMARK       I    between atoms: N_10  and  C_11 
REMARK       I    between atoms: C_11  and  N_12 
REMARK    6  A    between atoms: N_12  and  C_13 
ROOT
HETATM    1  N   UNL     1     -42.577  55.973 -52.146  1.00  0.00    -0.339 N 
HETATM    2  C   UNL     1     -42.852  54.850 -51.448  1.00  0.00     0.316 C 
HETATM    3  N   UNL     1     -41.931  53.865 -51.434  1.00  0.00    -0.338 N 
HETATM    4  O   UNL     1     -43.898  54.683 -50.826  1.00  0.00    -0.247 OA
HETATM    5  H   UNL     1     -41.846  55.924 -52.833  1.00  0.00     0.164 HD
HETATM    6  H   UNL     1     -42.257  53.107 -50.846  1.00  0.00     0.164 HD
ENDROOT
BRANCH   1   7
HETATM    7  C   UNL     1     -43.570  57.003 -52.336  1.00  0.00     0.164 C 
BRANCH   7   8
HETATM    8  C   UNL     1     -43.838  57.295 -53.785  1.00  0.00    -0.021 A 
HETATM    9  C   UNL     1     -44.688  58.333 -54.159  1.00  0.00     0.128 A 
HETATM   10  N   UNL     1     -45.014  58.627 -55.440  1.00  0.00    -0.235 NA
HETATM   11  C   UNL     1     -44.457  57.862 -56.409  1.00  0.00     0.186 A 
HETATM   12  C   UNL     1     -43.569  56.822 -56.140  1.00  0.00     0.087 A 
HETATM   13  C   UNL     1     -43.256  56.540 -54.809  1.00  0.00     0.038 A 
HETATM   14 CL   UNL     1     -42.859  55.864 -57.384  1.00  0.00    -0.080 Cl
BRANCH  11  15
HETATM   15  O   UNL     1     -44.791  58.111 -57.726  1.00  0.00    -0.333 OA
BRANCH  15  16
HETATM   16  C   UNL     1     -46.179  57.917 -58.013  1.00  0.00     0.181 C 
BRANCH  16  17
HETATM   17  C   UNL     1     -46.370  57.862 -59.538  1.00  0.00     0.002 C 
HETATM   18  C   UNL     1     -47.284  58.994 -60.002  1.00  0.00     0.011 C 
HETATM   19  C   UNL     1     -46.937  56.510 -59.977  1.00  0.00     0.011 C 
ENDBRANCH  16  17
ENDBRANCH  15  16
ENDBRANCH  11  15
ENDBRANCH   7   8
ENDBRANCH   1   7
BRANCH   3  20
HETATM   20  C   UNL     1     -40.597  53.677 -52.022  1.00  0.00     0.090 C 
HETATM   21  C   UNL     1     -39.843  52.409 -51.530  1.00  0.00     0.067 C 
HETATM   22  C   UNL     1     -39.815  51.334 -52.554  1.00  0.00    -0.013 A 
HETATM   23  C   UNL     1     -40.273  51.488 -53.840  1.00  0.00     0.035 A 
HETATM   24  C   UNL     1     -39.354  50.006 -52.501  1.00  0.00     0.148 A 
HETATM   25  N   UNL     1     -40.062  50.300 -54.475  1.00  0.00    -0.282 N 
HETATM   26  C   UNL     1     -40.902  52.694 -54.423  1.00  0.00     0.061 C 
HETATM   27  H   UNL     1     -40.266  50.046 -55.436  1.00  0.00     0.189 HD
HETATM   28  N   UNL     1     -39.523  49.370 -53.665  1.00  0.00    -0.187 NA
HETATM   29  C   UNL     1     -40.562  53.915 -53.553  1.00  0.00     0.031 C 
ENDBRANCH   3  20
TORSDOF 6
ENDMDL
MODEL 7
REMARK VINA RESULT:      -7.1      4.780      7.164
REMARK  6 active torsions:
REMARK  status: ('A' for Active; 'I' for Inactive)
REMARK    1  A    between atoms: C_2  and  C_3 
REMARK    2  A    between atoms: C_3  and  O_4 
REMARK    3  A    between atoms: O_4  and  C_5 
REMARK    4  A    between atoms: C_8  and  C_9 
REMARK    5  A    between atoms: C_9  and  N_10 
REMARK       I    between atoms: N_10  and  C_11 
REMARK       I    between atoms: C_11  and  N_12 
REMARK    6  A    between atoms: N_12  and  C_13 
ROOT
HETATM    1  N   UNL     1     -41.865  58.376 -54.064  1.00  0.00    -0.339 N 
HETATM    2  C   UNL     1     -40.881  58.449 -53.142  1.00  0.00     0.316 C 
HETATM    3  N   UNL     1     -40.883  57.553 -52.134  1.00  0.00    -0.338 N 
HETATM    4  O   UNL     1     -39.986  59.289 -53.177  1.00  0.00    -0.247 OA
HETATM    5  H   UNL     1     -42.689  57.856 -53.822  1.00  0.00     0.164 HD
HETATM    6  H   UNL     1     -40.073  57.706 -51.545  1.00  0.00     0.164 HD
ENDROOT
BRANCH   1   7
HETATM    7  C   UNL     1     -42.019  59.389 -55.082  1.00  0.00     0.164 C 
BRANCH   7   8
HETATM    8  C   UNL     1     -42.445  58.823 -56.406  1.00  0.00    -0.021 A 
HETATM    9  C   UNL     1     -42.719  59.660 -57.485  1.00  0.00     0.128 A 
HETATM   10  N   UNL     1     -43.153  59.229 -58.694  1.00  0.00    -0.235 NA
HETATM   11  C   UNL     1     -43.309  57.893 -58.851  1.00  0.00     0.186 A 
HETATM   12  C   UNL     1     -43.029  56.971 -57.845  1.00  0.00     0.087 A 
HETATM   13  C   UNL     1     -42.589  57.447 -56.608  1.00  0.00     0.038 A 
HETATM   14 CL   UNL     1     -43.222  55.272 -58.064  1.00  0.00    -0.080 Cl
BRANCH  11  15
HETATM   15  O   UNL     1     -43.780  57.418 -60.060  1.00  0.00    -0.333 OA
BRANCH  15  16
HETATM   16  C   UNL     1     -45.186  57.602 -60.242  1.00  0.00     0.181 C 
BRANCH  16  17
HETATM   17  C   UNL     1     -45.871  56.226 -60.266  1.00  0.00     0.002 C 
HETATM   18  C   UNL     1     -45.085  55.255 -61.147  1.00  0.00     0.011 C 
HETATM   19  C   UNL     1     -47.316  56.335 -60.758  1.00  0.00     0.011 C 
ENDBRANCH  16  17
ENDBRANCH  15  16
ENDBRANCH  11  15
ENDBRANCH   7   8
ENDBRANCH   1   7
BRANCH   3  20
HETATM   20  C   UNL     1     -41.740  56.424 -51.744  1.00  0.00     0.090 C 
HETATM   21  C   UNL     1     -41.716  55.220 -52.726  1.00  0.00     0.067 C 
HETATM   22  C   UNL     1     -40.942  54.069 -52.194  1.00  0.00    -0.013 A 
HETATM   23  C   UNL     1     -40.428  54.015 -50.921  1.00  0.00     0.035 A 
HETATM   24  C   UNL     1     -40.568  52.846 -52.776  1.00  0.00     0.148 A 
HETATM   25  N   UNL     1     -39.808  52.808 -50.800  1.00  0.00    -0.282 N 
HETATM   26  C   UNL     1     -40.502  55.071 -49.885  1.00  0.00     0.061 C 
HETATM   27  H   UNL     1     -39.325  52.416 -49.997  1.00  0.00     0.189 HD
HETATM   28  N   UNL     1     -39.860  52.086 -51.934  1.00  0.00    -0.187 NA
HETATM   29  C   UNL     1     -41.625  56.056 -50.243  1.00  0.00     0.031 C 
ENDBRANCH   3  20
TORSDOF 6
ENDMDL
MODEL 8
REMARK VINA RESULT:      -7.0      4.007      6.402
REMARK  6 active torsions:
REMARK  status: ('A' for Active; 'I' for Inactive)
REMARK    1  A    between atoms: C_2  and  C_3 
REMARK    2  A    between atoms: C_3  and  O_4 
REMARK    3  A    between atoms: O_4  and  C_5 
REMARK    4  A    between atoms: C_8  and  C_9 
REMARK    5  A    between atoms: C_9  and  N_10 
REMARK       I    between atoms: N_10  and  C_11 
REMARK       I    between atoms: C_11  and  N_12 
REMARK    6  A    between atoms: N_12  and  C_13 
ROOT
HETATM    1  N   UNL     1     -41.435  57.446 -52.137  1.00  0.00    -0.339 N 
HETATM    2  C   UNL     1     -41.148  57.861 -50.884  1.00  0.00     0.316 C 
HETATM    3  N   UNL     1     -41.362  57.006 -49.864  1.00  0.00    -0.338 N 
HETATM    4  O   UNL     1     -40.702  58.977 -50.630  1.00  0.00    -0.247 OA
HETATM    5  H   UNL     1     -42.037  56.648 -52.234  1.00  0.00     0.164 HD
HETATM    6  H   UNL     1     -41.070  57.438 -48.995  1.00  0.00     0.164 HD
ENDROOT
BRANCH   1   7
HETATM    7  C   UNL     1     -41.379  58.351 -53.261  1.00  0.00     0.164 C 
BRANCH   7   8
HETATM    8  C   UNL     1     -41.960  57.761 -54.514  1.00  0.00    -0.021 A 
HETATM    9  C   UNL     1     -42.250  58.564 -55.614  1.00  0.00     0.128 A 
HETATM   10  N   UNL     1     -42.816  58.114 -56.759  1.00  0.00    -0.235 NA
HETATM   11  C   UNL     1     -43.099  56.791 -56.827  1.00  0.00     0.186 A 
HETATM   12  C   UNL     1     -42.817  55.898 -55.794  1.00  0.00     0.087 A 
HETATM   13  C   UNL     1     -42.237  56.394 -54.625  1.00  0.00     0.038 A 
HETATM   14 CL   UNL     1     -43.172  54.215 -55.901  1.00  0.00    -0.080 Cl
BRANCH  11  15
HETATM   15  O   UNL     1     -43.707  56.300 -57.967  1.00  0.00    -0.333 OA
BRANCH  15  16
HETATM   16  C   UNL     1     -42.821  56.176 -59.082  1.00  0.00     0.181 C 
BRANCH  16  17
HETATM   17  C   UNL     1     -43.583  56.538 -60.368  1.00  0.00     0.002 C 
HETATM   18  C   UNL     1     -44.151  57.953 -60.270  1.00  0.00     0.011 C 
HETATM   19  C   UNL     1     -44.706  55.536 -60.647  1.00  0.00     0.011 C 
ENDBRANCH  16  17
ENDBRANCH  15  16
ENDBRANCH  11  15
ENDBRANCH   7   8
ENDBRANCH   1   7
BRANCH   3  20
HETATM   20  C   UNL     1     -41.862  55.629 -49.745  1.00  0.00     0.090 C 
HETATM   21  C   UNL     1     -42.293  54.976 -51.088  1.00  0.00     0.067 C 
HETATM   22  C   UNL     1     -41.314  53.967 -51.569  1.00  0.00    -0.013 A 
HETATM   23  C   UNL     1     -40.225  53.550 -50.843  1.00  0.00     0.035 A 
HETATM   24  C   UNL     1     -41.242  53.233 -52.766  1.00  0.00     0.148 A 
HETATM   25  N   UNL     1     -39.585  52.615 -51.600  1.00  0.00    -0.282 N 
HETATM   26  C   UNL     1     -39.803  54.038 -49.510  1.00  0.00     0.061 C 
HETATM   27  H   UNL     1     -38.749  52.082 -51.383  1.00  0.00     0.189 HD
HETATM   28  N   UNL     1     -40.177  52.424 -52.793  1.00  0.00    -0.187 NA
HETATM   29  C   UNL     1     -40.989  54.736 -48.826  1.00  0.00     0.031 C 
ENDBRANCH   3  20
TORSDOF 6
ENDMDL
MODEL 9
REMARK VINA RESULT:      -6.9      5.092      6.380
REMARK  6 active torsions:
REMARK  status: ('A' for Active; 'I' for Inactive)
REMARK    1  A    between atoms: C_2  and  C_3 
REMARK    2  A    between atoms: C_3  and  O_4 
REMARK    3  A    between atoms: O_4  and  C_5 
REMARK    4  A    between atoms: C_8  and  C_9 
REMARK    5  A    between atoms: C_9  and  N_10 
REMARK       I    between atoms: N_10  and  C_11 
REMARK       I    between atoms: C_11  and  N_12 
REMARK    6  A    between atoms: N_12  and  C_13 
ROOT
HETATM    1  N   UNL     1     -42.762  58.947 -57.285  1.00  0.00    -0.339 N 
HETATM    2  C   UNL     1     -41.917  59.863 -57.806  1.00  0.00     0.316 C 
HETATM    3  N   UNL     1     -41.693  59.841 -59.136  1.00  0.00    -0.338 N 
HETATM    4  O   UNL     1     -41.345  60.713 -57.129  1.00  0.00    -0.247 OA
HETATM    5  H   UNL     1     -42.968  58.137 -57.842  1.00  0.00     0.164 HD
HETATM    6  H   UNL     1     -41.071  60.601 -59.385  1.00  0.00     0.164 HD
ENDROOT
BRANCH   1   7
HETATM    7  C   UNL     1     -42.935  58.808 -55.858  1.00  0.00     0.164 C 
BRANCH   7   8
HETATM    8  C   UNL     1     -42.598  57.430 -55.362  1.00  0.00    -0.021 A 
HETATM    9  C   UNL     1     -41.646  57.244 -54.364  1.00  0.00     0.128 A 
HETATM   10  N   UNL     1     -41.256  56.033 -53.898  1.00  0.00    -0.235 NA
HETATM   11  C   UNL     1     -41.853  54.944 -54.439  1.00  0.00     0.186 A 
HETATM   12  C   UNL     1     -42.841  55.026 -55.418  1.00  0.00     0.087 A 
HETATM   13  C   UNL     1     -43.217  56.288 -55.881  1.00  0.00     0.038 A 
HETATM   14 CL   UNL     1     -43.600  53.631 -56.088  1.00  0.00    -0.080 Cl
BRANCH  11  15
HETATM   15  O   UNL     1     -41.459  53.690 -54.012  1.00  0.00    -0.333 OA
BRANCH  15  16
HETATM   16  C   UNL     1     -40.212  53.261 -54.565  1.00  0.00     0.181 C 
BRANCH  16  17
HETATM   17  C   UNL     1     -39.722  52.026 -53.792  1.00  0.00     0.002 C 
HETATM   18  C   UNL     1     -40.409  50.764 -54.311  1.00  0.00     0.011 C 
HETATM   19  C   UNL     1     -39.965  52.181 -52.289  1.00  0.00     0.011 C 
ENDBRANCH  16  17
ENDBRANCH  15  16
ENDBRANCH  11  15
ENDBRANCH   7   8
ENDBRANCH   1   7
BRANCH   3  20
HETATM   20  C   UNL     1     -42.165  59.020 -60.259  1.00  0.00     0.090 C 
HETATM   21  C   UNL     1     -41.845  57.503 -60.136  1.00  0.00     0.067 C 
HETATM   22  C   UNL     1     -43.044  56.697 -59.792  1.00  0.00    -0.013 A 
HETATM   23  C   UNL     1     -44.319  57.207 -59.732  1.00  0.00     0.035 A 
HETATM   24  C   UNL     1     -43.195  55.335 -59.476  1.00  0.00     0.148 A 
HETATM   25  N   UNL     1     -45.140  56.168 -59.409  1.00  0.00    -0.282 N 
HETATM   26  C   UNL     1     -44.727  58.614 -59.944  1.00  0.00     0.061 C 
HETATM   27  H   UNL     1     -46.148  56.166 -59.287  1.00  0.00     0.189 HD
HETATM   28  N   UNL     1     -44.468  55.017 -59.222  1.00  0.00    -0.187 NA
HETATM   29  C   UNL     1     -43.613  59.357 -60.699  1.00  0.00     0.031 C 
ENDBRANCH   3  20
TORSDOF 6
ENDMDL
MODEL 10
REMARK VINA RESULT:      -6.8      3.701      8.485
REMARK  6 active torsions:
REMARK  status: ('A' for Active; 'I' for Inactive)
REMARK    1  A    between atoms: C_2  and  C_3 
REMARK    2  A    between atoms: C_3  and  O_4 
REMARK    3  A    between atoms: O_4  and  C_5 
REMARK    4  A    between atoms: C_8  and  C_9 
REMARK    5  A    between atoms: C_9  and  N_10 
REMARK       I    between atoms: N_10  and  C_11 
REMARK       I    between atoms: C_11  and  N_12 
REMARK    6  A    between atoms: N_12  and  C_13 
ROOT
HETATM    1  N   UNL     1     -42.125  58.744 -51.535  1.00  0.00    -0.339 N 
HETATM    2  C   UNL     1     -40.944  58.470 -50.940  1.00  0.00     0.316 C 
HETATM    3  N   UNL     1     -40.760  57.236 -50.427  1.00  0.00    -0.338 N 
HETATM    4  O   UNL     1     -40.032  59.287 -50.844  1.00  0.00    -0.247 OA
HETATM    5  H   UNL     1     -42.898  58.135 -51.335  1.00  0.00     0.164 HD
HETATM    6  H   UNL     1     -39.823  57.166 -50.047  1.00  0.00     0.164 HD
ENDROOT
BRANCH   1   7
HETATM    7  C   UNL     1     -42.455  60.081 -51.970  1.00  0.00     0.164 C 
BRANCH   7   8
HETATM    8  C   UNL     1     -43.360  60.799 -51.010  1.00  0.00    -0.021 A 
HETATM    9  C   UNL     1     -44.566  60.233 -50.606  1.00  0.00     0.128 A 
HETATM   10  N   UNL     1     -45.455  60.838 -49.782  1.00  0.00    -0.235 NA
HETATM   11  C   UNL     1     -45.125  62.068 -49.318  1.00  0.00     0.186 A 
HETATM   12  C   UNL     1     -43.928  62.705 -49.636  1.00  0.00     0.087 A 
HETATM   13  C   UNL     1     -43.035  62.057 -50.492  1.00  0.00     0.038 A 
HETATM   14 CL   UNL     1     -43.517  64.265 -49.028  1.00  0.00    -0.080 Cl
BRANCH  11  15
HETATM   15  O   UNL     1     -46.021  62.730 -48.500  1.00  0.00    -0.333 OA
BRANCH  15  16
HETATM   16  C   UNL     1     -46.328  62.026 -47.295  1.00  0.00     0.181 C 
BRANCH  16  17
HETATM   17  C   UNL     1     -45.156  62.184 -46.312  1.00  0.00     0.002 C 
HETATM   18  C   UNL     1     -44.935  60.888 -45.533  1.00  0.00     0.011 C 
HETATM   19  C   UNL     1     -45.396  63.347 -45.346  1.00  0.00     0.011 C 
ENDBRANCH  16  17
ENDBRANCH  15  16
ENDBRANCH  11  15
ENDBRANCH   7   8
ENDBRANCH   1   7
BRANCH   3  20
HETATM   20  C   UNL     1     -41.567  56.011 -50.340  1.00  0.00     0.090 C 
HETATM   21  C   UNL     1     -41.807  55.294 -51.698  1.00  0.00     0.067 C 
HETATM   22  C   UNL     1     -40.994  54.059 -51.839  1.00  0.00    -0.013 A 
HETATM   23  C   UNL     1     -40.226  53.529 -50.831  1.00  0.00     0.035 A 
HETATM   24  C   UNL     1     -40.809  53.181 -52.921  1.00  0.00     0.148 A 
HETATM   25  N   UNL     1     -39.652  52.398 -51.330  1.00  0.00    -0.282 N 
HETATM   26  C   UNL     1     -40.030  54.086 -49.473  1.00  0.00     0.061 C 
HETATM   27  H   UNL     1     -39.030  51.741 -50.869  1.00  0.00     0.189 HD
HETATM   28  N   UNL     1     -39.976  52.180 -52.618  1.00  0.00    -0.187 NA
HETATM   29  C   UNL     1     -41.156  55.086 -49.167  1.00  0.00     0.031 C 
ENDBRANCH   3  20
TORSDOF 6
ENDMDL
