MODEL 1
REMARK VINA RESULT:      -9.0      0.000      0.000
REMARK  6 active torsions:
REMARK  status: ('A' for Active; 'I' for Inactive)
REMARK    1  A    between atoms: O_2  and  C_3 
REMARK    2  A    between atoms: C_6  and  C_7 
REMARK    3  A    between atoms: C_7  and  N_8 
REMARK       I    between atoms: N_8  and  C_9 
REMARK    4  A    between atoms: C_9  and  C_10 
REMARK    5  A    between atoms: C_10  and  O_11 
REMARK    6  A    between atoms: N_12  and  C_13 
ROOT
HETATM    1  C   UNL     1     -43.461  57.818 -52.100  1.00  0.00     0.256 C 
HETATM    2  N   UNL     1     -42.640  58.255 -53.236  1.00  0.00    -0.254 N 
HETATM    3  C   UNL     1     -41.598  59.140 -52.937  1.00  0.00     0.330 C 
HETATM    4  O   UNL     1     -40.612  59.370 -53.635  1.00  0.00    -0.246 OA
HETATM    5  N   UNL     1     -41.766  59.910 -51.806  1.00  0.00    -0.308 N 
HETATM    6  C   UNL     1     -42.969  60.011 -51.107  1.00  0.00     0.048 A 
HETATM    7  C   UNL     1     -43.926  59.018 -51.307  1.00  0.00     0.034 A 
HETATM    8  C   UNL     1     -43.218  61.092 -50.266  1.00  0.00     0.030 A 
HETATM    9  C   UNL     1     -44.467  61.205 -49.653  1.00  0.00     0.002 A 
HETATM   10  C   UNL     1     -45.449  60.239 -49.877  1.00  0.00     0.001 A 
HETATM   11  C   UNL     1     -45.181  59.142 -50.698  1.00  0.00     0.015 A 
HETATM   12  H   UNL     1     -41.057  60.625 -51.692  1.00  0.00     0.170 HD
ENDROOT
BRANCH   1  13
HETATM   13  C   UNL     1     -42.585  56.829 -51.204  1.00  0.00     0.279 C 
HETATM   14  N   UNL     1     -42.921  55.488 -51.250  1.00  0.00    -0.352 N 
HETATM   15  H   UNL     1     -43.615  55.166 -51.912  1.00  0.00     0.162 HD
HETATM   16  O   UNL     1     -41.593  57.214 -50.580  1.00  0.00    -0.268 OA
BRANCH  14  17
HETATM   17  C   UNL     1     -42.177  54.489 -50.520  1.00  0.00     0.161 C 
BRANCH  17  18
HETATM   18  C   UNL     1     -41.369  53.621 -51.451  1.00  0.00    -0.040 A 
HETATM   19  C   UNL     1     -40.386  52.757 -50.953  1.00  0.00     0.011 A 
HETATM   20  C   UNL     1     -39.675  51.922 -51.819  1.00  0.00     0.037 A 
HETATM   21  C   UNL     1     -39.937  51.924 -53.191  1.00  0.00     0.068 A 
HETATM   22  C   UNL     1     -40.908  52.787 -53.696  1.00  0.00     0.037 A 
HETATM   23  C   UNL     1     -41.622  53.625 -52.832  1.00  0.00     0.011 A 
BRANCH  21  24
HETATM   24  O   UNL     1     -39.181  51.049 -53.921  1.00  0.00    -0.356 OA
HETATM   25  C   UNL     1     -39.843  49.892 -54.418  1.00  0.00     0.210 C 
ENDBRANCH  21  24
ENDBRANCH  17  18
ENDBRANCH  14  17
ENDBRANCH   1  13
BRANCH   1  26
HETATM   26  O   UNL     1     -44.596  57.043 -52.499  1.00  0.00    -0.359 OA
HETATM   27  H   UNL     1     -44.545  57.023 -53.472  1.00  0.00     0.213 HD
ENDBRANCH   1  26
BRANCH   2  28
HETATM   28  C   UNL     1     -42.735  57.648 -54.524  1.00  0.00     0.043 A 
HETATM   29  C   UNL     1     -43.512  58.212 -55.544  1.00  0.00     0.031 A 
HETATM   30  C   UNL     1     -43.643  57.576 -56.785  1.00  0.00     0.026 A 
HETATM   31  C   UNL     1     -43.005  56.361 -57.011  1.00  0.00     0.034 A 
HETATM   32 CL   UNL     1     -43.174  55.570 -58.529  1.00  0.00    -0.084 Cl
HETATM   33  C   UNL     1     -42.238  55.777 -56.008  1.00  0.00     0.026 A 
HETATM   34  C   UNL     1     -42.110  56.416 -54.770  1.00  0.00     0.031 A 
ENDBRANCH   2  28
TORSDOF 6
ENDMDL
MODEL 2
REMARK VINA RESULT:      -8.7      3.032      6.777
REMARK  6 active torsions:
REMARK  status: ('A' for Active; 'I' for Inactive)
REMARK    1  A    between atoms: O_2  and  C_3 
REMARK    2  A    between atoms: C_6  and  C_7 
REMARK    3  A    between atoms: C_7  and  N_8 
REMARK       I    between atoms: N_8  and  C_9 
REMARK    4  A    between atoms: C_9  and  C_10 
REMARK    5  A    between atoms: C_10  and  O_11 
REMARK    6  A    between atoms: N_12  and  C_13 
ROOT
HETATM    1  C   UNL     1     -41.507  55.882 -53.793  1.00  0.00     0.256 C 
HETATM    2  N   UNL     1     -41.815  54.700 -52.977  1.00  0.00    -0.254 N 
HETATM    3  C   UNL     1     -42.970  54.778 -52.192  1.00  0.00     0.330 C 
HETATM    4  O   UNL     1     -43.588  53.833 -51.706  1.00  0.00    -0.246 OA
HETATM    5  N   UNL     1     -43.374  56.048 -51.837  1.00  0.00    -0.308 N 
HETATM    6  C   UNL     1     -42.594  57.190 -52.020  1.00  0.00     0.048 A 
HETATM    7  C   UNL     1     -41.545  57.126 -52.935  1.00  0.00     0.034 A 
HETATM    8  C   UNL     1     -42.834  58.345 -51.280  1.00  0.00     0.030 A 
HETATM    9  C   UNL     1     -41.978  59.438 -51.427  1.00  0.00     0.002 A 
HETATM   10  C   UNL     1     -40.900  59.372 -52.309  1.00  0.00     0.001 A 
HETATM   11  C   UNL     1     -40.683  58.221 -53.069  1.00  0.00     0.015 A 
HETATM   12  H   UNL     1     -44.134  56.060 -51.167  1.00  0.00     0.170 HD
ENDROOT
BRANCH   1  13
HETATM   13  C   UNL     1     -42.572  55.957 -54.980  1.00  0.00     0.279 C 
HETATM   14  N   UNL     1     -42.099  55.708 -56.255  1.00  0.00    -0.352 N 
HETATM   15  H   UNL     1     -41.148  55.386 -56.385  1.00  0.00     0.162 HD
HETATM   16  O   UNL     1     -43.776  56.125 -54.771  1.00  0.00    -0.268 OA
BRANCH  14  17
HETATM   17  C   UNL     1     -42.971  55.702 -57.406  1.00  0.00     0.161 C 
BRANCH  17  18
HETATM   18  C   UNL     1     -42.711  56.892 -58.295  1.00  0.00    -0.040 A 
HETATM   19  C   UNL     1     -42.614  58.181 -57.756  1.00  0.00     0.011 A 
HETATM   20  C   UNL     1     -42.327  59.271 -58.582  1.00  0.00     0.037 A 
HETATM   21  C   UNL     1     -42.121  59.097 -59.952  1.00  0.00     0.068 A 
HETATM   22  C   UNL     1     -42.225  57.818 -60.498  1.00  0.00     0.037 A 
HETATM   23  C   UNL     1     -42.512  56.723 -59.674  1.00  0.00     0.011 A 
BRANCH  21  24
HETATM   24  O   UNL     1     -41.833  60.243 -60.640  1.00  0.00    -0.356 OA
HETATM   25  C   UNL     1     -41.464  61.378 -59.867  1.00  0.00     0.210 C 
ENDBRANCH  21  24
ENDBRANCH  17  18
ENDBRANCH  14  17
ENDBRANCH   1  13
BRANCH   1  26
HETATM   26  O   UNL     1     -40.237  55.793 -54.445  1.00  0.00    -0.359 OA
HETATM   27  H   UNL     1     -40.006  54.847 -54.398  1.00  0.00     0.213 HD
ENDBRANCH   1  26
BRANCH   2  28
HETATM   28  C   UNL     1     -41.124  53.462 -53.138  1.00  0.00     0.043 A 
HETATM   29  C   UNL     1     -41.340  52.642 -54.253  1.00  0.00     0.031 A 
HETATM   30  C   UNL     1     -40.698  51.402 -54.370  1.00  0.00     0.026 A 
HETATM   31  C   UNL     1     -39.842  50.968 -53.364  1.00  0.00     0.034 A 
HETATM   32 CL   UNL     1     -39.062  49.441 -53.498  1.00  0.00    -0.084 Cl
HETATM   33  C   UNL     1     -39.622  51.761 -52.242  1.00  0.00     0.026 A 
HETATM   34  C   UNL     1     -40.265  52.999 -52.130  1.00  0.00     0.031 A 
ENDBRANCH   2  28
TORSDOF 6
ENDMDL
MODEL 3
REMARK VINA RESULT:      -8.5      2.792      6.081
REMARK  6 active torsions:
REMARK  status: ('A' for Active; 'I' for Inactive)
REMARK    1  A    between atoms: O_2  and  C_3 
REMARK    2  A    between atoms: C_6  and  C_7 
REMARK    3  A    between atoms: C_7  and  N_8 
REMARK       I    between atoms: N_8  and  C_9 
REMARK    4  A    between atoms: C_9  and  C_10 
REMARK    5  A    between atoms: C_10  and  O_11 
REMARK    6  A    between atoms: N_12  and  C_13 
ROOT
HETATM    1  C   UNL     1     -41.373  56.371 -52.990  1.00  0.00     0.256 C 
HETATM    2  N   UNL     1     -41.527  55.126 -52.227  1.00  0.00    -0.254 N 
HETATM    3  C   UNL     1     -42.288  55.211 -51.057  1.00  0.00     0.330 C 
HETATM    4  O   UNL     1     -42.815  54.275 -50.458  1.00  0.00    -0.246 OA
HETATM    5  N   UNL     1     -42.345  56.454 -50.463  1.00  0.00    -0.308 N 
HETATM    6  C   UNL     1     -41.531  57.526 -50.827  1.00  0.00     0.048 A 
HETATM    7  C   UNL     1     -40.912  57.483 -52.075  1.00  0.00     0.034 A 
HETATM    8  C   UNL     1     -41.312  58.586 -49.952  1.00  0.00     0.030 A 
HETATM    9  C   UNL     1     -40.422  59.598 -50.316  1.00  0.00     0.002 A 
HETATM   10  C   UNL     1     -39.765  59.546 -51.545  1.00  0.00     0.001 A 
HETATM   11  C   UNL     1     -40.011  58.494 -52.430  1.00  0.00     0.015 A 
HETATM   12  H   UNL     1     -42.796  56.450 -49.555  1.00  0.00     0.170 HD
ENDROOT
BRANCH   1  13
HETATM   13  C   UNL     1     -42.777  56.715 -53.668  1.00  0.00     0.279 C 
HETATM   14  N   UNL     1     -42.746  57.548 -54.771  1.00  0.00    -0.352 N 
HETATM   15  H   UNL     1     -41.856  57.817 -55.173  1.00  0.00     0.162 HD
HETATM   16  O   UNL     1     -43.830  56.189 -53.299  1.00  0.00    -0.268 OA
BRANCH  14  17
HETATM   17  C   UNL     1     -43.943  57.898 -55.499  1.00  0.00     0.161 C 
BRANCH  17  18
HETATM   18  C   UNL     1     -43.939  57.294 -56.880  1.00  0.00    -0.040 A 
HETATM   19  C   UNL     1     -44.769  57.802 -57.887  1.00  0.00     0.011 A 
HETATM   20  C   UNL     1     -44.724  57.266 -59.177  1.00  0.00     0.037 A 
HETATM   21  C   UNL     1     -43.848  56.225 -59.489  1.00  0.00     0.068 A 
HETATM   22  C   UNL     1     -43.024  55.707 -58.491  1.00  0.00     0.037 A 
HETATM   23  C   UNL     1     -43.065  56.242 -57.198  1.00  0.00     0.011 A 
BRANCH  21  24
HETATM   24  O   UNL     1     -43.895  55.805 -60.790  1.00  0.00    -0.356 OA
HETATM   25  C   UNL     1     -45.064  55.103 -61.194  1.00  0.00     0.210 C 
ENDBRANCH  21  24
ENDBRANCH  17  18
ENDBRANCH  14  17
ENDBRANCH   1  13
BRANCH   1  26
HETATM   26  O   UNL     1     -40.459  56.245 -54.083  1.00  0.00    -0.359 OA
HETATM   27  H   UNL     1     -40.899  56.705 -54.821  1.00  0.00     0.213 HD
ENDBRANCH   1  26
BRANCH   2  28
HETATM   28  C   UNL     1     -41.131  53.858 -52.750  1.00  0.00     0.043 A 
HETATM   29  C   UNL     1     -40.140  53.086 -52.129  1.00  0.00     0.031 A 
HETATM   30  C   UNL     1     -39.721  51.871 -52.686  1.00  0.00     0.026 A 
HETATM   31  C   UNL     1     -40.283  51.423 -53.875  1.00  0.00     0.034 A 
HETATM   32 CL   UNL     1     -39.762  49.937 -54.568  1.00  0.00    -0.084 Cl
HETATM   33  C   UNL     1     -41.261  52.179 -54.515  1.00  0.00     0.026 A 
HETATM   34  C   UNL     1     -41.677  53.392 -53.956  1.00  0.00     0.031 A 
ENDBRANCH   2  28
TORSDOF 6
ENDMDL
MODEL 4
REMARK VINA RESULT:      -8.4      4.137      6.796
REMARK  6 active torsions:
REMARK  status: ('A' for Active; 'I' for Inactive)
REMARK    1  A    between atoms: O_2  and  C_3 
REMARK    2  A    between atoms: C_6  and  C_7 
REMARK    3  A    between atoms: C_7  and  N_8 
REMARK       I    between atoms: N_8  and  C_9 
REMARK    4  A    between atoms: C_9  and  C_10 
REMARK    5  A    between atoms: C_10  and  O_11 
REMARK    6  A    between atoms: N_12  and  C_13 
ROOT
HETATM    1  C   UNL     1     -42.770  57.938 -58.520  1.00  0.00     0.256 C 
HETATM    2  N   UNL     1     -43.145  59.299 -58.926  1.00  0.00    -0.254 N 
HETATM    3  C   UNL     1     -44.501  59.622 -58.818  1.00  0.00     0.330 C 
HETATM    4  O   UNL     1     -44.982  60.753 -58.779  1.00  0.00    -0.246 OA
HETATM    5  N   UNL     1     -45.382  58.562 -58.884  1.00  0.00    -0.308 N 
HETATM    6  C   UNL     1     -45.015  57.272 -59.266  1.00  0.00     0.048 A 
HETATM    7  C   UNL     1     -43.665  56.931 -59.207  1.00  0.00     0.034 A 
HETATM    8  C   UNL     1     -45.966  56.367 -59.732  1.00  0.00     0.030 A 
HETATM    9  C   UNL     1     -45.550  55.116 -60.188  1.00  0.00     0.002 A 
HETATM   10  C   UNL     1     -44.197  54.777 -60.172  1.00  0.00     0.001 A 
HETATM   11  C   UNL     1     -43.252  55.678 -59.677  1.00  0.00     0.015 A 
HETATM   12  H   UNL     1     -46.354  58.844 -58.932  1.00  0.00     0.170 HD
ENDROOT
BRANCH   1  13
HETATM   13  C   UNL     1     -42.893  57.841 -56.931  1.00  0.00     0.279 C 
HETATM   14  N   UNL     1     -42.172  56.836 -56.314  1.00  0.00    -0.352 N 
HETATM   15  H   UNL     1     -41.522  56.278 -56.854  1.00  0.00     0.162 HD
HETATM   16  O   UNL     1     -43.511  58.678 -56.269  1.00  0.00    -0.268 OA
BRANCH  14  17
HETATM   17  C   UNL     1     -42.164  56.672 -54.879  1.00  0.00     0.161 C 
BRANCH  17  18
HETATM   18  C   UNL     1     -41.574  55.342 -54.484  1.00  0.00    -0.040 A 
HETATM   19  C   UNL     1     -40.750  54.633 -55.367  1.00  0.00     0.011 A 
HETATM   20  C   UNL     1     -40.170  53.424 -54.974  1.00  0.00     0.037 A 
HETATM   21  C   UNL     1     -40.391  52.906 -53.697  1.00  0.00     0.068 A 
HETATM   22  C   UNL     1     -41.217  53.600 -52.815  1.00  0.00     0.037 A 
HETATM   23  C   UNL     1     -41.800  54.812 -53.204  1.00  0.00     0.011 A 
BRANCH  21  24
HETATM   24  O   UNL     1     -39.752  51.724 -53.437  1.00  0.00    -0.356 OA
HETATM   25  C   UNL     1     -40.071  50.626 -54.282  1.00  0.00     0.210 C 
ENDBRANCH  21  24
ENDBRANCH  17  18
ENDBRANCH  14  17
ENDBRANCH   1  13
BRANCH   1  26
HETATM   26  O   UNL     1     -41.402  57.629 -58.803  1.00  0.00    -0.359 OA
HETATM   27  H   UNL     1     -41.057  58.432 -59.233  1.00  0.00     0.213 HD
ENDBRANCH   1  26
BRANCH   2  28
HETATM   28  C   UNL     1     -42.172  60.309 -59.191  1.00  0.00     0.043 A 
HETATM   29  C   UNL     1     -41.493  60.963 -58.155  1.00  0.00     0.031 A 
HETATM   30  C   UNL     1     -40.583  61.993 -58.428  1.00  0.00     0.026 A 
HETATM   31  C   UNL     1     -40.355  62.384 -59.742  1.00  0.00     0.034 A 
HETATM   32 CL   UNL     1     -39.248  63.657 -60.081  1.00  0.00    -0.084 Cl
HETATM   33  C   UNL     1     -41.027  61.756 -60.786  1.00  0.00     0.026 A 
HETATM   34  C   UNL     1     -41.935  60.728 -60.509  1.00  0.00     0.031 A 
ENDBRANCH   2  28
TORSDOF 6
ENDMDL
MODEL 5
REMARK VINA RESULT:      -8.3      2.188      3.302
REMARK  6 active torsions:
REMARK  status: ('A' for Active; 'I' for Inactive)
REMARK    1  A    between atoms: O_2  and  C_3 
REMARK    2  A    between atoms: C_6  and  C_7 
REMARK    3  A    between atoms: C_7  and  N_8 
REMARK       I    between atoms: N_8  and  C_9 
REMARK    4  A    between atoms: C_9  and  C_10 
REMARK    5  A    between atoms: C_10  and  O_11 
REMARK    6  A    between atoms: N_12  and  C_13 
ROOT
HETATM    1  C   UNL     1     -43.243  56.890 -55.016  1.00  0.00     0.256 C 
HETATM    2  N   UNL     1     -43.224  57.588 -56.308  1.00  0.00    -0.254 N 
HETATM    3  C   UNL     1     -42.498  58.783 -56.351  1.00  0.00     0.330 C 
HETATM    4  O   UNL     1     -42.075  59.345 -57.359  1.00  0.00    -0.246 OA
HETATM    5  N   UNL     1     -42.353  59.446 -55.150  1.00  0.00    -0.308 N 
HETATM    6  C   UNL     1     -43.059  59.117 -53.993  1.00  0.00     0.048 A 
HETATM    7  C   UNL     1     -43.637  57.851 -53.916  1.00  0.00     0.034 A 
HETATM    8  C   UNL     1     -43.214  60.042 -52.964  1.00  0.00     0.030 A 
HETATM    9  C   UNL     1     -44.000  59.708 -51.860  1.00  0.00     0.002 A 
HETATM   10  C   UNL     1     -44.618  58.459 -51.790  1.00  0.00     0.001 A 
HETATM   11  C   UNL     1     -44.434  57.525 -52.812  1.00  0.00     0.015 A 
HETATM   12  H   UNL     1     -41.935  60.364 -55.241  1.00  0.00     0.170 HD
ENDROOT
BRANCH   1  13
HETATM   13  C   UNL     1     -41.793  56.273 -54.763  1.00  0.00     0.279 C 
HETATM   14  N   UNL     1     -41.583  54.981 -55.208  1.00  0.00    -0.352 N 
HETATM   15  H   UNL     1     -42.292  54.518 -55.762  1.00  0.00     0.162 HD
HETATM   16  O   UNL     1     -40.870  56.940 -54.289  1.00  0.00    -0.268 OA
BRANCH  14  17
HETATM   17  C   UNL     1     -40.302  54.327 -55.078  1.00  0.00     0.161 C 
BRANCH  17  18
HETATM   18  C   UNL     1     -40.261  53.441 -53.860  1.00  0.00    -0.040 A 
HETATM   19  C   UNL     1     -39.779  52.129 -53.944  1.00  0.00     0.011 A 
HETATM   20  C   UNL     1     -39.702  51.330 -52.800  1.00  0.00     0.037 A 
HETATM   21  C   UNL     1     -40.091  51.826 -51.553  1.00  0.00     0.068 A 
HETATM   22  C   UNL     1     -40.579  53.128 -51.462  1.00  0.00     0.037 A 
HETATM   23  C   UNL     1     -40.658  53.931 -52.606  1.00  0.00     0.011 A 
BRANCH  21  24
HETATM   24  O   UNL     1     -39.949  50.946 -50.516  1.00  0.00    -0.356 OA
HETATM   25  C   UNL     1     -39.778  49.576 -50.857  1.00  0.00     0.210 C 
ENDBRANCH  21  24
ENDBRANCH  17  18
ENDBRANCH  14  17
ENDBRANCH   1  13
BRANCH   1  26
HETATM   26  O   UNL     1     -44.128  55.766 -55.003  1.00  0.00    -0.359 OA
HETATM   27  H   UNL     1     -44.955  56.105 -55.393  1.00  0.00     0.213 HD
ENDBRANCH   1  26
BRANCH   2  28
HETATM   28  C   UNL     1     -43.711  56.986 -57.506  1.00  0.00     0.043 A 
HETATM   29  C   UNL     1     -43.015  55.949 -58.141  1.00  0.00     0.031 A 
HETATM   30  C   UNL     1     -43.475  55.407 -59.348  1.00  0.00     0.026 A 
HETATM   31  C   UNL     1     -44.631  55.907 -59.936  1.00  0.00     0.034 A 
HETATM   32 CL   UNL     1     -45.192  55.252 -61.424  1.00  0.00    -0.084 Cl
HETATM   33  C   UNL     1     -45.332  56.945 -59.329  1.00  0.00     0.026 A 
HETATM   34  C   UNL     1     -44.869  57.484 -58.124  1.00  0.00     0.031 A 
ENDBRANCH   2  28
TORSDOF 6
ENDMDL
MODEL 6
REMARK VINA RESULT:      -8.2      2.977      6.981
REMARK  6 active torsions:
REMARK  status: ('A' for Active; 'I' for Inactive)
REMARK    1  A    between atoms: O_2  and  C_3 
REMARK    2  A    between atoms: C_6  and  C_7 
REMARK    3  A    between atoms: C_7  and  N_8 
REMARK       I    between atoms: N_8  and  C_9 
REMARK    4  A    between atoms: C_9  and  C_10 
REMARK    5  A    between atoms: C_10  and  O_11 
REMARK    6  A    between atoms: N_12  and  C_13 
ROOT
HETATM    1  C   UNL     1     -41.509  55.757 -53.861  1.00  0.00     0.256 C 
HETATM    2  N   UNL     1     -41.821  54.623 -52.982  1.00  0.00    -0.254 N 
HETATM    3  C   UNL     1     -42.957  54.761 -52.178  1.00  0.00     0.330 C 
HETATM    4  O   UNL     1     -43.582  53.853 -51.634  1.00  0.00    -0.246 OA
HETATM    5  N   UNL     1     -43.330  56.055 -51.877  1.00  0.00    -0.308 N 
HETATM    6  C   UNL     1     -42.533  57.171 -52.132  1.00  0.00     0.048 A 
HETATM    7  C   UNL     1     -41.505  57.042 -53.064  1.00  0.00     0.034 A 
HETATM    8  C   UNL     1     -42.736  58.365 -51.445  1.00  0.00     0.030 A 
HETATM    9  C   UNL     1     -41.864  59.433 -51.663  1.00  0.00     0.002 A 
HETATM   10  C   UNL     1     -40.806  59.303 -52.563  1.00  0.00     0.001 A 
HETATM   11  C   UNL     1     -40.626  58.113 -53.270  1.00  0.00     0.015 A 
HETATM   12  H   UNL     1     -44.075  56.114 -51.193  1.00  0.00     0.170 HD
ENDROOT
BRANCH   1  13
HETATM   13  C   UNL     1     -42.598  55.795 -55.028  1.00  0.00     0.279 C 
HETATM   14  N   UNL     1     -42.121  55.749 -56.324  1.00  0.00    -0.352 N 
HETATM   15  H   UNL     1     -41.136  55.584 -56.492  1.00  0.00     0.162 HD
HETATM   16  O   UNL     1     -43.810  55.763 -54.796  1.00  0.00    -0.268 OA
BRANCH  14  17
HETATM   17  C   UNL     1     -43.006  55.732 -57.465  1.00  0.00     0.161 C 
BRANCH  17  18
HETATM   18  C   UNL     1     -43.023  57.068 -58.163  1.00  0.00    -0.040 A 
HETATM   19  C   UNL     1     -43.993  57.359 -59.130  1.00  0.00     0.011 A 
HETATM   20  C   UNL     1     -44.030  58.617 -59.738  1.00  0.00     0.037 A 
HETATM   21  C   UNL     1     -43.111  59.608 -59.388  1.00  0.00     0.068 A 
HETATM   22  C   UNL     1     -42.136  59.324 -58.433  1.00  0.00     0.037 A 
HETATM   23  C   UNL     1     -42.097  58.065 -57.821  1.00  0.00     0.011 A 
BRANCH  21  24
HETATM   24  O   UNL     1     -43.268  60.796 -60.047  1.00  0.00    -0.356 OA
HETATM   25  C   UNL     1     -44.441  61.542 -59.750  1.00  0.00     0.210 C 
ENDBRANCH  21  24
ENDBRANCH  17  18
ENDBRANCH  14  17
ENDBRANCH   1  13
BRANCH   1  26
HETATM   26  O   UNL     1     -40.255  55.612 -54.535  1.00  0.00    -0.359 OA
HETATM   27  H   UNL     1     -39.641  56.171 -54.024  1.00  0.00     0.213 HD
ENDBRANCH   1  26
BRANCH   2  28
HETATM   28  C   UNL     1     -41.157  53.365 -53.096  1.00  0.00     0.043 A 
HETATM   29  C   UNL     1     -40.245  52.926 -52.127  1.00  0.00     0.031 A 
HETATM   30  C   UNL     1     -39.558  51.715 -52.281  1.00  0.00     0.026 A 
HETATM   31  C   UNL     1     -39.769  50.939 -53.415  1.00  0.00     0.034 A 
HETATM   32 CL   UNL     1     -38.917  49.458 -53.614  1.00  0.00    -0.084 Cl
HETATM   33  C   UNL     1     -40.661  51.361 -54.396  1.00  0.00     0.026 A 
HETATM   34  C   UNL     1     -41.345  52.571 -54.238  1.00  0.00     0.031 A 
ENDBRANCH   2  28
TORSDOF 6
ENDMDL
MODEL 7
REMARK VINA RESULT:      -8.2      2.729      3.716
REMARK  6 active torsions:
REMARK  status: ('A' for Active; 'I' for Inactive)
REMARK    1  A    between atoms: O_2  and  C_3 
REMARK    2  A    between atoms: C_6  and  C_7 
REMARK    3  A    between atoms: C_7  and  N_8 
REMARK       I    between atoms: N_8  and  C_9 
REMARK    4  A    between atoms: C_9  and  C_10 
REMARK    5  A    between atoms: C_10  and  O_11 
REMARK    6  A    between atoms: N_12  and  C_13 
ROOT
HETATM    1  C   UNL     1     -43.438  56.554 -54.755  1.00  0.00     0.256 C 
HETATM    2  N   UNL     1     -43.405  57.779 -55.565  1.00  0.00    -0.254 N 
HETATM    3  C   UNL     1     -42.214  58.511 -55.526  1.00  0.00     0.330 C 
HETATM    4  O   UNL     1     -41.844  59.350 -56.345  1.00  0.00    -0.246 OA
HETATM    5  N   UNL     1     -41.446  58.354 -54.390  1.00  0.00    -0.308 N 
HETATM    6  C   UNL     1     -41.891  57.711 -53.236  1.00  0.00     0.048 A 
HETATM    7  C   UNL     1     -42.988  56.858 -53.344  1.00  0.00     0.034 A 
HETATM    8  C   UNL     1     -41.282  57.947 -52.007  1.00  0.00     0.030 A 
HETATM    9  C   UNL     1     -41.810  57.354 -50.859  1.00  0.00     0.002 A 
HETATM   10  C   UNL     1     -42.932  56.530 -50.947  1.00  0.00     0.001 A 
HETATM   11  C   UNL     1     -43.521  56.274 -52.188  1.00  0.00     0.015 A 
HETATM   12  H   UNL     1     -40.661  58.993 -54.340  1.00  0.00     0.170 HD
ENDROOT
BRANCH   1  13
HETATM   13  C   UNL     1     -42.494  55.472 -55.451  1.00  0.00     0.279 C 
HETATM   14  N   UNL     1     -41.461  54.966 -54.684  1.00  0.00    -0.352 N 
HETATM   15  H   UNL     1     -41.401  55.202 -53.701  1.00  0.00     0.162 HD
HETATM   16  O   UNL     1     -42.725  55.027 -56.578  1.00  0.00    -0.268 OA
BRANCH  14  17
HETATM   17  C   UNL     1     -40.565  53.950 -55.183  1.00  0.00     0.161 C 
BRANCH  17  18
HETATM   18  C   UNL     1     -40.233  52.940 -54.114  1.00  0.00    -0.040 A 
HETATM   19  C   UNL     1     -40.278  53.289 -52.759  1.00  0.00     0.011 A 
HETATM   20  C   UNL     1     -40.015  52.334 -51.774  1.00  0.00     0.037 A 
HETATM   21  C   UNL     1     -39.713  51.015 -52.119  1.00  0.00     0.068 A 
HETATM   22  C   UNL     1     -39.658  50.660 -53.466  1.00  0.00     0.037 A 
HETATM   23  C   UNL     1     -39.922  51.614 -54.456  1.00  0.00     0.011 A 
BRANCH  21  24
HETATM   24  O   UNL     1     -39.492  50.180 -51.058  1.00  0.00    -0.356 OA
HETATM   25  C   UNL     1     -40.248  50.429 -49.880  1.00  0.00     0.210 C 
ENDBRANCH  21  24
ENDBRANCH  17  18
ENDBRANCH  14  17
ENDBRANCH   1  13
BRANCH   1  26
HETATM   26  O   UNL     1     -44.732  55.945 -54.720  1.00  0.00    -0.359 OA
HETATM   27  H   UNL     1     -45.303  56.613 -54.299  1.00  0.00     0.213 HD
ENDBRANCH   1  26
BRANCH   2  28
HETATM   28  C   UNL     1     -44.422  58.091 -56.516  1.00  0.00     0.043 A 
HETATM   29  C   UNL     1     -44.371  57.609 -57.830  1.00  0.00     0.031 A 
HETATM   30  C   UNL     1     -45.347  57.970 -58.768  1.00  0.00     0.026 A 
HETATM   31  C   UNL     1     -46.377  58.829 -58.401  1.00  0.00     0.034 A 
HETATM   32 CL   UNL     1     -47.569  59.285 -59.554  1.00  0.00    -0.084 Cl
HETATM   33  C   UNL     1     -46.441  59.329 -57.104  1.00  0.00     0.026 A 
HETATM   34  C   UNL     1     -45.465  58.965 -56.170  1.00  0.00     0.031 A 
ENDBRANCH   2  28
TORSDOF 6
ENDMDL
MODEL 8
REMARK VINA RESULT:      -8.0      2.348      3.127
REMARK  6 active torsions:
REMARK  status: ('A' for Active; 'I' for Inactive)
REMARK    1  A    between atoms: O_2  and  C_3 
REMARK    2  A    between atoms: C_6  and  C_7 
REMARK    3  A    between atoms: C_7  and  N_8 
REMARK       I    between atoms: N_8  and  C_9 
REMARK    4  A    between atoms: C_9  and  C_10 
REMARK    5  A    between atoms: C_10  and  O_11 
REMARK    6  A    between atoms: N_12  and  C_13 
ROOT
HETATM    1  C   UNL     1     -43.436  58.966 -54.874  1.00  0.00     0.256 C 
HETATM    2  N   UNL     1     -43.068  58.999 -56.295  1.00  0.00    -0.254 N 
HETATM    3  C   UNL     1     -42.167  59.999 -56.675  1.00  0.00     0.330 C 
HETATM    4  O   UNL     1     -41.480  60.015 -57.695  1.00  0.00    -0.246 OA
HETATM    5  N   UNL     1     -42.144  61.125 -55.879  1.00  0.00    -0.308 N 
HETATM    6  C   UNL     1     -43.095  61.400 -54.896  1.00  0.00     0.048 A 
HETATM    7  C   UNL     1     -43.870  60.343 -54.422  1.00  0.00     0.034 A 
HETATM    8  C   UNL     1     -43.290  62.699 -54.435  1.00  0.00     0.030 A 
HETATM    9  C   UNL     1     -44.310  62.949 -53.516  1.00  0.00     0.002 A 
HETATM   10  C   UNL     1     -45.119  61.907 -53.063  1.00  0.00     0.001 A 
HETATM   11  C   UNL     1     -44.899  60.602 -53.509  1.00  0.00     0.015 A 
HETATM   12  H   UNL     1     -41.577  61.876 -56.255  1.00  0.00     0.170 HD
ENDROOT
BRANCH   1  13
HETATM   13  C   UNL     1     -42.174  58.449 -54.045  1.00  0.00     0.279 C 
HETATM   14  N   UNL     1     -42.305  57.225 -53.415  1.00  0.00    -0.352 N 
HETATM   15  H   UNL     1     -43.127  56.658 -53.583  1.00  0.00     0.162 HD
HETATM   16  O   UNL     1     -41.097  59.051 -54.044  1.00  0.00    -0.268 OA
BRANCH  14  17
HETATM   17  C   UNL     1     -41.220  56.628 -52.672  1.00  0.00     0.161 C 
BRANCH  17  18
HETATM   18  C   UNL     1     -40.879  55.261 -53.207  1.00  0.00    -0.040 A 
HETATM   19  C   UNL     1     -40.948  54.131 -52.383  1.00  0.00     0.011 A 
HETATM   20  C   UNL     1     -40.674  52.862 -52.900  1.00  0.00     0.037 A 
HETATM   21  C   UNL     1     -40.339  52.694 -54.245  1.00  0.00     0.068 A 
HETATM   22  C   UNL     1     -40.260  53.814 -55.071  1.00  0.00     0.037 A 
HETATM   23  C   UNL     1     -40.534  55.087 -54.556  1.00  0.00     0.011 A 
BRANCH  21  24
HETATM   24  O   UNL     1     -40.112  51.399 -54.623  1.00  0.00    -0.356 OA
HETATM   25  C   UNL     1     -39.650  50.510 -53.615  1.00  0.00     0.210 C 
ENDBRANCH  21  24
ENDBRANCH  17  18
ENDBRANCH  14  17
ENDBRANCH   1  13
BRANCH   1  26
HETATM   26  O   UNL     1     -44.474  58.024 -54.589  1.00  0.00    -0.359 OA
HETATM   27  H   UNL     1     -44.346  57.801 -53.649  1.00  0.00     0.213 HD
ENDBRANCH   1  26
BRANCH   2  28
HETATM   28  C   UNL     1     -43.413  57.947 -57.196  1.00  0.00     0.043 A 
HETATM   29  C   UNL     1     -42.706  56.737 -57.215  1.00  0.00     0.031 A 
HETATM   30  C   UNL     1     -43.020  55.736 -58.144  1.00  0.00     0.026 A 
HETATM   31  C   UNL     1     -44.036  55.943 -59.069  1.00  0.00     0.034 A 
HETATM   32 CL   UNL     1     -44.415  54.720 -60.218  1.00  0.00    -0.084 Cl
HETATM   33  C   UNL     1     -44.743  57.141 -59.075  1.00  0.00     0.026 A 
HETATM   34  C   UNL     1     -44.428  58.139 -58.146  1.00  0.00     0.031 A 
ENDBRANCH   2  28
TORSDOF 6
ENDMDL
MODEL 9
REMARK VINA RESULT:      -7.9      2.716      5.704
REMARK  6 active torsions:
REMARK  status: ('A' for Active; 'I' for Inactive)
REMARK    1  A    between atoms: O_2  and  C_3 
REMARK    2  A    between atoms: C_6  and  C_7 
REMARK    3  A    between atoms: C_7  and  N_8 
REMARK       I    between atoms: N_8  and  C_9 
REMARK    4  A    between atoms: C_9  and  C_10 
REMARK    5  A    between atoms: C_10  and  O_11 
REMARK    6  A    between atoms: N_12  and  C_13 
ROOT
HETATM    1  C   UNL     1     -41.865  58.099 -53.011  1.00  0.00     0.256 C 
HETATM    2  N   UNL     1     -42.520  56.819 -53.310  1.00  0.00    -0.254 N 
HETATM    3  C   UNL     1     -43.867  56.888 -53.682  1.00  0.00     0.330 C 
HETATM    4  O   UNL     1     -44.505  56.024 -54.279  1.00  0.00    -0.246 OA
HETATM    5  N   UNL     1     -44.564  57.986 -53.222  1.00  0.00    -0.308 N 
HETATM    6  C   UNL     1     -44.075  58.869 -52.260  1.00  0.00     0.048 A 
HETATM    7  C   UNL     1     -42.701  58.888 -52.028  1.00  0.00     0.034 A 
HETATM    8  C   UNL     1     -44.940  59.675 -51.525  1.00  0.00     0.030 A 
HETATM    9  C   UNL     1     -44.423  60.481 -50.510  1.00  0.00     0.002 A 
HETATM   10  C   UNL     1     -43.054  60.480 -50.241  1.00  0.00     0.001 A 
HETATM   11  C   UNL     1     -42.189  59.690 -51.001  1.00  0.00     0.015 A 
HETATM   12  H   UNL     1     -45.560  57.938 -53.402  1.00  0.00     0.170 HD
ENDROOT
BRANCH   1  13
HETATM   13  C   UNL     1     -41.673  58.891 -54.383  1.00  0.00     0.279 C 
HETATM   14  N   UNL     1     -42.101  58.253 -55.533  1.00  0.00    -0.352 N 
HETATM   15  H   UNL     1     -42.609  57.381 -55.465  1.00  0.00     0.162 HD
HETATM   16  O   UNL     1     -41.261  60.053 -54.419  1.00  0.00    -0.268 OA
BRANCH  14  17
HETATM   17  C   UNL     1     -42.023  58.882 -56.830  1.00  0.00     0.161 C 
BRANCH  17  18
HETATM   18  C   UNL     1     -42.578  57.986 -57.908  1.00  0.00    -0.040 A 
HETATM   19  C   UNL     1     -42.644  58.418 -59.237  1.00  0.00     0.011 A 
HETATM   20  C   UNL     1     -43.117  57.563 -60.236  1.00  0.00     0.037 A 
HETATM   21  C   UNL     1     -43.522  56.262 -59.931  1.00  0.00     0.068 A 
HETATM   22  C   UNL     1     -43.468  55.825 -58.609  1.00  0.00     0.037 A 
HETATM   23  C   UNL     1     -42.994  56.679 -57.605  1.00  0.00     0.011 A 
BRANCH  21  24
HETATM   24  O   UNL     1     -43.948  55.527 -61.003  1.00  0.00    -0.356 OA
HETATM   25  C   UNL     1     -45.335  55.216 -61.055  1.00  0.00     0.210 C 
ENDBRANCH  21  24
ENDBRANCH  17  18
ENDBRANCH  14  17
ENDBRANCH   1  13
BRANCH   1  26
HETATM   26  O   UNL     1     -40.543  57.940 -52.490  1.00  0.00    -0.359 OA
HETATM   27  H   UNL     1     -40.677  57.741 -51.545  1.00  0.00     0.213 HD
ENDBRANCH   1  26
BRANCH   2  28
HETATM   28  C   UNL     1     -41.787  55.602 -53.445  1.00  0.00     0.043 A 
HETATM   29  C   UNL     1     -41.139  55.264 -54.641  1.00  0.00     0.031 A 
HETATM   30  C   UNL     1     -40.472  54.040 -54.777  1.00  0.00     0.026 A 
HETATM   31  C   UNL     1     -40.458  53.138 -53.720  1.00  0.00     0.034 A 
HETATM   32 CL   UNL     1     -39.650  51.628 -53.889  1.00  0.00    -0.084 Cl
HETATM   33  C   UNL     1     -41.104  53.447 -52.527  1.00  0.00     0.026 A 
HETATM   34  C   UNL     1     -41.769  54.671 -52.395  1.00  0.00     0.031 A 
ENDBRANCH   2  28
TORSDOF 6
ENDMDL
MODEL 10
REMARK VINA RESULT:      -7.9      2.511      3.828
REMARK  6 active torsions:
REMARK  status: ('A' for Active; 'I' for Inactive)
REMARK    1  A    between atoms: O_2  and  C_3 
REMARK    2  A    between atoms: C_6  and  C_7 
REMARK    3  A    between atoms: C_7  and  N_8 
REMARK       I    between atoms: N_8  and  C_9 
REMARK    4  A    between atoms: C_9  and  C_10 
REMARK    5  A    between atoms: C_10  and  O_11 
REMARK    6  A    between atoms: N_12  and  C_13 
ROOT
HETATM    1  C   UNL     1     -43.851  57.250 -55.161  1.00  0.00     0.256 C 
HETATM    2  N   UNL     1     -43.769  57.916 -56.467  1.00  0.00    -0.254 N 
HETATM    3  C   UNL     1     -42.658  58.741 -56.668  1.00  0.00     0.330 C 
HETATM    4  O   UNL     1     -42.216  59.120 -57.751  1.00  0.00    -0.246 OA
HETATM    5  N   UNL     1     -42.085  59.270 -55.530  1.00  0.00    -0.308 N 
HETATM    6  C   UNL     1     -42.672  59.211 -54.267  1.00  0.00     0.048 A 
HETATM    7  C   UNL     1     -43.670  58.262 -54.053  1.00  0.00     0.034 A 
HETATM    8  C   UNL     1     -42.299  60.101 -53.263  1.00  0.00     0.030 A 
HETATM    9  C   UNL     1     -42.970  60.070 -52.040  1.00  0.00     0.002 A 
HETATM   10  C   UNL     1     -43.998  59.152 -51.827  1.00  0.00     0.001 A 
HETATM   11  C   UNL     1     -44.348  58.243 -52.827  1.00  0.00     0.015 A 
HETATM   12  H   UNL     1     -41.367  59.960 -55.720  1.00  0.00     0.170 HD
ENDROOT
BRANCH   1  13
HETATM   13  C   UNL     1     -42.727  56.118 -55.109  1.00  0.00     0.279 C 
HETATM   14  N   UNL     1     -43.113  54.882 -54.625  1.00  0.00    -0.352 N 
HETATM   15  H   UNL     1     -44.089  54.700 -54.429  1.00  0.00     0.162 HD
HETATM   16  O   UNL     1     -41.596  56.294 -55.569  1.00  0.00    -0.268 OA
BRANCH  14  17
HETATM   17  C   UNL     1     -42.200  53.764 -54.569  1.00  0.00     0.161 C 
BRANCH  17  18
HETATM   18  C   UNL     1     -41.637  53.587 -53.182  1.00  0.00    -0.040 A 
HETATM   19  C   UNL     1     -42.284  54.138 -52.070  1.00  0.00     0.011 A 
HETATM   20  C   UNL     1     -41.779  53.929 -50.783  1.00  0.00     0.037 A 
HETATM   21  C   UNL     1     -40.631  53.160 -50.581  1.00  0.00     0.068 A 
HETATM   22  C   UNL     1     -39.975  52.615 -51.684  1.00  0.00     0.037 A 
HETATM   23  C   UNL     1     -40.478  52.822 -52.974  1.00  0.00     0.011 A 
BRANCH  21  24
HETATM   24  O   UNL     1     -40.255  53.022 -49.273  1.00  0.00    -0.356 OA
HETATM   25  C   UNL     1     -40.598  54.085 -48.393  1.00  0.00     0.210 C 
ENDBRANCH  21  24
ENDBRANCH  17  18
ENDBRANCH  14  17
ENDBRANCH   1  13
BRANCH   1  26
HETATM   26  O   UNL     1     -45.085  56.551 -54.968  1.00  0.00    -0.359 OA
HETATM   27  H   UNL     1     -45.157  56.449 -54.001  1.00  0.00     0.213 HD
ENDBRANCH   1  26
BRANCH   2  28
HETATM   28  C   UNL     1     -44.630  57.574 -57.552  1.00  0.00     0.043 A 
HETATM   29  C   UNL     1     -44.245  56.647 -58.530  1.00  0.00     0.031 A 
HETATM   30  C   UNL     1     -45.077  56.364 -59.620  1.00  0.00     0.026 A 
HETATM   31  C   UNL     1     -46.299  57.016 -59.748  1.00  0.00     0.034 A 
HETATM   32 CL   UNL     1     -47.317  56.680 -61.092  1.00  0.00    -0.084 Cl
HETATM   33  C   UNL     1     -46.696  57.949 -58.794  1.00  0.00     0.026 A 
HETATM   34  C   UNL     1     -45.862  58.228 -57.706  1.00  0.00     0.031 A 
ENDBRANCH   2  28
TORSDOF 6
ENDMDL
