MODEL 1
REMARK VINA RESULT:      -8.6      0.000      0.000
REMARK  8 active torsions:
REMARK  status: ('A' for Active; 'I' for Inactive)
REMARK    1  A    between atoms: C_2  and  O_3 
REMARK    2  A    between atoms: O_3  and  C_4 
REMARK    3  A    between atoms: C_5  and  O_6 
REMARK    4  A    between atoms: O_6  and  C_7 
REMARK    5  A    between atoms: C_7  and  C_8 
REMARK       I    between atoms: C_8  and  N_9 
REMARK    6  A    between atoms: C_13  and  C_14 
REMARK    7  A    between atoms: C_21  and  C_22 
REMARK       I    between atoms: C_22  and  N_23 
REMARK    8  A    between atoms: N_23  and  C_24 
ROOT
HETATM    1  C   UNL     1     -43.790  56.839 -53.822  1.00  0.00     0.160 C 
HETATM    2  N   UNL     1     -44.546  58.065 -53.661  1.00  0.00    -0.330 N 
HETATM    3  C   UNL     1     -44.614  58.754 -52.495  1.00  0.00     0.321 C 
HETATM    4  O   UNL     1     -45.479  59.599 -52.294  1.00  0.00    -0.247 OA
HETATM    5  N   UNL     1     -43.644  58.474 -51.582  1.00  0.00    -0.312 N 
HETATM    6  C   UNL     1     -42.606  57.589 -51.772  1.00  0.00     0.024 C 
HETATM    7  C   UNL     1     -41.574  57.572 -50.677  1.00  0.00     0.069 C 
HETATM    8  C   UNL     1     -42.623  56.803 -52.870  1.00  0.00     0.059 C 
HETATM    9  H   UNL     1     -45.292  58.274 -54.309  1.00  0.00     0.165 HD
HETATM   10  H   UNL     1     -43.666  59.059 -50.754  1.00  0.00     0.170 HD
ENDROOT
BRANCH   1  11
HETATM   11  C   UNL     1     -43.550  56.621 -55.308  1.00  0.00    -0.028 A 
HETATM   12  C   UNL     1     -43.004  55.393 -55.725  1.00  0.00     0.012 A 
HETATM   13  C   UNL     1     -42.880  55.076 -57.081  1.00  0.00     0.040 A 
HETATM   14  C   UNL     1     -43.279  55.989 -58.058  1.00  0.00     0.102 A 
HETATM   15  C   UNL     1     -43.779  57.236 -57.657  1.00  0.00     0.102 A 
HETATM   16  C   UNL     1     -43.950  57.532 -56.295  1.00  0.00     0.049 A 
BRANCH  14  17
HETATM   17  O   UNL     1     -43.308  55.693 -59.395  1.00  0.00    -0.339 OA
BRANCH  17  18
HETATM   18  C   UNL     1     -44.315  54.780 -59.822  1.00  0.00     0.278 C 
BRANCH  18  19
HETATM   19  C   UNL     1     -44.996  55.318 -61.076  1.00  0.00     0.239 C 
HETATM   20  N   UNL     1     -45.627  56.521 -60.935  1.00  0.00    -0.368 N 
HETATM   21  H   UNL     1     -45.446  57.092 -60.116  1.00  0.00     0.159 HD
HETATM   22  H   UNL     1     -46.041  56.947 -61.753  1.00  0.00     0.159 HD
HETATM   23  O   UNL     1     -45.037  54.703 -62.137  1.00  0.00    -0.271 OA
ENDBRANCH  18  19
ENDBRANCH  17  18
ENDBRANCH  14  17
BRANCH  15  24
HETATM   24  O   UNL     1     -44.219  58.199 -58.533  1.00  0.00    -0.349 OA
BRANCH  24  25
HETATM   25  C   UNL     1     -43.489  59.432 -58.490  1.00  0.00     0.171 C 
HETATM   26  C   UNL     1     -42.127  59.308 -59.149  1.00  0.00     0.034 C 
ENDBRANCH  24  25
ENDBRANCH  15  24
ENDBRANCH   1  11
BRANCH   8  27
HETATM   27  C   UNL     1     -41.485  55.868 -53.106  1.00  0.00     0.256 C 
HETATM   28  N   UNL     1     -41.726  54.591 -52.655  1.00  0.00    -0.323 N 
HETATM   29  H   UNL     1     -42.554  54.482 -52.088  1.00  0.00     0.169 HD
HETATM   30  O   UNL     1     -40.455  56.311 -53.594  1.00  0.00    -0.267 OA
BRANCH  28  31
HETATM   31  C   UNL     1     -40.909  53.432 -52.707  1.00  0.00     0.041 A 
HETATM   32  C   UNL     1     -40.099  52.895 -51.689  1.00  0.00    -0.035 A 
HETATM   33  C   UNL     1     -39.883  53.496 -50.330  1.00  0.00     0.050 C 
HETATM   34  C   UNL     1     -39.401  51.690 -51.936  1.00  0.00     0.009 A 
HETATM   35  C   UNL     1     -39.453  51.052 -53.173  1.00  0.00     0.001 A 
HETATM   36  C   UNL     1     -40.208  51.607 -54.193  1.00  0.00     0.002 A 
HETATM   37  C   UNL     1     -40.923  52.783 -53.960  1.00  0.00     0.030 A 
ENDBRANCH  28  31
ENDBRANCH   8  27
TORSDOF 8
ENDMDL
MODEL 2
REMARK VINA RESULT:      -8.6      1.570      1.649
REMARK  8 active torsions:
REMARK  status: ('A' for Active; 'I' for Inactive)
REMARK    1  A    between atoms: C_2  and  O_3 
REMARK    2  A    between atoms: O_3  and  C_4 
REMARK    3  A    between atoms: C_5  and  O_6 
REMARK    4  A    between atoms: O_6  and  C_7 
REMARK    5  A    between atoms: C_7  and  C_8 
REMARK       I    between atoms: C_8  and  N_9 
REMARK    6  A    between atoms: C_13  and  C_14 
REMARK    7  A    between atoms: C_21  and  C_22 
REMARK       I    between atoms: C_22  and  N_23 
REMARK    8  A    between atoms: N_23  and  C_24 
ROOT
HETATM    1  C   UNL     1     -43.088  57.002 -53.090  1.00  0.00     0.160 C 
HETATM    2  N   UNL     1     -42.741  58.404 -52.962  1.00  0.00    -0.330 N 
HETATM    3  C   UNL     1     -42.420  58.990 -51.783  1.00  0.00     0.321 C 
HETATM    4  O   UNL     1     -42.427  60.208 -51.646  1.00  0.00    -0.247 OA
HETATM    5  N   UNL     1     -42.057  58.147 -50.779  1.00  0.00    -0.312 N 
HETATM    6  C   UNL     1     -41.962  56.777 -50.888  1.00  0.00     0.024 C 
HETATM    7  C   UNL     1     -41.387  56.080 -49.684  1.00  0.00     0.069 C 
HETATM    8  C   UNL     1     -42.418  56.187 -52.014  1.00  0.00     0.059 C 
HETATM    9  H   UNL     1     -43.031  59.051 -53.682  1.00  0.00     0.165 HD
HETATM   10  H   UNL     1     -41.742  58.611 -49.934  1.00  0.00     0.170 HD
ENDROOT
BRANCH   1  11
HETATM   11  C   UNL     1     -42.917  56.601 -54.546  1.00  0.00    -0.028 A 
HETATM   12  C   UNL     1     -43.338  55.318 -54.941  1.00  0.00     0.012 A 
HETATM   13  C   UNL     1     -43.331  54.932 -56.285  1.00  0.00     0.040 A 
HETATM   14  C   UNL     1     -42.883  55.814 -57.269  1.00  0.00     0.102 A 
HETATM   15  C   UNL     1     -42.415  57.078 -56.885  1.00  0.00     0.102 A 
HETATM   16  C   UNL     1     -42.470  57.481 -55.541  1.00  0.00     0.049 A 
BRANCH  14  17
HETATM   17  O   UNL     1     -42.973  55.550 -58.610  1.00  0.00    -0.339 OA
BRANCH  17  18
HETATM   18  C   UNL     1     -44.189  55.925 -59.252  1.00  0.00     0.278 C 
BRANCH  18  19
HETATM   19  C   UNL     1     -44.677  54.782 -60.135  1.00  0.00     0.239 C 
HETATM   20  N   UNL     1     -44.974  53.618 -59.484  1.00  0.00    -0.368 N 
HETATM   21  H   UNL     1     -45.072  53.617 -58.474  1.00  0.00     0.159 HD
HETATM   22  H   UNL     1     -45.359  52.852 -60.019  1.00  0.00     0.159 HD
HETATM   23  O   UNL     1     -44.752  54.859 -61.357  1.00  0.00    -0.271 OA
ENDBRANCH  18  19
ENDBRANCH  17  18
ENDBRANCH  14  17
BRANCH  15  24
HETATM   24  O   UNL     1     -41.972  58.029 -57.772  1.00  0.00    -0.349 OA
BRANCH  24  25
HETATM   25  C   UNL     1     -42.525  59.338 -57.580  1.00  0.00     0.171 C 
HETATM   26  C   UNL     1     -43.251  59.833 -58.817  1.00  0.00     0.034 C 
ENDBRANCH  24  25
ENDBRANCH  15  24
ENDBRANCH   1  11
BRANCH   8  27
HETATM   27  C   UNL     1     -42.285  54.709 -52.158  1.00  0.00     0.256 C 
HETATM   28  N   UNL     1     -41.032  54.311 -52.564  1.00  0.00    -0.323 N 
HETATM   29  H   UNL     1     -40.419  55.055 -52.866  1.00  0.00     0.169 HD
HETATM   30  O   UNL     1     -43.274  54.012 -51.979  1.00  0.00    -0.267 OA
BRANCH  28  31
HETATM   31  C   UNL     1     -40.515  53.011 -52.798  1.00  0.00     0.041 A 
HETATM   32  C   UNL     1     -40.094  52.061 -51.848  1.00  0.00    -0.035 A 
HETATM   33  C   UNL     1     -40.047  52.267 -50.363  1.00  0.00     0.050 C 
HETATM   34  C   UNL     1     -39.657  50.793 -52.299  1.00  0.00     0.009 A 
HETATM   35  C   UNL     1     -39.585  50.480 -53.653  1.00  0.00     0.001 A 
HETATM   36  C   UNL     1     -39.948  51.432 -54.591  1.00  0.00     0.002 A 
HETATM   37  C   UNL     1     -40.405  52.681 -54.166  1.00  0.00     0.030 A 
ENDBRANCH  28  31
ENDBRANCH   8  27
TORSDOF 8
ENDMDL
MODEL 3
REMARK VINA RESULT:      -8.5      2.627      7.464
REMARK  8 active torsions:
REMARK  status: ('A' for Active; 'I' for Inactive)
REMARK    1  A    between atoms: C_2  and  O_3 
REMARK    2  A    between atoms: O_3  and  C_4 
REMARK    3  A    between atoms: C_5  and  O_6 
REMARK    4  A    between atoms: O_6  and  C_7 
REMARK    5  A    between atoms: C_7  and  C_8 
REMARK       I    between atoms: C_8  and  N_9 
REMARK    6  A    between atoms: C_13  and  C_14 
REMARK    7  A    between atoms: C_21  and  C_22 
REMARK       I    between atoms: C_22  and  N_23 
REMARK    8  A    between atoms: N_23  and  C_24 
ROOT
HETATM    1  C   UNL     1     -43.186  55.667 -55.936  1.00  0.00     0.160 C 
HETATM    2  N   UNL     1     -42.706  55.366 -57.271  1.00  0.00    -0.330 N 
HETATM    3  C   UNL     1     -42.903  56.179 -58.337  1.00  0.00     0.321 C 
HETATM    4  O   UNL     1     -42.762  55.780 -59.487  1.00  0.00    -0.247 OA
HETATM    5  N   UNL     1     -43.228  57.469 -58.050  1.00  0.00    -0.312 N 
HETATM    6  C   UNL     1     -43.334  57.997 -56.781  1.00  0.00     0.024 C 
HETATM    7  C   UNL     1     -43.550  59.486 -56.728  1.00  0.00     0.069 C 
HETATM    8  C   UNL     1     -43.280  57.156 -55.727  1.00  0.00     0.059 C 
HETATM    9  H   UNL     1     -42.490  54.409 -57.513  1.00  0.00     0.165 HD
HETATM   10  H   UNL     1     -43.289  58.077 -58.859  1.00  0.00     0.170 HD
ENDROOT
BRANCH   1  11
HETATM   11  C   UNL     1     -42.401  54.821 -54.947  1.00  0.00    -0.028 A 
HETATM   12  C   UNL     1     -41.095  54.426 -55.292  1.00  0.00     0.012 A 
HETATM   13  C   UNL     1     -40.271  53.761 -54.379  1.00  0.00     0.040 A 
HETATM   14  C   UNL     1     -40.739  53.455 -53.101  1.00  0.00     0.102 A 
HETATM   15  C   UNL     1     -42.054  53.799 -52.759  1.00  0.00     0.102 A 
HETATM   16  C   UNL     1     -42.862  54.511 -53.660  1.00  0.00     0.049 A 
BRANCH  14  17
HETATM   17  O   UNL     1     -39.945  52.926 -52.118  1.00  0.00    -0.339 OA
BRANCH  17  18
HETATM   18  C   UNL     1     -39.496  51.588 -52.315  1.00  0.00     0.278 C 
BRANCH  18  19
HETATM   19  C   UNL     1     -39.746  50.773 -51.050  1.00  0.00     0.239 C 
HETATM   20  N   UNL     1     -39.301  49.481 -51.082  1.00  0.00    -0.368 N 
HETATM   21  H   UNL     1     -38.660  49.187 -51.812  1.00  0.00     0.159 HD
HETATM   22  H   UNL     1     -39.390  48.921 -50.246  1.00  0.00     0.159 HD
HETATM   23  O   UNL     1     -40.354  51.208 -50.077  1.00  0.00    -0.271 OA
ENDBRANCH  18  19
ENDBRANCH  17  18
ENDBRANCH  14  17
BRANCH  15  24
HETATM   24  O   UNL     1     -42.608  53.563 -51.524  1.00  0.00    -0.349 OA
BRANCH  24  25
HETATM   25  C   UNL     1     -42.681  54.710 -50.667  1.00  0.00     0.171 C 
HETATM   26  C   UNL     1     -41.620  54.673 -49.581  1.00  0.00     0.034 C 
ENDBRANCH  24  25
ENDBRANCH  15  24
ENDBRANCH   1  11
BRANCH   8  27
HETATM   27  C   UNL     1     -43.355  57.721 -54.349  1.00  0.00     0.256 C 
HETATM   28  N   UNL     1     -42.130  58.098 -53.847  1.00  0.00    -0.323 N 
HETATM   29  H   UNL     1     -41.331  57.804 -54.390  1.00  0.00     0.169 HD
HETATM   30  O   UNL     1     -44.437  57.739 -53.781  1.00  0.00    -0.267 OA
BRANCH  28  31
HETATM   31  C   UNL     1     -41.792  58.681 -52.598  1.00  0.00     0.041 A 
HETATM   32  C   UNL     1     -42.113  59.968 -52.126  1.00  0.00    -0.035 A 
HETATM   33  C   UNL     1     -42.840  61.030 -52.898  1.00  0.00     0.050 C 
HETATM   34  C   UNL     1     -41.719  60.332 -50.817  1.00  0.00     0.009 A 
HETATM   35  C   UNL     1     -40.982  59.473 -50.006  1.00  0.00     0.001 A 
HETATM   36  C   UNL     1     -40.620  58.226 -50.489  1.00  0.00     0.002 A 
HETATM   37  C   UNL     1     -41.020  57.839 -51.769  1.00  0.00     0.030 A 
ENDBRANCH  28  31
ENDBRANCH   8  27
TORSDOF 8
ENDMDL
MODEL 4
REMARK VINA RESULT:      -8.4      2.764      7.572
REMARK  8 active torsions:
REMARK  status: ('A' for Active; 'I' for Inactive)
REMARK    1  A    between atoms: C_2  and  O_3 
REMARK    2  A    between atoms: O_3  and  C_4 
REMARK    3  A    between atoms: C_5  and  O_6 
REMARK    4  A    between atoms: O_6  and  C_7 
REMARK    5  A    between atoms: C_7  and  C_8 
REMARK       I    between atoms: C_8  and  N_9 
REMARK    6  A    between atoms: C_13  and  C_14 
REMARK    7  A    between atoms: C_21  and  C_22 
REMARK       I    between atoms: C_22  and  N_23 
REMARK    8  A    between atoms: N_23  and  C_24 
ROOT
HETATM    1  C   UNL     1     -41.117  57.301 -53.961  1.00  0.00     0.160 C 
HETATM    2  N   UNL     1     -40.577  57.916 -52.764  1.00  0.00    -0.330 N 
HETATM    3  C   UNL     1     -40.819  59.201 -52.409  1.00  0.00     0.321 C 
HETATM    4  O   UNL     1     -40.128  59.782 -51.580  1.00  0.00    -0.247 OA
HETATM    5  N   UNL     1     -41.894  59.790 -53.001  1.00  0.00    -0.312 N 
HETATM    6  C   UNL     1     -42.749  59.172 -53.887  1.00  0.00     0.024 C 
HETATM    7  C   UNL     1     -43.953  59.984 -54.282  1.00  0.00     0.069 C 
HETATM    8  C   UNL     1     -42.424  57.944 -54.347  1.00  0.00     0.059 C 
HETATM    9  H   UNL     1     -39.759  57.512 -52.328  1.00  0.00     0.165 HD
HETATM   10  H   UNL     1     -42.104  60.721 -52.659  1.00  0.00     0.170 HD
ENDROOT
BRANCH   1  11
HETATM   11  C   UNL     1     -41.048  55.792 -53.793  1.00  0.00    -0.028 A 
HETATM   12  C   UNL     1     -40.502  55.026 -54.840  1.00  0.00     0.012 A 
HETATM   13  C   UNL     1     -40.287  53.652 -54.700  1.00  0.00     0.040 A 
HETATM   14  C   UNL     1     -40.634  53.002 -53.514  1.00  0.00     0.102 A 
HETATM   15  C   UNL     1     -41.223  53.743 -52.481  1.00  0.00     0.102 A 
HETATM   16  C   UNL     1     -41.391  55.132 -52.605  1.00  0.00     0.049 A 
BRANCH  14  17
HETATM   17  O   UNL     1     -40.331  51.690 -53.262  1.00  0.00    -0.339 OA
BRANCH  17  18
HETATM   18  C   UNL     1     -39.234  51.448 -52.385  1.00  0.00     0.278 C 
BRANCH  18  19
HETATM   19  C   UNL     1     -39.557  50.267 -51.475  1.00  0.00     0.239 C 
HETATM   20  N   UNL     1     -39.399  49.030 -52.034  1.00  0.00    -0.368 N 
HETATM   21  H   UNL     1     -38.890  48.933 -52.907  1.00  0.00     0.159 HD
HETATM   22  H   UNL     1     -39.543  48.217 -51.452  1.00  0.00     0.159 HD
HETATM   23  O   UNL     1     -39.986  50.394 -50.332  1.00  0.00    -0.271 OA
ENDBRANCH  18  19
ENDBRANCH  17  18
ENDBRANCH  14  17
BRANCH  15  24
HETATM   24  O   UNL     1     -41.583  53.208 -51.268  1.00  0.00    -0.349 OA
BRANCH  24  25
HETATM   25  C   UNL     1     -41.404  54.083 -50.146  1.00  0.00     0.171 C 
HETATM   26  C   UNL     1     -40.062  53.869 -49.470  1.00  0.00     0.034 C 
ENDBRANCH  24  25
ENDBRANCH  15  24
ENDBRANCH   1  11
BRANCH   8  27
HETATM   27  C   UNL     1     -43.362  57.251 -55.276  1.00  0.00     0.256 C 
HETATM   28  N   UNL     1     -43.096  57.497 -56.603  1.00  0.00    -0.323 N 
HETATM   29  H   UNL     1     -42.421  58.226 -56.781  1.00  0.00     0.169 HD
HETATM   30  O   UNL     1     -44.287  56.607 -54.801  1.00  0.00    -0.267 OA
BRANCH  28  31
HETATM   31  C   UNL     1     -43.744  57.016 -57.771  1.00  0.00     0.041 A 
HETATM   32  C   UNL     1     -44.950  57.465 -58.341  1.00  0.00    -0.035 A 
HETATM   33  C   UNL     1     -45.847  58.526 -57.774  1.00  0.00     0.050 C 
HETATM   34  C   UNL     1     -45.393  56.878 -59.549  1.00  0.00     0.009 A 
HETATM   35  C   UNL     1     -44.698  55.837 -60.158  1.00  0.00     0.001 A 
HETATM   36  C   UNL     1     -43.539  55.358 -59.570  1.00  0.00     0.002 A 
HETATM   37  C   UNL     1     -43.072  55.941 -58.391  1.00  0.00     0.030 A 
ENDBRANCH  28  31
ENDBRANCH   8  27
TORSDOF 8
ENDMDL
MODEL 5
REMARK VINA RESULT:      -8.0      1.793      2.504
REMARK  8 active torsions:
REMARK  status: ('A' for Active; 'I' for Inactive)
REMARK    1  A    between atoms: C_2  and  O_3 
REMARK    2  A    between atoms: O_3  and  C_4 
REMARK    3  A    between atoms: C_5  and  O_6 
REMARK    4  A    between atoms: O_6  and  C_7 
REMARK    5  A    between atoms: C_7  and  C_8 
REMARK       I    between atoms: C_8  and  N_9 
REMARK    6  A    between atoms: C_13  and  C_14 
REMARK    7  A    between atoms: C_21  and  C_22 
REMARK       I    between atoms: C_22  and  N_23 
REMARK    8  A    between atoms: N_23  and  C_24 
ROOT
HETATM    1  C   UNL     1     -43.213  57.960 -52.525  1.00  0.00     0.160 C 
HETATM    2  N   UNL     1     -42.790  59.307 -52.196  1.00  0.00    -0.330 N 
HETATM    3  C   UNL     1     -42.229  59.646 -51.009  1.00  0.00     0.321 C 
HETATM    4  O   UNL     1     -42.159  60.812 -50.638  1.00  0.00    -0.247 OA
HETATM    5  N   UNL     1     -41.719  58.618 -50.277  1.00  0.00    -0.312 N 
HETATM    6  C   UNL     1     -41.703  57.296 -50.668  1.00  0.00     0.024 C 
HETATM    7  C   UNL     1     -40.942  56.372 -49.756  1.00  0.00     0.069 C 
HETATM    8  C   UNL     1     -42.387  56.945 -51.778  1.00  0.00     0.059 C 
HETATM    9  H   UNL     1     -43.183  60.086 -52.706  1.00  0.00     0.165 HD
HETATM   10  H   UNL     1     -41.232  58.904 -49.435  1.00  0.00     0.170 HD
ENDROOT
BRANCH   1  11
HETATM   11  C   UNL     1     -43.335  57.856 -54.037  1.00  0.00    -0.028 A 
HETATM   12  C   UNL     1     -42.181  57.554 -54.783  1.00  0.00     0.012 A 
HETATM   13  C   UNL     1     -42.246  57.315 -56.158  1.00  0.00     0.040 A 
HETATM   14  C   UNL     1     -43.466  57.393 -56.830  1.00  0.00     0.102 A 
HETATM   15  C   UNL     1     -44.617  57.741 -56.109  1.00  0.00     0.102 A 
HETATM   16  C   UNL     1     -44.557  57.931 -54.719  1.00  0.00     0.049 A 
BRANCH  14  17
HETATM   17  O   UNL     1     -43.623  57.043 -58.145  1.00  0.00    -0.339 OA
BRANCH  17  18
HETATM   18  C   UNL     1     -43.363  55.682 -58.476  1.00  0.00     0.278 C 
BRANCH  18  19
HETATM   19  C   UNL     1     -43.983  55.357 -59.832  1.00  0.00     0.239 C 
HETATM   20  N   UNL     1     -44.581  54.133 -59.929  1.00  0.00    -0.368 N 
HETATM   21  H   UNL     1     -44.782  53.602 -59.088  1.00  0.00     0.159 HD
HETATM   22  H   UNL     1     -45.059  53.897 -60.788  1.00  0.00     0.159 HD
HETATM   23  O   UNL     1     -43.911  56.105 -60.802  1.00  0.00    -0.271 OA
ENDBRANCH  18  19
ENDBRANCH  17  18
ENDBRANCH  14  17
BRANCH  15  24
HETATM   24  O   UNL     1     -45.870  57.826 -56.666  1.00  0.00    -0.349 OA
BRANCH  24  25
HETATM   25  C   UNL     1     -46.234  59.130 -57.135  1.00  0.00     0.171 C 
HETATM   26  C   UNL     1     -47.191  59.062 -58.312  1.00  0.00     0.034 C 
ENDBRANCH  24  25
ENDBRANCH  15  24
ENDBRANCH   1  11
BRANCH   8  27
HETATM   27  C   UNL     1     -42.345  55.525 -52.231  1.00  0.00     0.256 C 
HETATM   28  N   UNL     1     -41.068  55.058 -52.446  1.00  0.00    -0.323 N 
HETATM   29  H   UNL     1     -40.343  55.761 -52.431  1.00  0.00     0.169 HD
HETATM   30  O   UNL     1     -43.402  54.942 -52.430  1.00  0.00    -0.267 OA
BRANCH  28  31
HETATM   31  C   UNL     1     -40.619  53.778 -52.861  1.00  0.00     0.041 A 
HETATM   32  C   UNL     1     -40.545  53.267 -54.171  1.00  0.00    -0.035 A 
HETATM   33  C   UNL     1     -41.002  53.972 -55.414  1.00  0.00     0.050 C 
HETATM   34  C   UNL     1     -40.011  51.972 -54.368  1.00  0.00     0.009 A 
HETATM   35  C   UNL     1     -39.606  51.174 -53.302  1.00  0.00     0.001 A 
HETATM   36  C   UNL     1     -39.727  51.655 -52.009  1.00  0.00     0.002 A 
HETATM   37  C   UNL     1     -40.229  52.940 -51.794  1.00  0.00     0.030 A 
ENDBRANCH  28  31
ENDBRANCH   8  27
TORSDOF 8
ENDMDL
MODEL 6
REMARK VINA RESULT:      -7.8      3.002      7.755
REMARK  8 active torsions:
REMARK  status: ('A' for Active; 'I' for Inactive)
REMARK    1  A    between atoms: C_2  and  O_3 
REMARK    2  A    between atoms: O_3  and  C_4 
REMARK    3  A    between atoms: C_5  and  O_6 
REMARK    4  A    between atoms: O_6  and  C_7 
REMARK    5  A    between atoms: C_7  and  C_8 
REMARK       I    between atoms: C_8  and  N_9 
REMARK    6  A    between atoms: C_13  and  C_14 
REMARK    7  A    between atoms: C_21  and  C_22 
REMARK       I    between atoms: C_22  and  N_23 
REMARK    8  A    between atoms: N_23  and  C_24 
ROOT
HETATM    1  C   UNL     1     -42.514  55.114 -51.586  1.00  0.00     0.160 C 
HETATM    2  N   UNL     1     -41.382  54.900 -50.706  1.00  0.00    -0.330 N 
HETATM    3  C   UNL     1     -40.585  53.805 -50.766  1.00  0.00     0.321 C 
HETATM    4  O   UNL     1     -39.839  53.499 -49.843  1.00  0.00    -0.247 OA
HETATM    5  N   UNL     1     -40.639  53.093 -51.924  1.00  0.00    -0.312 N 
HETATM    6  C   UNL     1     -41.402  53.422 -53.023  1.00  0.00     0.024 C 
HETATM    7  C   UNL     1     -41.170  52.566 -54.239  1.00  0.00     0.069 C 
HETATM    8  C   UNL     1     -42.299  54.425 -52.908  1.00  0.00     0.059 C 
HETATM    9  H   UNL     1     -41.341  55.395 -49.826  1.00  0.00     0.165 HD
HETATM   10  H   UNL     1     -39.975  52.329 -51.978  1.00  0.00     0.170 HD
ENDROOT
BRANCH   1  11
HETATM   11  C   UNL     1     -42.860  56.595 -51.563  1.00  0.00    -0.028 A 
HETATM   12  C   UNL     1     -44.214  56.965 -51.468  1.00  0.00     0.012 A 
HETATM   13  C   UNL     1     -44.594  58.301 -51.310  1.00  0.00     0.040 A 
HETATM   14  C   UNL     1     -43.628  59.307 -51.264  1.00  0.00     0.102 A 
HETATM   15  C   UNL     1     -42.277  58.958 -51.405  1.00  0.00     0.102 A 
HETATM   16  C   UNL     1     -41.896  57.611 -51.513  1.00  0.00     0.049 A 
BRANCH  14  17
HETATM   17  O   UNL     1     -43.920  60.615 -50.980  1.00  0.00    -0.339 OA
BRANCH  17  18
HETATM   18  C   UNL     1     -43.855  60.998 -49.609  1.00  0.00     0.278 C 
BRANCH  18  19
HETATM   19  C   UNL     1     -45.253  60.960 -48.999  1.00  0.00     0.239 C 
HETATM   20  N   UNL     1     -45.313  60.603 -47.682  1.00  0.00    -0.368 N 
HETATM   21  H   UNL     1     -44.466  60.592 -47.124  1.00  0.00     0.159 HD
HETATM   22  H   UNL     1     -46.211  60.622 -47.219  1.00  0.00     0.159 HD
HETATM   23  O   UNL     1     -46.274  61.177 -49.644  1.00  0.00    -0.271 OA
ENDBRANCH  18  19
ENDBRANCH  17  18
ENDBRANCH  14  17
BRANCH  15  24
HETATM   24  O   UNL     1     -41.246  59.865 -51.354  1.00  0.00    -0.349 OA
BRANCH  24  25
HETATM   25  C   UNL     1     -40.367  59.715 -50.232  1.00  0.00     0.171 C 
HETATM   26  C   UNL     1     -38.929  59.491 -50.666  1.00  0.00     0.034 C 
ENDBRANCH  24  25
ENDBRANCH  15  24
ENDBRANCH   1  11
BRANCH   8  27
HETATM   27  C   UNL     1     -43.103  54.814 -54.103  1.00  0.00     0.256 C 
HETATM   28  N   UNL     1     -42.501  55.782 -54.874  1.00  0.00    -0.323 N 
HETATM   29  H   UNL     1     -41.688  56.218 -54.463  1.00  0.00     0.169 HD
HETATM   30  O   UNL     1     -44.208  54.313 -54.252  1.00  0.00    -0.267 OA
BRANCH  28  31
HETATM   31  C   UNL     1     -42.935  56.395 -56.077  1.00  0.00     0.041 A 
HETATM   32  C   UNL     1     -43.452  57.692 -56.253  1.00  0.00    -0.035 A 
HETATM   33  C   UNL     1     -43.714  58.688 -55.161  1.00  0.00     0.050 C 
HETATM   34  C   UNL     1     -43.777  58.126 -57.559  1.00  0.00     0.009 A 
HETATM   35  C   UNL     1     -43.648  57.289 -58.664  1.00  0.00     0.001 A 
HETATM   36  C   UNL     1     -43.189  55.994 -58.486  1.00  0.00     0.002 A 
HETATM   37  C   UNL     1     -42.840  55.555 -57.208  1.00  0.00     0.030 A 
ENDBRANCH  28  31
ENDBRANCH   8  27
TORSDOF 8
ENDMDL
MODEL 7
REMARK VINA RESULT:      -7.8      2.595      6.914
REMARK  8 active torsions:
REMARK  status: ('A' for Active; 'I' for Inactive)
REMARK    1  A    between atoms: C_2  and  O_3 
REMARK    2  A    between atoms: O_3  and  C_4 
REMARK    3  A    between atoms: C_5  and  O_6 
REMARK    4  A    between atoms: O_6  and  C_7 
REMARK    5  A    between atoms: C_7  and  C_8 
REMARK       I    between atoms: C_8  and  N_9 
REMARK    6  A    between atoms: C_13  and  C_14 
REMARK    7  A    between atoms: C_21  and  C_22 
REMARK       I    between atoms: C_22  and  N_23 
REMARK    8  A    between atoms: N_23  and  C_24 
ROOT
HETATM    1  C   UNL     1     -42.109  58.722 -55.606  1.00  0.00     0.160 C 
HETATM    2  N   UNL     1     -42.536  59.728 -56.559  1.00  0.00    -0.330 N 
HETATM    3  C   UNL     1     -42.663  59.492 -57.888  1.00  0.00     0.321 C 
HETATM    4  O   UNL     1     -42.727  60.406 -58.702  1.00  0.00    -0.247 OA
HETATM    5  N   UNL     1     -42.751  58.184 -58.254  1.00  0.00    -0.312 N 
HETATM    6  C   UNL     1     -42.756  57.114 -57.385  1.00  0.00     0.024 C 
HETATM    7  C   UNL     1     -43.023  55.777 -58.022  1.00  0.00     0.069 C 
HETATM    8  C   UNL     1     -42.485  57.343 -56.082  1.00  0.00     0.059 C 
HETATM    9  H   UNL     1     -42.447  60.705 -56.318  1.00  0.00     0.165 HD
HETATM   10  H   UNL     1     -42.929  58.036 -59.242  1.00  0.00     0.170 HD
ENDROOT
BRANCH   1  11
HETATM   11  C   UNL     1     -42.533  59.174 -54.217  1.00  0.00    -0.028 A 
HETATM   12  C   UNL     1     -43.908  59.305 -53.946  1.00  0.00     0.012 A 
HETATM   13  C   UNL     1     -44.371  59.588 -52.658  1.00  0.00     0.040 A 
HETATM   14  C   UNL     1     -43.469  59.769 -51.608  1.00  0.00     0.102 A 
HETATM   15  C   UNL     1     -42.094  59.689 -51.874  1.00  0.00     0.102 A 
HETATM   16  C   UNL     1     -41.634  59.355 -53.157  1.00  0.00     0.049 A 
BRANCH  14  17
HETATM   17  O   UNL     1     -43.857  59.917 -50.303  1.00  0.00    -0.339 OA
BRANCH  17  18
HETATM   18  C   UNL     1     -44.227  61.232 -49.895  1.00  0.00     0.278 C 
BRANCH  18  19
HETATM   19  C   UNL     1     -45.518  61.171 -49.084  1.00  0.00     0.239 C 
HETATM   20  N   UNL     1     -45.484  60.367 -47.980  1.00  0.00    -0.368 N 
HETATM   21  H   UNL     1     -44.594  60.032 -47.628  1.00  0.00     0.159 HD
HETATM   22  H   UNL     1     -46.295  60.343 -47.378  1.00  0.00     0.159 HD
HETATM   23  O   UNL     1     -46.547  61.753 -49.413  1.00  0.00    -0.271 OA
ENDBRANCH  18  19
ENDBRANCH  17  18
ENDBRANCH  14  17
BRANCH  15  24
HETATM   24  O   UNL     1     -41.123  59.830 -50.913  1.00  0.00    -0.349 OA
BRANCH  24  25
HETATM   25  C   UNL     1     -40.010  58.937 -51.045  1.00  0.00     0.171 C 
HETATM   26  C   UNL     1     -38.736  59.533 -50.474  1.00  0.00     0.034 C 
ENDBRANCH  24  25
ENDBRANCH  15  24
ENDBRANCH   1  11
BRANCH   8  27
HETATM   27  C   UNL     1     -42.525  56.198 -55.126  1.00  0.00     0.256 C 
HETATM   28  N   UNL     1     -41.286  55.656 -54.873  1.00  0.00    -0.323 N 
HETATM   29  H   UNL     1     -40.541  55.981 -55.472  1.00  0.00     0.169 HD
HETATM   30  O   UNL     1     -43.612  55.812 -54.721  1.00  0.00    -0.267 OA
BRANCH  28  31
HETATM   31  C   UNL     1     -40.913  54.582 -54.023  1.00  0.00     0.041 A 
HETATM   32  C   UNL     1     -40.985  54.522 -52.619  1.00  0.00    -0.035 A 
HETATM   33  C   UNL     1     -41.422  55.636 -51.714  1.00  0.00     0.050 C 
HETATM   34  C   UNL     1     -40.607  53.325 -51.968  1.00  0.00     0.009 A 
HETATM   35  C   UNL     1     -40.120  52.227 -52.673  1.00  0.00     0.001 A 
HETATM   36  C   UNL     1     -39.999  52.304 -54.050  1.00  0.00     0.002 A 
HETATM   37  C   UNL     1     -40.388  53.468 -54.714  1.00  0.00     0.030 A 
ENDBRANCH  28  31
ENDBRANCH   8  27
TORSDOF 8
ENDMDL
MODEL 8
REMARK VINA RESULT:      -7.7      2.609      7.310
REMARK  8 active torsions:
REMARK  status: ('A' for Active; 'I' for Inactive)
REMARK    1  A    between atoms: C_2  and  O_3 
REMARK    2  A    between atoms: O_3  and  C_4 
REMARK    3  A    between atoms: C_5  and  O_6 
REMARK    4  A    between atoms: O_6  and  C_7 
REMARK    5  A    between atoms: C_7  and  C_8 
REMARK       I    between atoms: C_8  and  N_9 
REMARK    6  A    between atoms: C_13  and  C_14 
REMARK    7  A    between atoms: C_21  and  C_22 
REMARK       I    between atoms: C_22  and  N_23 
REMARK    8  A    between atoms: N_23  and  C_24 
ROOT
HETATM    1  C   UNL     1     -43.274  58.566 -54.711  1.00  0.00     0.160 C 
HETATM    2  N   UNL     1     -44.507  58.675 -55.467  1.00  0.00    -0.330 N 
HETATM    3  C   UNL     1     -44.798  57.897 -56.538  1.00  0.00     0.321 C 
HETATM    4  O   UNL     1     -45.683  58.198 -57.331  1.00  0.00    -0.247 OA
HETATM    5  N   UNL     1     -44.074  56.751 -56.656  1.00  0.00    -0.312 N 
HETATM    6  C   UNL     1     -43.116  56.322 -55.764  1.00  0.00     0.024 C 
HETATM    7  C   UNL     1     -42.568  54.946 -56.030  1.00  0.00     0.069 C 
HETATM    8  C   UNL     1     -42.728  57.163 -54.781  1.00  0.00     0.059 C 
HETATM    9  H   UNL     1     -45.042  59.531 -55.418  1.00  0.00     0.165 HD
HETATM   10  H   UNL     1     -44.366  56.147 -57.417  1.00  0.00     0.170 HD
ENDROOT
BRANCH   1  11
HETATM   11  C   UNL     1     -43.490  59.217 -53.354  1.00  0.00    -0.028 A 
HETATM   12  C   UNL     1     -44.798  59.271 -52.838  1.00  0.00     0.012 A 
HETATM   13  C   UNL     1     -45.050  59.735 -51.543  1.00  0.00     0.040 A 
HETATM   14  C   UNL     1     -44.001  60.178 -50.737  1.00  0.00     0.102 A 
HETATM   15  C   UNL     1     -42.698  60.175 -51.255  1.00  0.00     0.102 A 
HETATM   16  C   UNL     1     -42.442  59.661 -52.536  1.00  0.00     0.049 A 
BRANCH  14  17
HETATM   17  O   UNL     1     -44.160  60.519 -49.420  1.00  0.00    -0.339 OA
BRANCH  17  18
HETATM   18  C   UNL     1     -45.393  61.142 -49.069  1.00  0.00     0.278 C 
BRANCH  18  19
HETATM   19  C   UNL     1     -45.663  60.940 -47.581  1.00  0.00     0.239 C 
HETATM   20  N   UNL     1     -44.561  60.720 -46.805  1.00  0.00    -0.368 N 
HETATM   21  H   UNL     1     -43.636  60.909 -47.178  1.00  0.00     0.159 HD
HETATM   22  H   UNL     1     -44.684  60.641 -45.805  1.00  0.00     0.159 HD
HETATM   23  O   UNL     1     -46.791  60.917 -47.099  1.00  0.00    -0.271 OA
ENDBRANCH  18  19
ENDBRANCH  17  18
ENDBRANCH  14  17
BRANCH  15  24
HETATM   24  O   UNL     1     -41.592  60.569 -50.541  1.00  0.00    -0.349 OA
BRANCH  24  25
HETATM   25  C   UNL     1     -40.792  59.495 -50.028  1.00  0.00     0.171 C 
HETATM   26  C   UNL     1     -39.357  59.577 -50.517  1.00  0.00     0.034 C 
ENDBRANCH  24  25
ENDBRANCH  15  24
ENDBRANCH   1  11
BRANCH   8  27
HETATM   27  C   UNL     1     -41.720  56.695 -53.787  1.00  0.00     0.256 C 
HETATM   28  N   UNL     1     -42.256  55.901 -52.799  1.00  0.00    -0.323 N 
HETATM   29  H   UNL     1     -43.265  55.866 -52.772  1.00  0.00     0.169 HD
HETATM   30  O   UNL     1     -40.569  57.093 -53.889  1.00  0.00    -0.267 OA
BRANCH  28  31
HETATM   31  C   UNL     1     -41.630  55.260 -51.699  1.00  0.00     0.041 A 
HETATM   32  C   UNL     1     -40.880  54.069 -51.700  1.00  0.00    -0.035 A 
HETATM   33  C   UNL     1     -40.644  53.182 -52.887  1.00  0.00     0.050 C 
HETATM   34  C   UNL     1     -40.294  53.631 -50.489  1.00  0.00     0.009 A 
HETATM   35  C   UNL     1     -40.481  54.317 -49.292  1.00  0.00     0.001 A 
HETATM   36  C   UNL     1     -41.262  55.460 -49.279  1.00  0.00     0.002 A 
HETATM   37  C   UNL     1     -41.830  55.922 -50.468  1.00  0.00     0.030 A 
ENDBRANCH  28  31
ENDBRANCH   8  27
TORSDOF 8
ENDMDL
MODEL 9
REMARK VINA RESULT:      -7.5      2.181      3.014
REMARK  8 active torsions:
REMARK  status: ('A' for Active; 'I' for Inactive)
REMARK    1  A    between atoms: C_2  and  O_3 
REMARK    2  A    between atoms: O_3  and  C_4 
REMARK    3  A    between atoms: C_5  and  O_6 
REMARK    4  A    between atoms: O_6  and  C_7 
REMARK    5  A    between atoms: C_7  and  C_8 
REMARK       I    between atoms: C_8  and  N_9 
REMARK    6  A    between atoms: C_13  and  C_14 
REMARK    7  A    between atoms: C_21  and  C_22 
REMARK       I    between atoms: C_22  and  N_23 
REMARK    8  A    between atoms: N_23  and  C_24 
ROOT
HETATM    1  C   UNL     1     -43.216  59.483 -53.119  1.00  0.00     0.160 C 
HETATM    2  N   UNL     1     -43.664  60.792 -52.683  1.00  0.00    -0.330 N 
HETATM    3  C   UNL     1     -43.431  61.287 -51.443  1.00  0.00     0.321 C 
HETATM    4  O   UNL     1     -44.062  62.240 -51.001  1.00  0.00    -0.247 OA
HETATM    5  N   UNL     1     -42.435  60.684 -50.739  1.00  0.00    -0.312 N 
HETATM    6  C   UNL     1     -41.644  59.656 -51.204  1.00  0.00     0.024 C 
HETATM    7  C   UNL     1     -40.507  59.266 -50.298  1.00  0.00     0.069 C 
HETATM    8  C   UNL     1     -41.971  59.072 -52.377  1.00  0.00     0.059 C 
HETATM    9  H   UNL     1     -44.425  61.241 -53.173  1.00  0.00     0.165 HD
HETATM   10  H   UNL     1     -42.224  61.124 -49.850  1.00  0.00     0.170 HD
ENDROOT
BRANCH   1  11
HETATM   11  C   UNL     1     -43.221  59.461 -54.639  1.00  0.00    -0.028 A 
HETATM   12  C   UNL     1     -42.269  60.239 -55.323  1.00  0.00     0.012 A 
HETATM   13  C   UNL     1     -42.132  60.164 -56.713  1.00  0.00     0.040 A 
HETATM   14  C   UNL     1     -42.960  59.324 -57.458  1.00  0.00     0.102 A 
HETATM   15  C   UNL     1     -43.946  58.579 -56.795  1.00  0.00     0.102 A 
HETATM   16  C   UNL     1     -44.048  58.618 -55.395  1.00  0.00     0.049 A 
BRANCH  14  17
HETATM   17  O   UNL     1     -42.793  59.105 -58.800  1.00  0.00    -0.339 OA
BRANCH  17  18
HETATM   18  C   UNL     1     -41.787  58.165 -59.170  1.00  0.00     0.278 C 
BRANCH  18  19
HETATM   19  C   UNL     1     -42.441  56.850 -59.581  1.00  0.00     0.239 C 
HETATM   20  N   UNL     1     -42.482  55.884 -58.616  1.00  0.00    -0.368 N 
HETATM   21  H   UNL     1     -42.292  56.129 -57.650  1.00  0.00     0.159 HD
HETATM   22  H   UNL     1     -42.959  55.017 -58.822  1.00  0.00     0.159 HD
HETATM   23  O   UNL     1     -42.858  56.630 -60.714  1.00  0.00    -0.271 OA
ENDBRANCH  18  19
ENDBRANCH  17  18
ENDBRANCH  14  17
BRANCH  15  24
HETATM   24  O   UNL     1     -44.798  57.708 -57.428  1.00  0.00    -0.349 OA
BRANCH  24  25
HETATM   25  C   UNL     1     -45.878  58.330 -58.138  1.00  0.00     0.171 C 
HETATM   26  C   UNL     1     -47.219  58.055 -57.482  1.00  0.00     0.034 C 
ENDBRANCH  24  25
ENDBRANCH  15  24
ENDBRANCH   1  11
BRANCH   8  27
HETATM   27  C   UNL     1     -41.100  57.984 -52.908  1.00  0.00     0.256 C 
HETATM   28  N   UNL     1     -41.669  56.735 -52.814  1.00  0.00    -0.323 N 
HETATM   29  H   UNL     1     -42.515  56.685 -52.264  1.00  0.00     0.169 HD
HETATM   30  O   UNL     1     -39.978  58.271 -53.300  1.00  0.00    -0.267 OA
BRANCH  28  31
HETATM   31  C   UNL     1     -41.171  55.469 -53.217  1.00  0.00     0.041 A 
HETATM   32  C   UNL     1     -40.910  54.344 -52.413  1.00  0.00    -0.035 A 
HETATM   33  C   UNL     1     -41.049  54.281 -50.920  1.00  0.00     0.050 C 
HETATM   34  C   UNL     1     -40.462  53.153 -53.031  1.00  0.00     0.009 A 
HETATM   35  C   UNL     1     -40.225  53.081 -54.401  1.00  0.00     0.001 A 
HETATM   36  C   UNL     1     -40.430  54.203 -55.186  1.00  0.00     0.002 A 
HETATM   37  C   UNL     1     -40.895  55.380 -54.599  1.00  0.00     0.030 A 
ENDBRANCH  28  31
ENDBRANCH   8  27
TORSDOF 8
ENDMDL
MODEL 10
REMARK VINA RESULT:      -7.2      2.824      7.237
REMARK  8 active torsions:
REMARK  status: ('A' for Active; 'I' for Inactive)
REMARK    1  A    between atoms: C_2  and  O_3 
REMARK    2  A    between atoms: O_3  and  C_4 
REMARK    3  A    between atoms: C_5  and  O_6 
REMARK    4  A    between atoms: O_6  and  C_7 
REMARK    5  A    between atoms: C_7  and  C_8 
REMARK       I    between atoms: C_8  and  N_9 
REMARK    6  A    between atoms: C_13  and  C_14 
REMARK    7  A    between atoms: C_21  and  C_22 
REMARK       I    between atoms: C_22  and  N_23 
REMARK    8  A    between atoms: N_23  and  C_24 
ROOT
HETATM    1  C   UNL     1     -42.091  58.294 -54.140  1.00  0.00     0.160 C 
HETATM    2  N   UNL     1     -42.368  59.007 -55.372  1.00  0.00    -0.330 N 
HETATM    3  C   UNL     1     -42.189  58.470 -56.603  1.00  0.00     0.321 C 
HETATM    4  O   UNL     1     -42.138  59.167 -57.610  1.00  0.00    -0.247 OA
HETATM    5  N   UNL     1     -42.108  57.112 -56.653  1.00  0.00    -0.312 N 
HETATM    6  C   UNL     1     -42.228  56.269 -55.570  1.00  0.00     0.024 C 
HETATM    7  C   UNL     1     -42.260  54.802 -55.905  1.00  0.00     0.069 C 
HETATM    8  C   UNL     1     -42.261  56.810 -54.333  1.00  0.00     0.059 C 
HETATM    9  H   UNL     1     -42.400  60.017 -55.361  1.00  0.00     0.165 HD
HETATM   10  H   UNL     1     -42.058  56.729 -57.591  1.00  0.00     0.170 HD
ENDROOT
BRANCH   1  11
HETATM   11  C   UNL     1     -42.834  58.990 -53.011  1.00  0.00    -0.028 A 
HETATM   12  C   UNL     1     -42.093  59.455 -51.908  1.00  0.00     0.012 A 
HETATM   13  C   UNL     1     -42.690  60.217 -50.900  1.00  0.00     0.040 A 
HETATM   14  C   UNL     1     -44.052  60.518 -50.957  1.00  0.00     0.102 A 
HETATM   15  C   UNL     1     -44.813  60.022 -52.025  1.00  0.00     0.102 A 
HETATM   16  C   UNL     1     -44.200  59.299 -53.062  1.00  0.00     0.049 A 
BRANCH  14  17
HETATM   17  O   UNL     1     -44.670  61.366 -50.077  1.00  0.00    -0.339 OA
BRANCH  17  18
HETATM   18  C   UNL     1     -45.284  60.766 -48.940  1.00  0.00     0.278 C 
BRANCH  18  19
HETATM   19  C   UNL     1     -44.856  61.505 -47.676  1.00  0.00     0.239 C 
HETATM   20  N   UNL     1     -44.484  60.713 -46.627  1.00  0.00    -0.368 N 
HETATM   21  H   UNL     1     -44.300  59.728 -46.780  1.00  0.00     0.159 HD
HETATM   22  H   UNL     1     -44.135  61.158 -45.789  1.00  0.00     0.159 HD
HETATM   23  O   UNL     1     -44.889  62.727 -47.567  1.00  0.00    -0.271 OA
ENDBRANCH  18  19
ENDBRANCH  17  18
ENDBRANCH  14  17
BRANCH  15  24
HETATM   24  O   UNL     1     -46.153  60.275 -52.189  1.00  0.00    -0.349 OA
BRANCH  24  25
HETATM   25  C   UNL     1     -46.457  61.371 -53.061  1.00  0.00     0.171 C 
HETATM   26  C   UNL     1     -47.814  61.979 -52.754  1.00  0.00     0.034 C 
ENDBRANCH  24  25
ENDBRANCH  15  24
ENDBRANCH   1  11
BRANCH   8  27
HETATM   27  C   UNL     1     -42.429  55.909 -53.157  1.00  0.00     0.256 C 
HETATM   28  N   UNL     1     -41.248  55.636 -52.506  1.00  0.00    -0.323 N 
HETATM   29  H   UNL     1     -40.411  55.936 -52.985  1.00  0.00     0.169 HD
HETATM   30  O   UNL     1     -43.540  55.455 -52.921  1.00  0.00    -0.267 OA
BRANCH  28  31
HETATM   31  C   UNL     1     -40.998  54.845 -51.354  1.00  0.00     0.041 A 
HETATM   32  C   UNL     1     -40.541  53.515 -51.298  1.00  0.00    -0.035 A 
HETATM   33  C   UNL     1     -40.283  52.625 -52.478  1.00  0.00     0.050 C 
HETATM   34  C   UNL     1     -40.307  52.928 -50.033  1.00  0.00     0.009 A 
HETATM   35  C   UNL     1     -40.563  53.611 -48.847  1.00  0.00     0.001 A 
HETATM   36  C   UNL     1     -41.063  54.901 -48.901  1.00  0.00     0.002 A 
HETATM   37  C   UNL     1     -41.278  55.507 -50.140  1.00  0.00     0.030 A 
ENDBRANCH  28  31
ENDBRANCH   8  27
TORSDOF 8
ENDMDL
