MODEL 1
REMARK VINA RESULT:      -9.3      0.000      0.000
REMARK  5 active torsions:
REMARK  status: ('A' for Active; 'I' for Inactive)
REMARK    1  A    between atoms: C_6  and  C_7 
REMARK       I    between atoms: C_7  and  N_8 
REMARK    2  A    between atoms: N_8  and  C_9 
REMARK    3  A    between atoms: C_20  and  C_21 
REMARK    4  A    between atoms: C_22  and  C_23 
REMARK    5  A    between atoms: C_26  and  O_27 
ROOT
HETATM    1  C   UNL     1     -43.922  61.249 -54.412  1.00  0.00     0.118 C 
HETATM    2  C   UNL     1     -43.340  60.302 -53.337  1.00  0.00     0.202 C 
HETATM    3  N   UNL     1     -44.451  59.485 -52.891  1.00  0.00    -0.332 N 
HETATM    4  C   UNL     1     -44.330  58.328 -52.169  1.00  0.00     0.257 C 
HETATM    5  O   UNL     1     -45.288  57.607 -51.902  1.00  0.00    -0.267 OA
HETATM    6  C   UNL     1     -42.973  57.939 -51.699  1.00  0.00     0.059 A 
HETATM    7  C   UNL     1     -42.050  58.846 -51.146  1.00  0.00     0.050 A 
HETATM    8  N   UNL     1     -42.190  60.247 -51.145  1.00  0.00    -0.324 N 
HETATM    9  C   UNL     1     -42.817  61.025 -52.094  1.00  0.00     0.247 C 
HETATM   10  O   UNL     1     -42.889  62.241 -51.922  1.00  0.00    -0.271 OA
HETATM   11  C   UNL     1     -42.684  56.564 -51.710  1.00  0.00     0.030 A 
HETATM   12  C   UNL     1     -41.478  56.078 -51.193  1.00  0.00    -0.035 A 
HETATM   13  C   UNL     1     -40.607  56.974 -50.567  1.00  0.00     0.013 A 
HETATM   14  C   UNL     1     -40.897  58.342 -50.534  1.00  0.00     0.031 A 
HETATM   15  C   UNL     1     -45.717  60.078 -53.244  1.00  0.00     0.129 C 
HETATM   16  C   UNL     1     -45.415  60.873 -54.499  1.00  0.00     0.047 C 
HETATM   17  H   UNL     1     -41.649  60.793 -50.484  1.00  0.00     0.169 HD
ENDROOT
BRANCH   1  18
HETATM   18  N   UNL     1     -43.299  61.073 -55.732  1.00  0.00    -0.350 N 
HETATM   19  C   UNL     1     -43.003  62.157 -56.534  1.00  0.00     0.252 C 
HETATM   20  O   UNL     1     -43.203  63.317 -56.195  1.00  0.00    -0.268 OA
HETATM   21  H   UNL     1     -43.392  60.171 -56.179  1.00  0.00     0.163 HD
BRANCH  19  22
HETATM   22  C   UNL     1     -42.395  61.855 -57.857  1.00  0.00     0.035 A 
HETATM   23  C   UNL     1     -41.160  62.395 -58.236  1.00  0.00     0.059 A 
HETATM   24  C   UNL     1     -40.656  62.114 -59.501  1.00  0.00     0.117 A 
HETATM   25  C   UNL     1     -41.356  61.314 -60.397  1.00  0.00     0.042 A 
HETATM   26  F   UNL     1     -39.477  62.635 -59.866  1.00  0.00    -0.206 F 
HETATM   27  C   UNL     1     -42.592  60.787 -60.028  1.00  0.00     0.004 A 
HETATM   28  C   UNL     1     -43.114  61.062 -58.762  1.00  0.00     0.017 A 
ENDBRANCH  19  22
ENDBRANCH   1  18
BRANCH  12  29
HETATM   29  C   UNL     1     -41.115  54.658 -51.269  1.00  0.00     0.012 C 
HETATM   30  C   UNL     1     -40.679  54.092 -52.406  1.00  0.00     0.012 C 
BRANCH  30  31
HETATM   31  C   UNL     1     -40.257  52.691 -52.525  1.00  0.00    -0.036 A 
HETATM   32  C   UNL     1     -39.908  51.990 -51.362  1.00  0.00     0.014 A 
HETATM   33  C   UNL     1     -39.553  50.639 -51.422  1.00  0.00     0.037 A 
HETATM   34  C   UNL     1     -39.558  49.987 -52.649  1.00  0.00     0.065 A 
HETATM   35  C   UNL     1     -39.914  50.660 -53.811  1.00  0.00     0.037 A 
HETATM   36  C   UNL     1     -40.267  52.010 -53.749  1.00  0.00     0.014 A 
BRANCH  34  37
HETATM   37  O   UNL     1     -39.226  48.669 -52.754  1.00  0.00    -0.361 OA
HETATM   38  H   UNL     1     -38.527  48.578 -53.422  1.00  0.00     0.217 HD
ENDBRANCH  34  37
ENDBRANCH  30  31
ENDBRANCH  12  29
TORSDOF 5
ENDMDL
MODEL 2
REMARK VINA RESULT:      -9.3      4.459      7.375
REMARK  5 active torsions:
REMARK  status: ('A' for Active; 'I' for Inactive)
REMARK    1  A    between atoms: C_6  and  C_7 
REMARK       I    between atoms: C_7  and  N_8 
REMARK    2  A    between atoms: N_8  and  C_9 
REMARK    3  A    between atoms: C_20  and  C_21 
REMARK    4  A    between atoms: C_22  and  C_23 
REMARK    5  A    between atoms: C_26  and  O_27 
ROOT
HETATM    1  C   UNL     1     -44.254  61.175 -50.736  1.00  0.00     0.118 C 
HETATM    2  C   UNL     1     -44.197  60.081 -51.827  1.00  0.00     0.202 C 
HETATM    3  N   UNL     1     -42.869  60.167 -52.400  1.00  0.00    -0.332 N 
HETATM    4  C   UNL     1     -42.292  59.204 -53.185  1.00  0.00     0.257 C 
HETATM    5  O   UNL     1     -41.125  59.265 -53.563  1.00  0.00    -0.267 OA
HETATM    6  C   UNL     1     -43.127  58.039 -53.585  1.00  0.00     0.059 A 
HETATM    7  C   UNL     1     -44.463  58.149 -54.014  1.00  0.00     0.050 A 
HETATM    8  N   UNL     1     -45.249  59.315 -53.933  1.00  0.00    -0.324 N 
HETATM    9  C   UNL     1     -45.175  60.308 -52.982  1.00  0.00     0.247 C 
HETATM   10  O   UNL     1     -45.911  61.290 -53.080  1.00  0.00    -0.271 OA
HETATM   11  C   UNL     1     -42.472  56.798 -53.643  1.00  0.00     0.030 A 
HETATM   12  C   UNL     1     -43.134  55.656 -54.106  1.00  0.00    -0.035 A 
HETATM   13  C   UNL     1     -44.430  55.790 -54.612  1.00  0.00     0.013 A 
HETATM   14  C   UNL     1     -45.083  57.027 -54.577  1.00  0.00     0.031 A 
HETATM   15  C   UNL     1     -42.245  61.431 -52.098  1.00  0.00     0.129 C 
HETATM   16  C   UNL     1     -42.864  61.841 -50.776  1.00  0.00     0.047 C 
HETATM   17  H   UNL     1     -46.072  59.392 -54.519  1.00  0.00     0.169 HD
ENDROOT
BRANCH   1  18
HETATM   18  N   UNL     1     -44.495  60.634 -49.390  1.00  0.00    -0.350 N 
HETATM   19  C   UNL     1     -45.425  61.204 -48.545  1.00  0.00     0.252 C 
HETATM   20  O   UNL     1     -46.123  62.160 -48.862  1.00  0.00    -0.268 OA
HETATM   21  H   UNL     1     -43.766  60.070 -48.974  1.00  0.00     0.163 HD
BRANCH  19  22
HETATM   22  C   UNL     1     -45.566  60.585 -47.200  1.00  0.00     0.035 A 
HETATM   23  C   UNL     1     -46.545  59.620 -46.938  1.00  0.00     0.059 A 
HETATM   24  C   UNL     1     -46.661  59.103 -45.652  1.00  0.00     0.117 A 
HETATM   25  C   UNL     1     -45.828  59.529 -44.623  1.00  0.00     0.042 A 
HETATM   26  F   UNL     1     -47.601  58.183 -45.399  1.00  0.00    -0.206 F 
HETATM   27  C   UNL     1     -44.862  60.500 -44.878  1.00  0.00     0.004 A 
HETATM   28  C   UNL     1     -44.734  61.032 -46.164  1.00  0.00     0.017 A 
ENDBRANCH  19  22
ENDBRANCH   1  18
BRANCH  12  29
HETATM   29  C   UNL     1     -42.500  54.332 -54.097  1.00  0.00     0.012 C 
HETATM   30  C   UNL     1     -41.380  54.081 -53.400  1.00  0.00     0.012 C 
BRANCH  30  31
HETATM   31  C   UNL     1     -40.734  52.765 -53.316  1.00  0.00    -0.036 A 
HETATM   32  C   UNL     1     -40.159  52.372 -52.100  1.00  0.00     0.014 A 
HETATM   33  C   UNL     1     -39.581  51.107 -51.960  1.00  0.00     0.037 A 
HETATM   34  C   UNL     1     -39.590  50.230 -53.038  1.00  0.00     0.065 A 
HETATM   35  C   UNL     1     -40.166  50.596 -54.248  1.00  0.00     0.037 A 
HETATM   36  C   UNL     1     -40.742  51.861 -54.386  1.00  0.00     0.014 A 
BRANCH  34  37
HETATM   37  O   UNL     1     -39.045  48.984 -52.944  1.00  0.00    -0.361 OA
HETATM   38  H   UNL     1     -38.109  49.035 -53.198  1.00  0.00     0.217 HD
ENDBRANCH  34  37
ENDBRANCH  30  31
ENDBRANCH  12  29
TORSDOF 5
ENDMDL
MODEL 3
REMARK VINA RESULT:      -9.2      1.528      1.866
REMARK  5 active torsions:
REMARK  status: ('A' for Active; 'I' for Inactive)
REMARK    1  A    between atoms: C_6  and  C_7 
REMARK       I    between atoms: C_7  and  N_8 
REMARK    2  A    between atoms: N_8  and  C_9 
REMARK    3  A    between atoms: C_20  and  C_21 
REMARK    4  A    between atoms: C_22  and  C_23 
REMARK    5  A    between atoms: C_26  and  O_27 
ROOT
HETATM    1  C   UNL     1     -43.297  61.978 -55.926  1.00  0.00     0.118 C 
HETATM    2  C   UNL     1     -42.995  60.842 -54.922  1.00  0.00     0.202 C 
HETATM    3  N   UNL     1     -44.122  59.934 -55.008  1.00  0.00    -0.332 N 
HETATM    4  C   UNL     1     -44.135  58.656 -54.516  1.00  0.00     0.257 C 
HETATM    5  O   UNL     1     -45.069  57.880 -54.703  1.00  0.00    -0.267 OA
HETATM    6  C   UNL     1     -42.958  58.200 -53.729  1.00  0.00     0.059 A 
HETATM    7  C   UNL     1     -42.319  58.990 -52.755  1.00  0.00     0.050 A 
HETATM    8  N   UNL     1     -42.561  60.360 -52.533  1.00  0.00    -0.324 N 
HETATM    9  C   UNL     1     -42.931  61.304 -53.465  1.00  0.00     0.247 C 
HETATM   10  O   UNL     1     -43.147  62.459 -53.097  1.00  0.00    -0.271 OA
HETATM   11  C   UNL     1     -42.572  56.861 -53.908  1.00  0.00     0.030 A 
HETATM   12  C   UNL     1     -41.545  56.299 -53.142  1.00  0.00    -0.035 A 
HETATM   13  C   UNL     1     -40.977  57.062 -52.119  1.00  0.00     0.013 A 
HETATM   14  C   UNL     1     -41.369  58.390 -51.920  1.00  0.00     0.031 A 
HETATM   15  C   UNL     1     -45.264  60.566 -55.619  1.00  0.00     0.129 C 
HETATM   16  C   UNL     1     -44.659  61.605 -56.544  1.00  0.00     0.047 C 
HETATM   17  H   UNL     1     -42.291  60.767 -51.646  1.00  0.00     0.169 HD
ENDROOT
BRANCH   1  18
HETATM   18  N   UNL     1     -42.292  62.086 -56.994  1.00  0.00    -0.350 N 
HETATM   19  C   UNL     1     -42.097  63.268 -57.677  1.00  0.00     0.252 C 
HETATM   20  O   UNL     1     -42.711  64.298 -57.425  1.00  0.00    -0.268 OA
HETATM   21  H   UNL     1     -41.989  61.230 -57.440  1.00  0.00     0.163 HD
BRANCH  19  22
HETATM   22  C   UNL     1     -41.069  63.251 -58.752  1.00  0.00     0.035 A 
HETATM   23  C   UNL     1     -39.883  63.985 -58.642  1.00  0.00     0.059 A 
HETATM   24  C   UNL     1     -38.973  63.967 -59.694  1.00  0.00     0.117 A 
HETATM   25  C   UNL     1     -39.222  63.238 -60.852  1.00  0.00     0.042 A 
HETATM   26  F   UNL     1     -37.840  64.674 -59.592  1.00  0.00    -0.206 F 
HETATM   27  C   UNL     1     -40.409  62.518 -60.970  1.00  0.00     0.004 A 
HETATM   28  C   UNL     1     -41.334  62.528 -59.924  1.00  0.00     0.017 A 
ENDBRANCH  19  22
ENDBRANCH   1  18
BRANCH  12  29
HETATM   29  C   UNL     1     -41.066  54.931 -53.368  1.00  0.00     0.012 C 
HETATM   30  C   UNL     1     -40.724  54.117 -52.357  1.00  0.00     0.012 C 
BRANCH  30  31
HETATM   31  C   UNL     1     -40.287  52.725 -52.524  1.00  0.00    -0.036 A 
HETATM   32  C   UNL     1     -39.902  51.997 -51.390  1.00  0.00     0.014 A 
HETATM   33  C   UNL     1     -39.532  50.653 -51.495  1.00  0.00     0.037 A 
HETATM   34  C   UNL     1     -39.559  50.034 -52.739  1.00  0.00     0.065 A 
HETATM   35  C   UNL     1     -39.950  50.735 -53.874  1.00  0.00     0.037 A 
HETATM   36  C   UNL     1     -40.318  52.078 -53.766  1.00  0.00     0.014 A 
BRANCH  34  37
HETATM   37  O   UNL     1     -39.213  48.724 -52.889  1.00  0.00    -0.361 OA
HETATM   38  H   UNL     1     -39.714  48.354 -53.633  1.00  0.00     0.217 HD
ENDBRANCH  34  37
ENDBRANCH  30  31
ENDBRANCH  12  29
TORSDOF 5
ENDMDL
MODEL 4
REMARK VINA RESULT:      -9.0      4.305      6.901
REMARK  5 active torsions:
REMARK  status: ('A' for Active; 'I' for Inactive)
REMARK    1  A    between atoms: C_6  and  C_7 
REMARK       I    between atoms: C_7  and  N_8 
REMARK    2  A    between atoms: N_8  and  C_9 
REMARK    3  A    between atoms: C_20  and  C_21 
REMARK    4  A    between atoms: C_22  and  C_23 
REMARK    5  A    between atoms: C_26  and  O_27 
ROOT
HETATM    1  C   UNL     1     -44.601  61.885 -51.899  1.00  0.00     0.118 C 
HETATM    2  C   UNL     1     -44.361  60.563 -52.665  1.00  0.00     0.202 C 
HETATM    3  N   UNL     1     -43.041  60.683 -53.250  1.00  0.00    -0.332 N 
HETATM    4  C   UNL     1     -42.313  59.640 -53.759  1.00  0.00     0.257 C 
HETATM    5  O   UNL     1     -41.155  59.765 -54.148  1.00  0.00    -0.267 OA
HETATM    6  C   UNL     1     -42.966  58.306 -53.832  1.00  0.00     0.059 A 
HETATM    7  C   UNL     1     -44.291  58.109 -54.264  1.00  0.00     0.050 A 
HETATM    8  N   UNL     1     -45.233  59.132 -54.488  1.00  0.00    -0.324 N 
HETATM    9  C   UNL     1     -45.326  60.340 -53.832  1.00  0.00     0.247 C 
HETATM   10  O   UNL     1     -46.187  61.148 -54.179  1.00  0.00    -0.271 OA
HETATM   11  C   UNL     1     -42.144  57.198 -53.566  1.00  0.00     0.030 A 
HETATM   12  C   UNL     1     -42.628  55.893 -53.708  1.00  0.00    -0.035 A 
HETATM   13  C   UNL     1     -43.914  55.706 -54.221  1.00  0.00     0.013 A 
HETATM   14  C   UNL     1     -44.733  56.803 -54.508  1.00  0.00     0.031 A 
HETATM   15  C   UNL     1     -42.607  62.057 -53.295  1.00  0.00     0.129 C 
HETATM   16  C   UNL     1     -43.317  62.707 -52.123  1.00  0.00     0.047 C 
HETATM   17  H   UNL     1     -46.041  58.936 -55.067  1.00  0.00     0.169 HD
ENDROOT
BRANCH   1  18
HETATM   18  N   UNL     1     -44.806  61.686 -50.457  1.00  0.00    -0.350 N 
HETATM   19  C   UNL     1     -45.672  62.486 -49.739  1.00  0.00     0.252 C 
HETATM   20  O   UNL     1     -46.341  63.377 -50.249  1.00  0.00    -0.268 OA
HETATM   21  H   UNL     1     -44.084  61.197 -49.944  1.00  0.00     0.163 HD
BRANCH  19  22
HETATM   22  C   UNL     1     -45.779  62.205 -48.283  1.00  0.00     0.035 A 
HETATM   23  C   UNL     1     -46.782  62.786 -47.498  1.00  0.00     0.059 A 
HETATM   24  C   UNL     1     -46.813  62.523 -46.133  1.00  0.00     0.117 A 
HETATM   25  C   UNL     1     -45.866  61.700 -45.533  1.00  0.00     0.042 A 
HETATM   26  F   UNL     1     -47.770  63.082 -45.380  1.00  0.00    -0.206 F 
HETATM   27  C   UNL     1     -44.858  61.133 -46.309  1.00  0.00     0.004 A 
HETATM   28  C   UNL     1     -44.811  61.389 -47.682  1.00  0.00     0.017 A 
ENDBRANCH  19  22
ENDBRANCH   1  18
BRANCH  12  29
HETATM   29  C   UNL     1     -41.818  54.721 -53.355  1.00  0.00     0.012 C 
HETATM   30  C   UNL     1     -41.883  53.572 -54.048  1.00  0.00     0.012 C 
BRANCH  30  31
HETATM   31  C   UNL     1     -41.060  52.389 -53.769  1.00  0.00    -0.036 A 
HETATM   32  C   UNL     1     -40.310  52.351 -52.585  1.00  0.00     0.014 A 
HETATM   33  C   UNL     1     -39.556  51.222 -52.254  1.00  0.00     0.037 A 
HETATM   34  C   UNL     1     -39.561  50.124 -53.105  1.00  0.00     0.065 A 
HETATM   35  C   UNL     1     -40.308  50.136 -54.277  1.00  0.00     0.037 A 
HETATM   36  C   UNL     1     -41.060  51.266 -54.607  1.00  0.00     0.014 A 
BRANCH  34  37
HETATM   37  O   UNL     1     -38.846  48.999 -52.819  1.00  0.00    -0.361 OA
HETATM   38  H   UNL     1     -38.613  48.559 -53.652  1.00  0.00     0.217 HD
ENDBRANCH  34  37
ENDBRANCH  30  31
ENDBRANCH  12  29
TORSDOF 5
ENDMDL
MODEL 5
REMARK VINA RESULT:      -8.9      1.466      1.883
REMARK  5 active torsions:
REMARK  status: ('A' for Active; 'I' for Inactive)
REMARK    1  A    between atoms: C_6  and  C_7 
REMARK       I    between atoms: C_7  and  N_8 
REMARK    2  A    between atoms: N_8  and  C_9 
REMARK    3  A    between atoms: C_20  and  C_21 
REMARK    4  A    between atoms: C_22  and  C_23 
REMARK    5  A    between atoms: C_26  and  O_27 
ROOT
HETATM    1  C   UNL     1     -44.976  61.327 -53.710  1.00  0.00     0.118 C 
HETATM    2  C   UNL     1     -44.137  60.349 -52.854  1.00  0.00     0.202 C 
HETATM    3  N   UNL     1     -45.094  59.605 -52.059  1.00  0.00    -0.332 N 
HETATM    4  C   UNL     1     -44.816  58.444 -51.387  1.00  0.00     0.257 C 
HETATM    5  O   UNL     1     -45.679  57.786 -50.813  1.00  0.00    -0.267 OA
HETATM    6  C   UNL     1     -43.406  57.973 -51.364  1.00  0.00     0.059 A 
HETATM    7  C   UNL     1     -42.303  58.822 -51.155  1.00  0.00     0.050 A 
HETATM    8  N   UNL     1     -42.353  60.230 -51.142  1.00  0.00    -0.324 N 
HETATM    9  C   UNL     1     -43.203  61.042 -51.859  1.00  0.00     0.247 C 
HETATM   10  O   UNL     1     -43.146  62.261 -51.701  1.00  0.00    -0.271 OA
HETATM   11  C   UNL     1     -43.215  56.582 -51.435  1.00  0.00     0.030 A 
HETATM   12  C   UNL     1     -41.938  56.024 -51.318  1.00  0.00    -0.035 A 
HETATM   13  C   UNL     1     -40.862  56.866 -51.022  1.00  0.00     0.013 A 
HETATM   14  C   UNL     1     -41.046  58.249 -50.930  1.00  0.00     0.031 A 
HETATM   15  C   UNL     1     -46.369  60.275 -52.004  1.00  0.00     0.129 C 
HETATM   16  C   UNL     1     -46.437  61.045 -53.309  1.00  0.00     0.047 C 
HETATM   17  H   UNL     1     -41.599  60.742 -50.700  1.00  0.00     0.169 HD
ENDROOT
BRANCH   1  18
HETATM   18  N   UNL     1     -44.817  61.109 -55.155  1.00  0.00    -0.350 N 
HETATM   19  C   UNL     1     -43.837  61.761 -55.874  1.00  0.00     0.252 C 
HETATM   20  O   UNL     1     -43.027  62.526 -55.364  1.00  0.00    -0.268 OA
HETATM   21  H   UNL     1     -45.614  60.750 -55.665  1.00  0.00     0.163 HD
BRANCH  19  22
HETATM   22  C   UNL     1     -43.788  61.479 -57.333  1.00  0.00     0.035 A 
HETATM   23  C   UNL     1     -44.225  60.258 -57.858  1.00  0.00     0.059 A 
HETATM   24  C   UNL     1     -44.119  60.029 -59.225  1.00  0.00     0.117 A 
HETATM   25  C   UNL     1     -43.582  60.987 -60.079  1.00  0.00     0.042 A 
HETATM   26  F   UNL     1     -44.533  58.858 -59.728  1.00  0.00    -0.206 F 
HETATM   27  C   UNL     1     -43.132  62.198 -59.558  1.00  0.00     0.004 A 
HETATM   28  C   UNL     1     -43.229  62.442 -58.186  1.00  0.00     0.017 A 
ENDBRANCH  19  22
ENDBRANCH   1  18
BRANCH  12  29
HETATM   29  C   UNL     1     -41.702  54.584 -51.473  1.00  0.00     0.012 C 
HETATM   30  C   UNL     1     -40.600  54.100 -52.069  1.00  0.00     0.012 C 
BRANCH  30  31
HETATM   31  C   UNL     1     -40.291  52.671 -52.205  1.00  0.00    -0.036 A 
HETATM   32  C   UNL     1     -40.236  52.112 -53.490  1.00  0.00     0.014 A 
HETATM   33  C   UNL     1     -39.892  50.770 -53.670  1.00  0.00     0.037 A 
HETATM   34  C   UNL     1     -39.592  49.988 -52.561  1.00  0.00     0.065 A 
HETATM   35  C   UNL     1     -39.629  50.526 -51.280  1.00  0.00     0.037 A 
HETATM   36  C   UNL     1     -39.974  51.868 -51.102  1.00  0.00     0.014 A 
BRANCH  34  37
HETATM   37  O   UNL     1     -39.245  48.676 -52.689  1.00  0.00    -0.361 OA
HETATM   38  H   UNL     1     -39.611  48.339 -53.523  1.00  0.00     0.217 HD
ENDBRANCH  34  37
ENDBRANCH  30  31
ENDBRANCH  12  29
TORSDOF 5
ENDMDL
MODEL 6
REMARK VINA RESULT:      -8.7      5.119     10.032
REMARK  5 active torsions:
REMARK  status: ('A' for Active; 'I' for Inactive)
REMARK    1  A    between atoms: C_6  and  C_7 
REMARK       I    between atoms: C_7  and  N_8 
REMARK    2  A    between atoms: N_8  and  C_9 
REMARK    3  A    between atoms: C_20  and  C_21 
REMARK    4  A    between atoms: C_22  and  C_23 
REMARK    5  A    between atoms: C_26  and  O_27 
ROOT
HETATM    1  C   UNL     1     -42.926  57.526 -54.045  1.00  0.00     0.118 C 
HETATM    2  C   UNL     1     -43.149  58.843 -53.267  1.00  0.00     0.202 C 
HETATM    3  N   UNL     1     -44.570  59.113 -53.350  1.00  0.00    -0.332 N 
HETATM    4  C   UNL     1     -45.244  60.008 -52.563  1.00  0.00     0.257 C 
HETATM    5  O   UNL     1     -46.466  60.130 -52.589  1.00  0.00    -0.267 OA
HETATM    6  C   UNL     1     -44.448  60.858 -51.637  1.00  0.00     0.059 A 
HETATM    7  C   UNL     1     -43.239  61.482 -51.997  1.00  0.00     0.050 A 
HETATM    8  N   UNL     1     -42.520  61.236 -53.183  1.00  0.00    -0.324 N 
HETATM    9  C   UNL     1     -42.448  60.054 -53.887  1.00  0.00     0.247 C 
HETATM   10  O   UNL     1     -41.805  60.017 -54.936  1.00  0.00    -0.271 OA
HETATM   11  C   UNL     1     -45.030  61.128 -50.387  1.00  0.00     0.030 A 
HETATM   12  C   UNL     1     -44.417  61.999 -49.481  1.00  0.00    -0.035 A 
HETATM   13  C   UNL     1     -43.265  62.682 -49.880  1.00  0.00     0.013 A 
HETATM   14  C   UNL     1     -42.689  62.434 -51.131  1.00  0.00     0.031 A 
HETATM   15  C   UNL     1     -45.187  58.367 -54.419  1.00  0.00     0.129 C 
HETATM   16  C   UNL     1     -44.328  57.123 -54.544  1.00  0.00     0.047 C 
HETATM   17  H   UNL     1     -41.843  61.922 -53.497  1.00  0.00     0.169 HD
ENDROOT
BRANCH   1  18
HETATM   18  N   UNL     1     -42.379  56.448 -53.209  1.00  0.00    -0.350 N 
HETATM   19  C   UNL     1     -41.418  55.584 -53.692  1.00  0.00     0.252 C 
HETATM   20  O   UNL     1     -40.939  55.674 -54.817  1.00  0.00    -0.268 OA
HETATM   21  H   UNL     1     -42.932  56.141 -52.419  1.00  0.00     0.163 HD
BRANCH  19  22
HETATM   22  C   UNL     1     -40.956  54.519 -52.763  1.00  0.00     0.035 A 
HETATM   23  C   UNL     1     -40.522  53.274 -53.233  1.00  0.00     0.059 A 
HETATM   24  C   UNL     1     -40.141  52.298 -52.320  1.00  0.00     0.117 A 
HETATM   25  C   UNL     1     -40.187  52.533 -50.950  1.00  0.00     0.042 A 
HETATM   26  F   UNL     1     -39.730  51.105 -52.769  1.00  0.00    -0.206 F 
HETATM   27  C   UNL     1     -40.632  53.766 -50.478  1.00  0.00     0.004 A 
HETATM   28  C   UNL     1     -41.022  54.756 -51.382  1.00  0.00     0.017 A 
ENDBRANCH  19  22
ENDBRANCH   1  18
BRANCH  12  29
HETATM   29  C   UNL     1     -44.960  62.232 -48.137  1.00  0.00     0.012 C 
HETATM   30  C   UNL     1     -44.979  63.451 -47.575  1.00  0.00     0.012 C 
BRANCH  30  31
HETATM   31  C   UNL     1     -45.555  63.748 -46.257  1.00  0.00    -0.036 A 
HETATM   32  C   UNL     1     -44.707  64.196 -45.235  1.00  0.00     0.014 A 
HETATM   33  C   UNL     1     -45.220  64.541 -43.982  1.00  0.00     0.037 A 
HETATM   34  C   UNL     1     -46.588  64.449 -43.756  1.00  0.00     0.065 A 
HETATM   35  C   UNL     1     -47.447  64.019 -44.760  1.00  0.00     0.037 A 
HETATM   36  C   UNL     1     -46.932  63.673 -46.011  1.00  0.00     0.014 A 
BRANCH  34  37
HETATM   37  O   UNL     1     -47.134  64.782 -42.552  1.00  0.00    -0.361 OA
HETATM   38  H   UNL     1     -46.463  64.654 -41.862  1.00  0.00     0.217 HD
ENDBRANCH  34  37
ENDBRANCH  30  31
ENDBRANCH  12  29
TORSDOF 5
ENDMDL
MODEL 7
REMARK VINA RESULT:      -8.5      5.928     11.140
REMARK  5 active torsions:
REMARK  status: ('A' for Active; 'I' for Inactive)
REMARK    1  A    between atoms: C_6  and  C_7 
REMARK       I    between atoms: C_7  and  N_8 
REMARK    2  A    between atoms: N_8  and  C_9 
REMARK    3  A    between atoms: C_20  and  C_21 
REMARK    4  A    between atoms: C_22  and  C_23 
REMARK    5  A    between atoms: C_26  and  O_27 
ROOT
HETATM    1  C   UNL     1     -43.567  55.431 -58.802  1.00  0.00     0.118 C 
HETATM    2  C   UNL     1     -44.330  56.764 -58.978  1.00  0.00     0.202 C 
HETATM    3  N   UNL     1     -45.477  56.453 -59.807  1.00  0.00    -0.332 N 
HETATM    4  C   UNL     1     -46.569  57.264 -59.967  1.00  0.00     0.257 C 
HETATM    5  O   UNL     1     -47.569  56.919 -60.591  1.00  0.00    -0.267 OA
HETATM    6  C   UNL     1     -46.529  58.616 -59.347  1.00  0.00     0.059 A 
HETATM    7  C   UNL     1     -45.403  59.459 -59.389  1.00  0.00     0.050 A 
HETATM    8  N   UNL     1     -44.120  59.079 -59.829  1.00  0.00    -0.324 N 
HETATM    9  C   UNL     1     -43.538  57.835 -59.732  1.00  0.00     0.247 C 
HETATM   10  O   UNL     1     -42.417  57.656 -60.208  1.00  0.00    -0.271 OA
HETATM   11  C   UNL     1     -47.739  59.089 -58.811  1.00  0.00     0.030 A 
HETATM   12  C   UNL     1     -47.839  60.387 -58.298  1.00  0.00    -0.035 A 
HETATM   13  C   UNL     1     -46.744  61.245 -58.424  1.00  0.00     0.013 A 
HETATM   14  C   UNL     1     -45.542  60.789 -58.975  1.00  0.00     0.031 A 
HETATM   15  C   UNL     1     -45.301  55.204 -60.504  1.00  0.00     0.129 C 
HETATM   16  C   UNL     1     -44.393  54.399 -59.595  1.00  0.00     0.047 C 
HETATM   17  H   UNL     1     -43.463  59.800 -60.104  1.00  0.00     0.169 HD
ENDROOT
BRANCH   1  18
HETATM   18  N   UNL     1     -43.473  55.002 -57.398  1.00  0.00    -0.350 N 
HETATM   19  C   UNL     1     -42.722  55.711 -56.483  1.00  0.00     0.252 C 
HETATM   20  O   UNL     1     -42.121  56.742 -56.761  1.00  0.00    -0.268 OA
HETATM   21  H   UNL     1     -43.679  54.035 -57.188  1.00  0.00     0.163 HD
BRANCH  19  22
HETATM   22  C   UNL     1     -42.683  55.169 -55.098  1.00  0.00     0.035 A 
HETATM   23  C   UNL     1     -43.325  55.820 -54.039  1.00  0.00     0.059 A 
HETATM   24  C   UNL     1     -43.223  55.294 -52.756  1.00  0.00     0.117 A 
HETATM   25  C   UNL     1     -42.491  54.138 -52.505  1.00  0.00     0.042 A 
HETATM   26  F   UNL     1     -43.834  55.919 -51.741  1.00  0.00    -0.206 F 
HETATM   27  C   UNL     1     -41.838  53.496 -53.555  1.00  0.00     0.004 A 
HETATM   28  C   UNL     1     -41.929  54.013 -54.849  1.00  0.00     0.017 A 
ENDBRANCH  19  22
ENDBRANCH   1  18
BRANCH  12  29
HETATM   29  C   UNL     1     -49.065  60.876 -57.657  1.00  0.00     0.012 C 
HETATM   30  C   UNL     1     -50.164  60.112 -57.539  1.00  0.00     0.012 C 
BRANCH  30  31
HETATM   31  C   UNL     1     -51.397  60.534 -56.863  1.00  0.00    -0.036 A 
HETATM   32  C   UNL     1     -51.307  61.435 -55.793  1.00  0.00     0.014 A 
HETATM   33  C   UNL     1     -52.459  61.905 -55.156  1.00  0.00     0.037 A 
HETATM   34  C   UNL     1     -53.706  61.479 -55.601  1.00  0.00     0.065 A 
HETATM   35  C   UNL     1     -53.817  60.597 -56.668  1.00  0.00     0.037 A 
HETATM   36  C   UNL     1     -52.664  60.127 -57.302  1.00  0.00     0.014 A 
BRANCH  34  37
HETATM   37  O   UNL     1     -54.856  61.917 -55.015  1.00  0.00    -0.361 OA
HETATM   38  H   UNL     1     -55.132  61.266 -54.349  1.00  0.00     0.217 HD
ENDBRANCH  34  37
ENDBRANCH  30  31
ENDBRANCH  12  29
TORSDOF 5
ENDMDL
MODEL 8
REMARK VINA RESULT:      -8.4      1.916      2.351
REMARK  5 active torsions:
REMARK  status: ('A' for Active; 'I' for Inactive)
REMARK    1  A    between atoms: C_6  and  C_7 
REMARK       I    between atoms: C_7  and  N_8 
REMARK    2  A    between atoms: N_8  and  C_9 
REMARK    3  A    between atoms: C_20  and  C_21 
REMARK    4  A    between atoms: C_22  and  C_23 
REMARK    5  A    between atoms: C_26  and  O_27 
ROOT
HETATM    1  C   UNL     1     -44.797  62.133 -52.574  1.00  0.00     0.118 C 
HETATM    2  C   UNL     1     -44.016  60.931 -51.996  1.00  0.00     0.202 C 
HETATM    3  N   UNL     1     -45.022  59.995 -51.533  1.00  0.00    -0.332 N 
HETATM    4  C   UNL     1     -44.785  58.682 -51.225  1.00  0.00     0.257 C 
HETATM    5  O   UNL     1     -45.683  57.894 -50.940  1.00  0.00    -0.267 OA
HETATM    6  C   UNL     1     -43.376  58.205 -51.244  1.00  0.00     0.059 A 
HETATM    7  C   UNL     1     -42.299  58.936 -50.709  1.00  0.00     0.050 A 
HETATM    8  N   UNL     1     -42.361  60.274 -50.276  1.00  0.00    -0.324 N 
HETATM    9  C   UNL     1     -43.163  61.277 -50.774  1.00  0.00     0.247 C 
HETATM   10  O   UNL     1     -43.127  62.391 -50.251  1.00  0.00    -0.271 OA
HETATM   11  C   UNL     1     -43.171  56.898 -51.717  1.00  0.00     0.030 A 
HETATM   12  C   UNL     1     -41.901  56.312 -51.683  1.00  0.00    -0.035 A 
HETATM   13  C   UNL     1     -40.856  57.010 -51.070  1.00  0.00     0.013 A 
HETATM   14  C   UNL     1     -41.057  58.304 -50.578  1.00  0.00     0.031 A 
HETATM   15  C   UNL     1     -46.303  60.636 -51.371  1.00  0.00     0.129 C 
HETATM   16  C   UNL     1     -46.282  61.765 -52.383  1.00  0.00     0.047 C 
HETATM   17  H   UNL     1     -41.645  60.619 -49.646  1.00  0.00     0.169 HD
ENDROOT
BRANCH   1  18
HETATM   18  N   UNL     1     -44.532  62.359 -54.003  1.00  0.00    -0.350 N 
HETATM   19  C   UNL     1     -43.831  63.466 -54.434  1.00  0.00     0.252 C 
HETATM   20  O   UNL     1     -43.362  64.303 -53.672  1.00  0.00    -0.268 OA
HETATM   21  H   UNL     1     -45.133  61.894 -54.670  1.00  0.00     0.163 HD
BRANCH  19  22
HETATM   22  C   UNL     1     -43.644  63.600 -55.904  1.00  0.00     0.035 A 
HETATM   23  C   UNL     1     -44.387  62.834 -56.809  1.00  0.00     0.059 A 
HETATM   24  C   UNL     1     -44.145  62.969 -58.172  1.00  0.00     0.117 A 
HETATM   25  C   UNL     1     -43.175  63.844 -58.651  1.00  0.00     0.042 A 
HETATM   26  F   UNL     1     -44.852  62.232 -59.039  1.00  0.00    -0.206 F 
HETATM   27  C   UNL     1     -42.424  64.597 -57.751  1.00  0.00     0.004 A 
HETATM   28  C   UNL     1     -42.653  64.472 -56.379  1.00  0.00     0.017 A 
ENDBRANCH  19  22
ENDBRANCH   1  18
BRANCH  12  29
HETATM   29  C   UNL     1     -41.643  54.983 -52.248  1.00  0.00     0.012 C 
HETATM   30  C   UNL     1     -40.596  54.233 -51.864  1.00  0.00     0.012 C 
BRANCH  30  31
HETATM   31  C   UNL     1     -40.321  52.879 -52.359  1.00  0.00    -0.036 A 
HETATM   32  C   UNL     1     -40.508  52.607 -53.722  1.00  0.00     0.014 A 
HETATM   33  C   UNL     1     -40.206  51.348 -54.247  1.00  0.00     0.037 A 
HETATM   34  C   UNL     1     -39.704  50.361 -53.407  1.00  0.00     0.065 A 
HETATM   35  C   UNL     1     -39.499  50.614 -52.056  1.00  0.00     0.037 A 
HETATM   36  C   UNL     1     -39.803  51.873 -51.533  1.00  0.00     0.014 A 
BRANCH  34  37
HETATM   37  O   UNL     1     -39.389  49.121 -53.876  1.00  0.00    -0.361 OA
HETATM   38  H   UNL     1     -38.817  48.680 -53.227  1.00  0.00     0.217 HD
ENDBRANCH  34  37
ENDBRANCH  30  31
ENDBRANCH  12  29
TORSDOF 5
ENDMDL
MODEL 9
REMARK VINA RESULT:      -7.7      4.057      6.750
REMARK  5 active torsions:
REMARK  status: ('A' for Active; 'I' for Inactive)
REMARK    1  A    between atoms: C_6  and  C_7 
REMARK       I    between atoms: C_7  and  N_8 
REMARK    2  A    between atoms: N_8  and  C_9 
REMARK    3  A    between atoms: C_20  and  C_21 
REMARK    4  A    between atoms: C_22  and  C_23 
REMARK    5  A    between atoms: C_26  and  O_27 
ROOT
HETATM    1  C   UNL     1     -44.873  62.885 -52.204  1.00  0.00     0.118 C 
HETATM    2  C   UNL     1     -44.664  61.468 -52.788  1.00  0.00     0.202 C 
HETATM    3  N   UNL     1     -43.316  61.458 -53.320  1.00  0.00    -0.332 N 
HETATM    4  C   UNL     1     -42.618  60.330 -53.660  1.00  0.00     0.257 C 
HETATM    5  O   UNL     1     -41.440  60.355 -54.004  1.00  0.00    -0.267 OA
HETATM    6  C   UNL     1     -43.331  59.025 -53.599  1.00  0.00     0.059 A 
HETATM    7  C   UNL     1     -44.644  58.833 -54.068  1.00  0.00     0.050 A 
HETATM    8  N   UNL     1     -45.525  59.859 -54.461  1.00  0.00    -0.324 N 
HETATM    9  C   UNL     1     -45.588  61.142 -53.964  1.00  0.00     0.247 C 
HETATM   10  O   UNL     1     -46.393  61.936 -54.450  1.00  0.00    -0.271 OA
HETATM   11  C   UNL     1     -42.576  57.925 -53.159  1.00  0.00     0.030 A 
HETATM   12  C   UNL     1     -43.116  56.635 -53.162  1.00  0.00    -0.035 A 
HETATM   13  C   UNL     1     -44.386  56.440 -53.711  1.00  0.00     0.013 A 
HETATM   14  C   UNL     1     -45.137  57.526 -54.170  1.00  0.00     0.031 A 
HETATM   15  C   UNL     1     -42.815  62.796 -53.513  1.00  0.00     0.129 C 
HETATM   16  C   UNL     1     -43.542  63.617 -52.465  1.00  0.00     0.047 C 
HETATM   17  H   UNL     1     -46.316  59.626 -55.051  1.00  0.00     0.169 HD
ENDROOT
BRANCH   1  18
HETATM   18  N   UNL     1     -45.149  62.877 -50.760  1.00  0.00    -0.350 N 
HETATM   19  C   UNL     1     -45.240  61.695 -50.055  1.00  0.00     0.252 C 
HETATM   20  O   UNL     1     -45.070  60.594 -50.565  1.00  0.00    -0.268 OA
HETATM   21  H   UNL     1     -45.588  63.696 -50.362  1.00  0.00     0.163 HD
BRANCH  19  22
HETATM   22  C   UNL     1     -45.545  61.810 -48.604  1.00  0.00     0.035 A 
HETATM   23  C   UNL     1     -44.679  61.301 -47.631  1.00  0.00     0.059 A 
HETATM   24  C   UNL     1     -45.031  61.399 -46.289  1.00  0.00     0.117 A 
HETATM   25  C   UNL     1     -46.229  61.987 -45.897  1.00  0.00     0.042 A 
HETATM   26  F   UNL     1     -44.204  60.906 -45.357  1.00  0.00    -0.206 F 
HETATM   27  C   UNL     1     -47.100  62.483 -46.865  1.00  0.00     0.004 A 
HETATM   28  C   UNL     1     -46.762  62.390 -48.217  1.00  0.00     0.017 A 
ENDBRANCH  19  22
ENDBRANCH   1  18
BRANCH  12  29
HETATM   29  C   UNL     1     -42.378  55.483 -52.629  1.00  0.00     0.012 C 
HETATM   30  C   UNL     1     -41.946  54.484 -53.416  1.00  0.00     0.012 C 
BRANCH  30  31
HETATM   31  C   UNL     1     -41.163  53.336 -52.943  1.00  0.00    -0.036 A 
HETATM   32  C   UNL     1     -40.644  52.438 -53.886  1.00  0.00     0.014 A 
HETATM   33  C   UNL     1     -39.847  51.362 -53.485  1.00  0.00     0.037 A 
HETATM   34  C   UNL     1     -39.560  51.193 -52.136  1.00  0.00     0.065 A 
HETATM   35  C   UNL     1     -40.054  52.079 -51.186  1.00  0.00     0.037 A 
HETATM   36  C   UNL     1     -40.851  53.153 -51.590  1.00  0.00     0.014 A 
BRANCH  34  37
HETATM   37  O   UNL     1     -38.781  50.162 -51.699  1.00  0.00    -0.361 OA
HETATM   38  H   UNL     1     -38.883  49.416 -52.312  1.00  0.00     0.217 HD
ENDBRANCH  34  37
ENDBRANCH  30  31
ENDBRANCH  12  29
TORSDOF 5
ENDMDL
MODEL 10
REMARK VINA RESULT:      -7.5      4.608     10.378
REMARK  5 active torsions:
REMARK  status: ('A' for Active; 'I' for Inactive)
REMARK    1  A    between atoms: C_6  and  C_7 
REMARK       I    between atoms: C_7  and  N_8 
REMARK    2  A    between atoms: N_8  and  C_9 
REMARK    3  A    between atoms: C_20  and  C_21 
REMARK    4  A    between atoms: C_22  and  C_23 
REMARK    5  A    between atoms: C_26  and  O_27 
ROOT
HETATM    1  C   UNL     1     -42.662  57.788 -56.121  1.00  0.00     0.118 C 
HETATM    2  C   UNL     1     -43.397  59.145 -56.031  1.00  0.00     0.202 C 
HETATM    3  N   UNL     1     -44.429  59.100 -57.048  1.00  0.00    -0.332 N 
HETATM    4  C   UNL     1     -45.492  59.960 -57.122  1.00  0.00     0.257 C 
HETATM    5  O   UNL     1     -46.403  59.824 -57.934  1.00  0.00    -0.267 OA
HETATM    6  C   UNL     1     -45.533  61.101 -56.167  1.00  0.00     0.059 A 
HETATM    7  C   UNL     1     -44.412  61.888 -55.845  1.00  0.00     0.050 A 
HETATM    8  N   UNL     1     -43.082  61.595 -56.208  1.00  0.00    -0.324 N 
HETATM    9  C   UNL     1     -42.516  60.350 -56.371  1.00  0.00     0.247 C 
HETATM   10  O   UNL     1     -41.343  60.266 -56.735  1.00  0.00    -0.271 OA
HETATM   11  C   UNL     1     -46.802  61.456 -55.679  1.00  0.00     0.030 A 
HETATM   12  C   UNL     1     -46.969  62.576 -54.858  1.00  0.00    -0.035 A 
HETATM   13  C   UNL     1     -45.867  63.401 -54.616  1.00  0.00     0.013 A 
HETATM   14  C   UNL     1     -44.604  63.066 -55.115  1.00  0.00     0.031 A 
HETATM   15  C   UNL     1     -44.164  58.073 -58.023  1.00  0.00     0.129 C 
HETATM   16  C   UNL     1     -43.378  57.028 -57.254  1.00  0.00     0.047 C 
HETATM   17  H   UNL     1     -42.396  62.340 -56.198  1.00  0.00     0.169 HD
ENDROOT
BRANCH   1  18
HETATM   18  N   UNL     1     -42.747  57.004 -54.880  1.00  0.00    -0.350 N 
HETATM   19  C   UNL     1     -41.886  57.234 -53.827  1.00  0.00     0.252 C 
HETATM   20  O   UNL     1     -41.030  58.110 -53.839  1.00  0.00    -0.268 OA
HETATM   21  H   UNL     1     -43.203  56.102 -54.926  1.00  0.00     0.163 HD
BRANCH  19  22
HETATM   22  C   UNL     1     -42.052  56.363 -52.633  1.00  0.00     0.035 A 
HETATM   23  C   UNL     1     -42.957  55.296 -52.625  1.00  0.00     0.059 A 
HETATM   24  C   UNL     1     -43.104  54.539 -51.468  1.00  0.00     0.117 A 
HETATM   25  C   UNL     1     -42.375  54.824 -50.319  1.00  0.00     0.042 A 
HETATM   26  F   UNL     1     -43.975  53.520 -51.459  1.00  0.00    -0.206 F 
HETATM   27  C   UNL     1     -41.483  55.895 -50.319  1.00  0.00     0.004 A 
HETATM   28  C   UNL     1     -41.326  56.668 -51.472  1.00  0.00     0.017 A 
ENDBRANCH  19  22
ENDBRANCH   1  18
BRANCH  12  29
HETATM   29  C   UNL     1     -48.267  62.920 -54.266  1.00  0.00     0.012 C 
HETATM   30  C   UNL     1     -48.803  62.213 -53.258  1.00  0.00     0.012 C 
BRANCH  30  31
HETATM   31  C   UNL     1     -50.072  62.542 -52.598  1.00  0.00    -0.036 A 
HETATM   32  C   UNL     1     -51.264  62.042 -53.140  1.00  0.00     0.014 A 
HETATM   33  C   UNL     1     -52.490  62.285 -52.514  1.00  0.00     0.037 A 
HETATM   34  C   UNL     1     -52.520  63.020 -51.335  1.00  0.00     0.065 A 
HETATM   35  C   UNL     1     -51.348  63.514 -50.775  1.00  0.00     0.037 A 
HETATM   36  C   UNL     1     -50.125  63.271 -51.403  1.00  0.00     0.014 A 
BRANCH  34  37
HETATM   37  O   UNL     1     -53.692  63.276 -50.686  1.00  0.00    -0.361 OA
HETATM   38  H   UNL     1     -53.614  64.129 -50.230  1.00  0.00     0.217 HD
ENDBRANCH  34  37
ENDBRANCH  30  31
ENDBRANCH  12  29
TORSDOF 5
ENDMDL
