MODEL 1
REMARK VINA RESULT:      -8.0      0.000      0.000
REMARK  6 active torsions:
REMARK  status: ('A' for Active; 'I' for Inactive)
REMARK    1  A    between atoms: N_2  and  C_4 
REMARK    2  A    between atoms: C_4  and  C_5 
REMARK    3  A    between atoms: C_5  and  C_6 
REMARK    4  A    between atoms: C_6  and  N_7 
REMARK    5  A    between atoms: C_17  and  C_18 
REMARK    6  A    between atoms: C_26  and  O_27 
ROOT
HETATM    1  N   UNL     1     -44.200  57.310 -56.014  1.00  0.00    -0.327 N 
HETATM    2  C   UNL     1     -43.841  57.010 -54.757  1.00  0.00     0.113 C 
HETATM    3  N   UNL     1     -44.343  57.594 -53.683  1.00  0.00    -0.385 N 
HETATM    4  H   UNL     1     -44.026  57.363 -52.747  1.00  0.00     0.157 HD
HETATM    5  H   UNL     1     -44.983  58.374 -53.702  1.00  0.00     0.157 HD
HETATM    6  C   UNL     1     -42.810  55.935 -54.577  1.00  0.00     0.052 C 
HETATM    7  C   UNL     1     -42.285  55.365 -55.677  1.00  0.00     0.182 C 
HETATM    8  O   UNL     1     -41.344  54.348 -55.625  1.00  0.00    -0.291 OA
HETATM    9  C   UNL     1     -41.039  53.760 -54.425  1.00  0.00     0.087 A 
HETATM   10  C   UNL     1     -41.506  54.263 -53.210  1.00  0.00    -0.011 A 
HETATM   11  C   UNL     1     -42.346  55.519 -53.194  1.00  0.00     0.095 C 
HETATM   12  C   UNL     1     -40.228  52.624 -54.474  1.00  0.00     0.074 A 
HETATM   13  C   UNL     1     -39.897  51.978 -53.289  1.00  0.00     0.068 A 
HETATM   14  C   UNL     1     -40.363  52.449 -52.068  1.00  0.00     0.037 A 
HETATM   15  C   UNL     1     -41.166  53.589 -52.025  1.00  0.00     0.014 A 
HETATM   16  N   UNL     1     -42.587  55.784 -56.940  1.00  0.00    -0.219 NA
HETATM   17  C   UNL     1     -43.451  56.716 -57.088  1.00  0.00     0.214 C 
ENDROOT
BRANCH   1  18
HETATM   18  C   UNL     1     -45.205  58.360 -56.328  1.00  0.00     0.133 C 
BRANCH  18  19
HETATM   19  C   UNL     1     -45.531  58.572 -57.819  1.00  0.00     0.048 C 
BRANCH  19  20
HETATM   20  C   UNL     1     -46.682  57.710 -58.342  1.00  0.00     0.235 C 
BRANCH  20  21
HETATM   21  N   UNL     1     -46.206  56.745 -59.415  1.00  0.00    -0.079 N 
HETATM   22  C   UNL     1     -44.998  57.219 -60.196  1.00  0.00     0.269 C 
HETATM   23  H   UNL     1     -45.934  55.852 -58.978  1.00  0.00     0.278 HD
HETATM   24  C   UNL     1     -47.324  56.385 -60.376  1.00  0.00     0.269 C 
ENDBRANCH  20  21
ENDBRANCH  19  20
ENDBRANCH  18  19
ENDBRANCH   1  18
BRANCH  11  25
HETATM   25  C   UNL     1     -41.625  56.663 -52.475  1.00  0.00    -0.045 A 
HETATM   26  C   UNL     1     -41.801  56.886 -51.097  1.00  0.00     0.010 A 
HETATM   27  C   UNL     1     -41.125  57.922 -50.450  1.00  0.00     0.024 A 
HETATM   28  C   UNL     1     -40.280  58.758 -51.175  1.00  0.00     0.034 A 
HETATM   29 CL   UNL     1     -39.436  60.022 -50.376  1.00  0.00    -0.084 Cl
HETATM   30  C   UNL     1     -40.117  58.575 -52.546  1.00  0.00     0.024 A 
HETATM   31  C   UNL     1     -40.791  57.537 -53.197  1.00  0.00     0.010 A 
ENDBRANCH  11  25
BRANCH  13  32
HETATM   32  O   UNL     1     -39.110  50.867 -53.274  1.00  0.00    -0.361 OA
HETATM   33  H   UNL     1     -38.923  50.606 -52.357  1.00  0.00     0.217 HD
ENDBRANCH  13  32
TORSDOF 6
ENDMDL
MODEL 2
REMARK VINA RESULT:      -8.0      1.521      2.631
REMARK  6 active torsions:
REMARK  status: ('A' for Active; 'I' for Inactive)
REMARK    1  A    between atoms: N_2  and  C_4 
REMARK    2  A    between atoms: C_4  and  C_5 
REMARK    3  A    between atoms: C_5  and  C_6 
REMARK    4  A    between atoms: C_6  and  N_7 
REMARK    5  A    between atoms: C_17  and  C_18 
REMARK    6  A    between atoms: C_26  and  O_27 
ROOT
HETATM    1  N   UNL     1     -44.373  57.521 -55.804  1.00  0.00    -0.327 N 
HETATM    2  C   UNL     1     -43.942  57.178 -54.581  1.00  0.00     0.113 C 
HETATM    3  N   UNL     1     -44.378  57.728 -53.460  1.00  0.00    -0.385 N 
HETATM    4  H   UNL     1     -44.008  57.464 -52.553  1.00  0.00     0.157 HD
HETATM    5  H   UNL     1     -45.015  58.508 -53.416  1.00  0.00     0.157 HD
HETATM    6  C   UNL     1     -42.906  56.096 -54.497  1.00  0.00     0.052 C 
HETATM    7  C   UNL     1     -42.449  55.561 -55.644  1.00  0.00     0.182 C 
HETATM    8  O   UNL     1     -41.511  54.541 -55.681  1.00  0.00    -0.291 OA
HETATM    9  C   UNL     1     -41.138  53.913 -54.521  1.00  0.00     0.087 A 
HETATM   10  C   UNL     1     -41.532  54.376 -53.265  1.00  0.00    -0.011 A 
HETATM   11  C   UNL     1     -42.364  55.633 -53.158  1.00  0.00     0.095 C 
HETATM   12  C   UNL     1     -40.336  52.778 -54.655  1.00  0.00     0.074 A 
HETATM   13  C   UNL     1     -39.939  52.092 -53.513  1.00  0.00     0.068 A 
HETATM   14  C   UNL     1     -40.332  52.523 -52.252  1.00  0.00     0.037 A 
HETATM   15  C   UNL     1     -41.126  53.663 -52.125  1.00  0.00     0.014 A 
HETATM   16  N   UNL     1     -42.823  56.023 -56.873  1.00  0.00    -0.219 NA
HETATM   17  C   UNL     1     -43.690  56.961 -56.939  1.00  0.00     0.214 C 
ENDROOT
BRANCH   1  18
HETATM   18  C   UNL     1     -45.390  58.582 -56.024  1.00  0.00     0.133 C 
BRANCH  18  19
HETATM   19  C   UNL     1     -44.858  59.964 -56.446  1.00  0.00     0.048 C 
BRANCH  19  20
HETATM   20  C   UNL     1     -44.609  60.927 -55.282  1.00  0.00     0.235 C 
BRANCH  20  21
HETATM   21  N   UNL     1     -43.124  61.179 -55.083  1.00  0.00    -0.079 N 
HETATM   22  C   UNL     1     -42.221  60.364 -55.985  1.00  0.00     0.269 C 
HETATM   23  H   UNL     1     -42.913  62.168 -55.283  1.00  0.00     0.278 HD
HETATM   24  C   UNL     1     -42.714  60.978 -53.635  1.00  0.00     0.269 C 
ENDBRANCH  20  21
ENDBRANCH  19  20
ENDBRANCH  18  19
ENDBRANCH   1  18
BRANCH  11  25
HETATM   25  C   UNL     1     -41.598  56.751 -52.445  1.00  0.00    -0.045 A 
HETATM   26  C   UNL     1     -41.732  56.960 -51.060  1.00  0.00     0.010 A 
HETATM   27  C   UNL     1     -41.015  57.972 -50.419  1.00  0.00     0.024 A 
HETATM   28  C   UNL     1     -40.170  58.798 -51.157  1.00  0.00     0.034 A 
HETATM   29 CL   UNL     1     -39.276  60.031 -50.365  1.00  0.00    -0.084 Cl
HETATM   30  C   UNL     1     -40.048  58.628 -52.533  1.00  0.00     0.024 A 
HETATM   31  C   UNL     1     -40.764  57.615 -53.178  1.00  0.00     0.010 A 
ENDBRANCH  11  25
BRANCH  13  32
HETATM   32  O   UNL     1     -39.158  50.979 -53.581  1.00  0.00    -0.361 OA
HETATM   33  H   UNL     1     -39.530  50.352 -54.223  1.00  0.00     0.217 HD
ENDBRANCH  13  32
TORSDOF 6
ENDMDL
MODEL 3
REMARK VINA RESULT:      -8.0      3.743      6.824
REMARK  6 active torsions:
REMARK  status: ('A' for Active; 'I' for Inactive)
REMARK    1  A    between atoms: N_2  and  C_4 
REMARK    2  A    between atoms: C_4  and  C_5 
REMARK    3  A    between atoms: C_5  and  C_6 
REMARK    4  A    between atoms: C_6  and  N_7 
REMARK    5  A    between atoms: C_17  and  C_18 
REMARK    6  A    between atoms: C_26  and  O_27 
ROOT
HETATM    1  N   UNL     1     -43.783  58.386 -52.593  1.00  0.00    -0.327 N 
HETATM    2  C   UNL     1     -43.791  57.306 -53.388  1.00  0.00     0.113 C 
HETATM    3  N   UNL     1     -44.264  56.124 -53.029  1.00  0.00    -0.385 N 
HETATM    4  H   UNL     1     -44.228  55.321 -53.647  1.00  0.00     0.157 HD
HETATM    5  H   UNL     1     -44.591  55.896 -52.102  1.00  0.00     0.157 HD
HETATM    6  C   UNL     1     -43.234  57.468 -54.771  1.00  0.00     0.052 C 
HETATM    7  C   UNL     1     -42.730  58.667 -55.118  1.00  0.00     0.182 C 
HETATM    8  O   UNL     1     -42.212  58.934 -56.376  1.00  0.00    -0.291 OA
HETATM    9  C   UNL     1     -42.356  58.015 -57.383  1.00  0.00     0.087 A 
HETATM   10  C   UNL     1     -42.850  56.730 -57.152  1.00  0.00    -0.011 A 
HETATM   11  C   UNL     1     -43.209  56.307 -55.747  1.00  0.00     0.095 C 
HETATM   12  C   UNL     1     -41.977  58.425 -58.663  1.00  0.00     0.074 A 
HETATM   13  C   UNL     1     -42.114  57.540 -59.725  1.00  0.00     0.068 A 
HETATM   14  C   UNL     1     -42.619  56.261 -59.525  1.00  0.00     0.037 A 
HETATM   15  C   UNL     1     -42.987  55.854 -58.242  1.00  0.00     0.014 A 
HETATM   16  N   UNL     1     -42.628  59.706 -54.239  1.00  0.00    -0.219 NA
HETATM   17  C   UNL     1     -43.086  59.556 -53.054  1.00  0.00     0.214 C 
ENDROOT
BRANCH   1  18
HETATM   18  C   UNL     1     -44.300  58.356 -51.199  1.00  0.00     0.133 C 
BRANCH  18  19
HETATM   19  C   UNL     1     -45.709  58.937 -50.978  1.00  0.00     0.048 C 
BRANCH  19  20
HETATM   20  C   UNL     1     -45.725  60.395 -50.515  1.00  0.00     0.235 C 
BRANCH  20  21
HETATM   21  N   UNL     1     -44.761  60.618 -49.361  1.00  0.00    -0.079 N 
HETATM   22  C   UNL     1     -45.425  60.971 -48.047  1.00  0.00     0.269 C 
HETATM   23  H   UNL     1     -44.224  59.755 -49.190  1.00  0.00     0.278 HD
HETATM   24  C   UNL     1     -43.717  61.666 -49.702  1.00  0.00     0.269 C 
ENDBRANCH  20  21
ENDBRANCH  19  20
ENDBRANCH  18  19
ENDBRANCH   1  18
BRANCH  11  25
HETATM   25  C   UNL     1     -42.297  55.179 -55.254  1.00  0.00    -0.045 A 
HETATM   26  C   UNL     1     -40.924  55.393 -55.034  1.00  0.00     0.010 A 
HETATM   27  C   UNL     1     -40.107  54.361 -54.568  1.00  0.00     0.024 A 
HETATM   28  C   UNL     1     -40.649  53.100 -54.334  1.00  0.00     0.034 A 
HETATM   29 CL   UNL     1     -39.646  51.835 -53.746  1.00  0.00    -0.084 Cl
HETATM   30  C   UNL     1     -41.998  52.858 -54.577  1.00  0.00     0.024 A 
HETATM   31  C   UNL     1     -42.820  53.890 -55.042  1.00  0.00     0.010 A 
ENDBRANCH  11  25
BRANCH  13  32
HETATM   32  O   UNL     1     -41.762  57.884 -60.995  1.00  0.00    -0.361 OA
HETATM   33  H   UNL     1     -40.840  57.630 -61.163  1.00  0.00     0.217 HD
ENDBRANCH  13  32
TORSDOF 6
ENDMDL
MODEL 4
REMARK VINA RESULT:      -7.6      2.975      4.796
REMARK  6 active torsions:
REMARK  status: ('A' for Active; 'I' for Inactive)
REMARK    1  A    between atoms: N_2  and  C_4 
REMARK    2  A    between atoms: C_4  and  C_5 
REMARK    3  A    between atoms: C_5  and  C_6 
REMARK    4  A    between atoms: C_6  and  N_7 
REMARK    5  A    between atoms: C_17  and  C_18 
REMARK    6  A    between atoms: C_26  and  O_27 
ROOT
HETATM    1  N   UNL     1     -44.401  57.565 -57.238  1.00  0.00    -0.327 N 
HETATM    2  C   UNL     1     -43.224  57.250 -56.677  1.00  0.00     0.113 C 
HETATM    3  N   UNL     1     -42.225  56.673 -57.324  1.00  0.00    -0.385 N 
HETATM    4  H   UNL     1     -41.359  56.422 -56.860  1.00  0.00     0.157 HD
HETATM    5  H   UNL     1     -42.275  56.342 -58.275  1.00  0.00     0.157 HD
HETATM    6  C   UNL     1     -43.043  57.588 -55.227  1.00  0.00     0.052 C 
HETATM    7  C   UNL     1     -44.074  58.150 -54.570  1.00  0.00     0.182 C 
HETATM    8  O   UNL     1     -44.008  58.524 -53.237  1.00  0.00    -0.291 OA
HETATM    9  C   UNL     1     -42.807  58.490 -52.577  1.00  0.00     0.087 A 
HETATM   10  C   UNL     1     -41.665  57.919 -53.140  1.00  0.00    -0.011 A 
HETATM   11  C   UNL     1     -41.744  57.280 -54.507  1.00  0.00     0.095 C 
HETATM   12  C   UNL     1     -42.779  59.054 -51.300  1.00  0.00     0.074 A 
HETATM   13  C   UNL     1     -41.585  59.059 -50.589  1.00  0.00     0.068 A 
HETATM   14  C   UNL     1     -40.430  58.513 -51.135  1.00  0.00     0.037 A 
HETATM   15  C   UNL     1     -40.466  57.943 -52.407  1.00  0.00     0.014 A 
HETATM   16  N   UNL     1     -45.297  58.342 -55.145  1.00  0.00    -0.219 NA
HETATM   17  C   UNL     1     -45.453  58.032 -56.376  1.00  0.00     0.214 C 
ENDROOT
BRANCH   1  18
HETATM   18  C   UNL     1     -44.709  57.277 -58.664  1.00  0.00     0.133 C 
BRANCH  18  19
HETATM   19  C   UNL     1     -45.213  58.462 -59.508  1.00  0.00     0.048 C 
BRANCH  19  20
HETATM   20  C   UNL     1     -46.722  58.459 -59.764  1.00  0.00     0.235 C 
BRANCH  20  21
HETATM   21  N   UNL     1     -47.046  57.923 -61.148  1.00  0.00    -0.079 N 
HETATM   22  C   UNL     1     -48.135  58.682 -61.877  1.00  0.00     0.269 C 
HETATM   23  H   UNL     1     -46.207  57.978 -61.744  1.00  0.00     0.278 HD
HETATM   24  C   UNL     1     -47.397  56.446 -61.105  1.00  0.00     0.269 C 
ENDBRANCH  20  21
ENDBRANCH  19  20
ENDBRANCH  18  19
ENDBRANCH   1  18
BRANCH  11  25
HETATM   25  C   UNL     1     -41.487  55.772 -54.433  1.00  0.00    -0.045 A 
HETATM   26  C   UNL     1     -42.420  54.900 -53.842  1.00  0.00     0.010 A 
HETATM   27  C   UNL     1     -42.182  53.525 -53.797  1.00  0.00     0.024 A 
HETATM   28  C   UNL     1     -41.001  53.008 -54.324  1.00  0.00     0.034 A 
HETATM   29 CL   UNL     1     -40.717  51.314 -54.282  1.00  0.00    -0.084 Cl
HETATM   30  C   UNL     1     -40.050  53.857 -54.884  1.00  0.00     0.024 A 
HETATM   31  C   UNL     1     -40.286  55.234 -54.933  1.00  0.00     0.010 A 
ENDBRANCH  11  25
BRANCH  13  32
HETATM   32  O   UNL     1     -41.497  59.595 -49.340  1.00  0.00    -0.361 OA
HETATM   33  H   UNL     1     -42.145  60.312 -49.241  1.00  0.00     0.217 HD
ENDBRANCH  13  32
TORSDOF 6
ENDMDL
MODEL 5
REMARK VINA RESULT:      -7.5      3.130      5.035
REMARK  6 active torsions:
REMARK  status: ('A' for Active; 'I' for Inactive)
REMARK    1  A    between atoms: N_2  and  C_4 
REMARK    2  A    between atoms: C_4  and  C_5 
REMARK    3  A    between atoms: C_5  and  C_6 
REMARK    4  A    between atoms: C_6  and  N_7 
REMARK    5  A    between atoms: C_17  and  C_18 
REMARK    6  A    between atoms: C_26  and  O_27 
ROOT
HETATM    1  N   UNL     1     -44.371  57.581 -57.235  1.00  0.00    -0.327 N 
HETATM    2  C   UNL     1     -43.198  57.259 -56.670  1.00  0.00     0.113 C 
HETATM    3  N   UNL     1     -42.198  56.683 -57.315  1.00  0.00    -0.385 N 
HETATM    4  H   UNL     1     -41.334  56.427 -56.848  1.00  0.00     0.157 HD
HETATM    5  H   UNL     1     -42.244  56.358 -58.268  1.00  0.00     0.157 HD
HETATM    6  C   UNL     1     -43.024  57.588 -55.217  1.00  0.00     0.052 C 
HETATM    7  C   UNL     1     -44.057  58.150 -54.562  1.00  0.00     0.182 C 
HETATM    8  O   UNL     1     -43.996  58.515 -53.226  1.00  0.00    -0.291 OA
HETATM    9  C   UNL     1     -42.799  58.473 -52.560  1.00  0.00     0.087 A 
HETATM   10  C   UNL     1     -41.656  57.903 -53.121  1.00  0.00    -0.011 A 
HETATM   11  C   UNL     1     -41.729  57.272 -54.492  1.00  0.00     0.095 C 
HETATM   12  C   UNL     1     -42.776  59.030 -51.279  1.00  0.00     0.074 A 
HETATM   13  C   UNL     1     -41.586  59.027 -50.562  1.00  0.00     0.068 A 
HETATM   14  C   UNL     1     -40.430  58.481 -51.105  1.00  0.00     0.037 A 
HETATM   15  C   UNL     1     -40.461  57.919 -52.381  1.00  0.00     0.014 A 
HETATM   16  N   UNL     1     -45.276  58.348 -55.142  1.00  0.00    -0.219 NA
HETATM   17  C   UNL     1     -45.427  58.046 -56.376  1.00  0.00     0.214 C 
ENDROOT
BRANCH   1  18
HETATM   18  C   UNL     1     -44.673  57.303 -58.664  1.00  0.00     0.133 C 
BRANCH  18  19
HETATM   19  C   UNL     1     -44.977  58.525 -59.550  1.00  0.00     0.048 C 
BRANCH  19  20
HETATM   20  C   UNL     1     -44.117  59.754 -59.248  1.00  0.00     0.235 C 
BRANCH  20  21
HETATM   21  N   UNL     1     -42.646  59.476 -59.511  1.00  0.00    -0.079 N 
HETATM   22  C   UNL     1     -41.699  60.117 -58.519  1.00  0.00     0.269 C 
HETATM   23  H   UNL     1     -42.474  58.461 -59.460  1.00  0.00     0.278 HD
HETATM   24  C   UNL     1     -42.249  59.869 -60.922  1.00  0.00     0.269 C 
ENDBRANCH  20  21
ENDBRANCH  19  20
ENDBRANCH  18  19
ENDBRANCH   1  18
BRANCH  11  25
HETATM   25  C   UNL     1     -41.477  55.763 -54.426  1.00  0.00    -0.045 A 
HETATM   26  C   UNL     1     -42.412  54.891 -53.837  1.00  0.00     0.010 A 
HETATM   27  C   UNL     1     -42.178  53.515 -53.798  1.00  0.00     0.024 A 
HETATM   28  C   UNL     1     -41.000  52.996 -54.330  1.00  0.00     0.034 A 
HETATM   29 CL   UNL     1     -40.721  51.302 -54.297  1.00  0.00    -0.084 Cl
HETATM   30  C   UNL     1     -40.048  53.845 -54.888  1.00  0.00     0.024 A 
HETATM   31  C   UNL     1     -40.279  55.223 -54.930  1.00  0.00     0.010 A 
ENDBRANCH  11  25
BRANCH  13  32
HETATM   32  O   UNL     1     -41.503  59.556 -49.310  1.00  0.00    -0.361 OA
HETATM   33  H   UNL     1     -40.577  59.763 -49.099  1.00  0.00     0.217 HD
ENDBRANCH  13  32
TORSDOF 6
ENDMDL
MODEL 6
REMARK VINA RESULT:      -7.3      3.160      6.881
REMARK  6 active torsions:
REMARK  status: ('A' for Active; 'I' for Inactive)
REMARK    1  A    between atoms: N_2  and  C_4 
REMARK    2  A    between atoms: C_4  and  C_5 
REMARK    3  A    between atoms: C_5  and  C_6 
REMARK    4  A    between atoms: C_6  and  N_7 
REMARK    5  A    between atoms: C_17  and  C_18 
REMARK    6  A    between atoms: C_26  and  O_27 
ROOT
HETATM    1  N   UNL     1     -41.656  54.930 -52.418  1.00  0.00    -0.327 N 
HETATM    2  C   UNL     1     -41.589  56.103 -53.064  1.00  0.00     0.113 C 
HETATM    3  N   UNL     1     -41.089  57.210 -52.542  1.00  0.00    -0.385 N 
HETATM    4  H   UNL     1     -41.080  58.088 -53.051  1.00  0.00     0.157 HD
HETATM    5  H   UNL     1     -40.783  57.304 -51.586  1.00  0.00     0.157 HD
HETATM    6  C   UNL     1     -42.110  56.142 -54.471  1.00  0.00     0.052 C 
HETATM    7  C   UNL     1     -42.642  55.017 -54.984  1.00  0.00     0.182 C 
HETATM    8  O   UNL     1     -43.130  54.935 -56.279  1.00  0.00    -0.291 OA
HETATM    9  C   UNL     1     -42.927  55.971 -57.153  1.00  0.00     0.087 A 
HETATM   10  C   UNL     1     -42.398  57.196 -56.744  1.00  0.00    -0.011 A 
HETATM   11  C   UNL     1     -42.068  57.420 -55.287  1.00  0.00     0.095 C 
HETATM   12  C   UNL     1     -43.280  55.744 -58.485  1.00  0.00     0.074 A 
HETATM   13  C   UNL     1     -43.083  56.754 -59.419  1.00  0.00     0.068 A 
HETATM   14  C   UNL     1     -42.542  57.977 -59.040  1.00  0.00     0.037 A 
HETATM   15  C   UNL     1     -42.199  58.201 -57.706  1.00  0.00     0.014 A 
HETATM   16  N   UNL     1     -42.803  53.878 -54.251  1.00  0.00    -0.219 NA
HETATM   17  C   UNL     1     -42.377  53.856 -53.045  1.00  0.00     0.214 C 
ENDROOT
BRANCH   1  18
HETATM   18  C   UNL     1     -41.180  54.761 -51.019  1.00  0.00     0.133 C 
BRANCH  18  19
HETATM   19  C   UNL     1     -39.976  53.822 -50.814  1.00  0.00     0.048 C 
BRANCH  19  20
HETATM   20  C   UNL     1     -40.351  52.356 -50.582  1.00  0.00     0.235 C 
BRANCH  20  21
HETATM   21  N   UNL     1     -39.455  51.424 -51.380  1.00  0.00    -0.079 N 
HETATM   22  C   UNL     1     -39.635  51.512 -52.881  1.00  0.00     0.269 C 
HETATM   23  H   UNL     1     -38.468  51.653 -51.194  1.00  0.00     0.278 HD
HETATM   24  C   UNL     1     -39.612  49.982 -50.932  1.00  0.00     0.269 C 
ENDBRANCH  20  21
ENDBRANCH  19  20
ENDBRANCH  18  19
ENDBRANCH   1  18
BRANCH  11  25
HETATM   25  C   UNL     1     -42.956  58.507 -54.674  1.00  0.00    -0.045 A 
HETATM   26  C   UNL     1     -44.317  58.272 -54.405  1.00  0.00     0.010 A 
HETATM   27  C   UNL     1     -45.112  59.265 -53.830  1.00  0.00     0.024 A 
HETATM   28  C   UNL     1     -44.562  60.510 -53.535  1.00  0.00     0.034 A 
HETATM   29 CL   UNL     1     -45.537  61.726 -52.813  1.00  0.00    -0.084 Cl
HETATM   30  C   UNL     1     -43.226  60.774 -53.824  1.00  0.00     0.024 A 
HETATM   31  C   UNL     1     -42.426  59.781 -54.397  1.00  0.00     0.010 A 
ENDBRANCH  11  25
BRANCH  13  32
HETATM   32  O   UNL     1     -43.407  56.591 -60.731  1.00  0.00    -0.361 OA
HETATM   33  H   UNL     1     -42.601  56.592 -61.273  1.00  0.00     0.217 HD
ENDBRANCH  13  32
TORSDOF 6
ENDMDL
MODEL 7
REMARK VINA RESULT:      -7.0      4.097      7.815
REMARK  6 active torsions:
REMARK  status: ('A' for Active; 'I' for Inactive)
REMARK    1  A    between atoms: N_2  and  C_4 
REMARK    2  A    between atoms: C_4  and  C_5 
REMARK    3  A    between atoms: C_5  and  C_6 
REMARK    4  A    between atoms: C_6  and  N_7 
REMARK    5  A    between atoms: C_17  and  C_18 
REMARK    6  A    between atoms: C_26  and  O_27 
ROOT
HETATM    1  N   UNL     1     -42.317  55.061 -52.117  1.00  0.00    -0.327 N 
HETATM    2  C   UNL     1     -43.288  55.741 -52.744  1.00  0.00     0.113 C 
HETATM    3  N   UNL     1     -44.081  55.222 -53.666  1.00  0.00    -0.385 N 
HETATM    4  H   UNL     1     -44.786  55.774 -54.142  1.00  0.00     0.157 HD
HETATM    5  H   UNL     1     -43.984  54.292 -54.045  1.00  0.00     0.157 HD
HETATM    6  C   UNL     1     -43.479  57.178 -52.357  1.00  0.00     0.052 C 
HETATM    7  C   UNL     1     -42.650  57.706 -51.438  1.00  0.00     0.182 C 
HETATM    8  O   UNL     1     -42.752  59.014 -50.991  1.00  0.00    -0.291 OA
HETATM    9  C   UNL     1     -43.832  59.778 -51.353  1.00  0.00     0.087 A 
HETATM   10  C   UNL     1     -44.756  59.353 -52.308  1.00  0.00    -0.011 A 
HETATM   11  C   UNL     1     -44.557  58.027 -53.004  1.00  0.00     0.095 C 
HETATM   12  C   UNL     1     -43.963  61.015 -50.719  1.00  0.00     0.074 A 
HETATM   13  C   UNL     1     -45.045  61.826 -51.037  1.00  0.00     0.068 A 
HETATM   14  C   UNL     1     -45.989  61.419 -51.972  1.00  0.00     0.037 A 
HETATM   15  C   UNL     1     -45.848  60.185 -52.608  1.00  0.00     0.014 A 
HETATM   16  N   UNL     1     -41.597  57.015 -50.913  1.00  0.00    -0.219 NA
HETATM   17  C   UNL     1     -41.425  55.797 -51.262  1.00  0.00     0.214 C 
ENDROOT
BRANCH   1  18
HETATM   18  C   UNL     1     -42.022  53.634 -52.413  1.00  0.00     0.133 C 
BRANCH  18  19
HETATM   19  C   UNL     1     -40.538  53.267 -52.601  1.00  0.00     0.048 C 
BRANCH  19  20
HETATM   20  C   UNL     1     -40.237  52.487 -53.882  1.00  0.00     0.235 C 
BRANCH  20  21
HETATM   21  N   UNL     1     -39.439  51.228 -53.588  1.00  0.00    -0.079 N 
HETATM   22  C   UNL     1     -39.857  50.016 -54.393  1.00  0.00     0.269 C 
HETATM   23  H   UNL     1     -38.445  51.392 -53.807  1.00  0.00     0.278 HD
HETATM   24  C   UNL     1     -39.461  50.888 -52.108  1.00  0.00     0.269 C 
ENDBRANCH  20  21
ENDBRANCH  19  20
ENDBRANCH  18  19
ENDBRANCH   1  18
BRANCH  11  25
HETATM   25  C   UNL     1     -44.300  58.216 -54.502  1.00  0.00    -0.045 A 
HETATM   26  C   UNL     1     -43.056  58.670 -54.978  1.00  0.00     0.010 A 
HETATM   27  C   UNL     1     -42.829  58.822 -56.347  1.00  0.00     0.024 A 
HETATM   28  C   UNL     1     -43.846  58.540 -57.255  1.00  0.00     0.034 A 
HETATM   29 CL   UNL     1     -43.560  58.712 -58.939  1.00  0.00    -0.084 Cl
HETATM   30  C   UNL     1     -45.095  58.121 -56.803  1.00  0.00     0.024 A 
HETATM   31  C   UNL     1     -45.325  57.966 -55.433  1.00  0.00     0.010 A 
ENDBRANCH  11  25
BRANCH  13  32
HETATM   32  O   UNL     1     -45.226  63.042 -50.451  1.00  0.00    -0.361 OA
HETATM   33  H   UNL     1     -44.710  63.094 -49.630  1.00  0.00     0.217 HD
ENDBRANCH  13  32
TORSDOF 6
ENDMDL
MODEL 8
REMARK VINA RESULT:      -7.0      3.338      5.948
REMARK  6 active torsions:
REMARK  status: ('A' for Active; 'I' for Inactive)
REMARK    1  A    between atoms: N_2  and  C_4 
REMARK    2  A    between atoms: C_4  and  C_5 
REMARK    3  A    between atoms: C_5  and  C_6 
REMARK    4  A    between atoms: C_6  and  N_7 
REMARK    5  A    between atoms: C_17  and  C_18 
REMARK    6  A    between atoms: C_26  and  O_27 
ROOT
HETATM    1  N   UNL     1     -41.228  59.024 -50.892  1.00  0.00    -0.327 N 
HETATM    2  C   UNL     1     -41.208  58.658 -52.182  1.00  0.00     0.113 C 
HETATM    3  N   UNL     1     -41.207  59.508 -53.194  1.00  0.00    -0.385 N 
HETATM    4  H   UNL     1     -41.221  59.195 -54.159  1.00  0.00     0.157 HD
HETATM    5  H   UNL     1     -41.300  60.508 -53.101  1.00  0.00     0.157 HD
HETATM    6  C   UNL     1     -41.177  57.187 -52.477  1.00  0.00     0.052 C 
HETATM    7  C   UNL     1     -41.207  56.329 -51.441  1.00  0.00     0.182 C 
HETATM    8  O   UNL     1     -41.158  54.952 -51.598  1.00  0.00    -0.291 OA
HETATM    9  C   UNL     1     -40.901  54.414 -52.833  1.00  0.00     0.087 A 
HETATM   10  C   UNL     1     -40.860  55.193 -53.990  1.00  0.00    -0.011 A 
HETATM   11  C   UNL     1     -41.144  56.675 -53.905  1.00  0.00     0.095 C 
HETATM   12  C   UNL     1     -40.683  53.036 -52.881  1.00  0.00     0.074 A 
HETATM   13  C   UNL     1     -40.404  52.437 -54.104  1.00  0.00     0.068 A 
HETATM   14  C   UNL     1     -40.341  53.194 -55.268  1.00  0.00     0.037 A 
HETATM   15  C   UNL     1     -40.568  54.570 -55.214  1.00  0.00     0.014 A 
HETATM   16  N   UNL     1     -41.351  56.740 -50.148  1.00  0.00    -0.219 NA
HETATM   17  C   UNL     1     -41.398  57.994 -49.902  1.00  0.00     0.214 C 
ENDROOT
BRANCH   1  18
HETATM   18  C   UNL     1     -41.266  60.448 -50.466  1.00  0.00     0.133 C 
BRANCH  18  19
HETATM   19  C   UNL     1     -42.659  61.040 -50.180  1.00  0.00     0.048 C 
BRANCH  19  20
HETATM   20  C   UNL     1     -43.334  61.681 -51.395  1.00  0.00     0.235 C 
BRANCH  20  21
HETATM   21  N   UNL     1     -44.826  61.392 -51.413  1.00  0.00    -0.079 N 
HETATM   22  C   UNL     1     -45.704  62.611 -51.227  1.00  0.00     0.269 C 
HETATM   23  H   UNL     1     -45.087  60.985 -52.323  1.00  0.00     0.278 HD
HETATM   24  C   UNL     1     -45.201  60.334 -50.391  1.00  0.00     0.269 C 
ENDBRANCH  20  21
ENDBRANCH  19  20
ENDBRANCH  18  19
ENDBRANCH   1  18
BRANCH  11  25
HETATM   25  C   UNL     1     -42.422  57.043 -54.663  1.00  0.00    -0.045 A 
HETATM   26  C   UNL     1     -42.370  57.614 -55.948  1.00  0.00     0.010 A 
HETATM   27  C   UNL     1     -43.543  57.929 -56.637  1.00  0.00     0.024 A 
HETATM   28  C   UNL     1     -44.781  57.695 -56.042  1.00  0.00     0.034 A 
HETATM   29 CL   UNL     1     -46.223  58.068 -56.896  1.00  0.00    -0.084 Cl
HETATM   30  C   UNL     1     -44.853  57.161 -54.758  1.00  0.00     0.024 A 
HETATM   31  C   UNL     1     -43.681  56.843 -54.067  1.00  0.00     0.010 A 
ENDBRANCH  11  25
BRANCH  13  32
HETATM   32  O   UNL     1     -40.182  51.099 -54.213  1.00  0.00    -0.361 OA
HETATM   33  H   UNL     1     -39.364  50.860 -53.746  1.00  0.00     0.217 HD
ENDBRANCH  13  32
TORSDOF 6
ENDMDL
MODEL 9
REMARK VINA RESULT:      -7.0      3.135      6.481
REMARK  6 active torsions:
REMARK  status: ('A' for Active; 'I' for Inactive)
REMARK    1  A    between atoms: N_2  and  C_4 
REMARK    2  A    between atoms: C_4  and  C_5 
REMARK    3  A    between atoms: C_5  and  C_6 
REMARK    4  A    between atoms: C_6  and  N_7 
REMARK    5  A    between atoms: C_17  and  C_18 
REMARK    6  A    between atoms: C_26  and  O_27 
ROOT
HETATM    1  N   UNL     1     -41.089  54.729 -53.220  1.00  0.00    -0.327 N 
HETATM    2  C   UNL     1     -41.217  55.905 -53.852  1.00  0.00     0.113 C 
HETATM    3  N   UNL     1     -40.731  57.048 -53.399  1.00  0.00    -0.385 N 
HETATM    4  H   UNL     1     -40.872  57.925 -53.889  1.00  0.00     0.157 HD
HETATM    5  H   UNL     1     -40.287  57.164 -52.500  1.00  0.00     0.157 HD
HETATM    6  C   UNL     1     -41.954  55.905 -55.159  1.00  0.00     0.052 C 
HETATM    7  C   UNL     1     -42.469  54.742 -55.600  1.00  0.00     0.182 C 
HETATM    8  O   UNL     1     -43.146  54.623 -56.803  1.00  0.00    -0.291 OA
HETATM    9  C   UNL     1     -43.165  55.674 -57.684  1.00  0.00     0.087 A 
HETATM   10  C   UNL     1     -42.677  56.937 -57.344  1.00  0.00    -0.011 A 
HETATM   11  C   UNL     1     -42.142  57.184 -55.953  1.00  0.00     0.095 C 
HETATM   12  C   UNL     1     -43.703  55.422 -58.947  1.00  0.00     0.074 A 
HETATM   13  C   UNL     1     -43.736  56.447 -59.885  1.00  0.00     0.068 A 
HETATM   14  C   UNL     1     -43.240  57.708 -59.578  1.00  0.00     0.037 A 
HETATM   15  C   UNL     1     -42.712  57.956 -58.311  1.00  0.00     0.014 A 
HETATM   16  N   UNL     1     -42.423  53.592 -54.867  1.00  0.00    -0.219 NA
HETATM   17  C   UNL     1     -41.812  53.602 -53.743  1.00  0.00     0.214 C 
ENDROOT
BRANCH   1  18
HETATM   18  C   UNL     1     -40.388  54.596 -51.916  1.00  0.00     0.133 C 
BRANCH  18  19
HETATM   19  C   UNL     1     -41.267  54.255 -50.698  1.00  0.00     0.048 C 
BRANCH  19  20
HETATM   20  C   UNL     1     -42.144  55.410 -50.209  1.00  0.00     0.235 C 
BRANCH  20  21
HETATM   21  N   UNL     1     -43.479  55.434 -50.934  1.00  0.00    -0.079 N 
HETATM   22  C   UNL     1     -44.100  56.809 -51.061  1.00  0.00     0.269 C 
HETATM   23  H   UNL     1     -43.356  55.083 -51.895  1.00  0.00     0.278 HD
HETATM   24  C   UNL     1     -44.476  54.482 -50.296  1.00  0.00     0.269 C 
ENDBRANCH  20  21
ENDBRANCH  19  20
ENDBRANCH  18  19
ENDBRANCH   1  18
BRANCH  11  25
HETATM   25  C   UNL     1     -43.006  58.194 -55.194  1.00  0.00    -0.045 A 
HETATM   26  C   UNL     1     -42.525  59.480 -54.884  1.00  0.00     0.010 A 
HETATM   27  C   UNL     1     -43.329  60.398 -54.206  1.00  0.00     0.024 A 
HETATM   28  C   UNL     1     -44.616  60.037 -53.814  1.00  0.00     0.034 A 
HETATM   29 CL   UNL     1     -45.610  61.172 -52.994  1.00  0.00    -0.084 Cl
HETATM   30  C   UNL     1     -45.099  58.758 -54.081  1.00  0.00     0.024 A 
HETATM   31  C   UNL     1     -44.297  57.837 -54.762  1.00  0.00     0.010 A 
ENDBRANCH  11  25
BRANCH  13  32
HETATM   32  O   UNL     1     -44.247  56.260 -61.133  1.00  0.00    -0.361 OA
HETATM   33  H   UNL     1     -45.157  55.924 -61.071  1.00  0.00     0.217 HD
ENDBRANCH  13  32
TORSDOF 6
ENDMDL
MODEL 10
REMARK VINA RESULT:      -6.9      3.535      7.205
REMARK  6 active torsions:
REMARK  status: ('A' for Active; 'I' for Inactive)
REMARK    1  A    between atoms: N_2  and  C_4 
REMARK    2  A    between atoms: C_4  and  C_5 
REMARK    3  A    between atoms: C_5  and  C_6 
REMARK    4  A    between atoms: C_6  and  N_7 
REMARK    5  A    between atoms: C_17  and  C_18 
REMARK    6  A    between atoms: C_26  and  O_27 
ROOT
HETATM    1  N   UNL     1     -42.084  55.042 -51.109  1.00  0.00    -0.327 N 
HETATM    2  C   UNL     1     -41.962  56.375 -51.182  1.00  0.00     0.113 C 
HETATM    3  N   UNL     1     -41.445  57.126 -50.224  1.00  0.00    -0.385 N 
HETATM    4  H   UNL     1     -41.395  58.136 -50.301  1.00  0.00     0.157 HD
HETATM    5  H   UNL     1     -41.165  56.784 -49.318  1.00  0.00     0.157 HD
HETATM    6  C   UNL     1     -42.440  57.040 -52.439  1.00  0.00     0.052 C 
HETATM    7  C   UNL     1     -42.990  56.271 -53.397  1.00  0.00     0.182 C 
HETATM    8  O   UNL     1     -43.442  56.777 -54.606  1.00  0.00    -0.291 OA
HETATM    9  C   UNL     1     -43.181  58.081 -54.941  1.00  0.00     0.087 A 
HETATM   10  C   UNL     1     -42.628  58.985 -54.034  1.00  0.00    -0.011 A 
HETATM   11  C   UNL     1     -42.335  58.543 -52.619  1.00  0.00     0.095 C 
HETATM   12  C   UNL     1     -43.501  58.467 -56.244  1.00  0.00     0.074 A 
HETATM   13  C   UNL     1     -43.246  59.773 -56.645  1.00  0.00     0.068 A 
HETATM   14  C   UNL     1     -42.680  60.688 -55.765  1.00  0.00     0.037 A 
HETATM   15  C   UNL     1     -42.371  60.299 -54.462  1.00  0.00     0.014 A 
HETATM   16  N   UNL     1     -43.208  54.934 -53.233  1.00  0.00    -0.219 NA
HETATM   17  C   UNL     1     -42.818  54.375 -52.150  1.00  0.00     0.214 C 
ENDROOT
BRANCH   1  18
HETATM   18  C   UNL     1     -41.655  54.264 -49.916  1.00  0.00     0.133 C 
BRANCH  18  19
HETATM   19  C   UNL     1     -40.305  53.532 -50.025  1.00  0.00     0.048 C 
BRANCH  19  20
HETATM   20  C   UNL     1     -40.421  52.018 -50.217  1.00  0.00     0.235 C 
BRANCH  20  21
HETATM   21  N   UNL     1     -39.554  51.540 -51.370  1.00  0.00    -0.079 N 
HETATM   22  C   UNL     1     -39.948  52.093 -52.723  1.00  0.00     0.269 C 
HETATM   23  H   UNL     1     -38.579  51.833 -51.212  1.00  0.00     0.278 HD
HETATM   24  C   UNL     1     -39.501  50.024 -51.435  1.00  0.00     0.269 C 
ENDBRANCH  20  21
ENDBRANCH  19  20
ENDBRANCH  18  19
ENDBRANCH   1  18
BRANCH  11  25
HETATM   25  C   UNL     1     -43.208  59.291 -51.608  1.00  0.00    -0.045 A 
HETATM   26  C   UNL     1     -42.682  60.330 -50.817  1.00  0.00     0.010 A 
HETATM   27  C   UNL     1     -43.493  61.016 -49.911  1.00  0.00     0.024 A 
HETATM   28  C   UNL     1     -44.832  60.662 -49.771  1.00  0.00     0.034 A 
HETATM   29 CL   UNL     1     -45.832  61.518 -48.668  1.00  0.00    -0.084 Cl
HETATM   30  C   UNL     1     -45.364  59.615 -50.521  1.00  0.00     0.024 A 
HETATM   31  C   UNL     1     -44.555  58.927 -51.430  1.00  0.00     0.010 A 
ENDBRANCH  11  25
BRANCH  13  32
HETATM   32  O   UNL     1     -43.536  60.207 -57.902  1.00  0.00    -0.361 OA
HETATM   33  H   UNL     1     -44.472  60.043 -58.101  1.00  0.00     0.217 HD
ENDBRANCH  13  32
TORSDOF 6
ENDMDL
