MODEL 1
REMARK VINA RESULT:      -9.5      0.000      0.000
REMARK  4 active torsions:
REMARK  status: ('A' for Active; 'I' for Inactive)
REMARK    1  A    between atoms: N_5  and  C_6 
REMARK    2  A    between atoms: C_6  and  C_7 
REMARK    3  A    between atoms: C_7  and  C_8 
REMARK    4  A    between atoms: C_8  and  N_9 
ROOT
HETATM    1  C   UNL     1     -42.808  57.755 -54.341  1.00  0.00     0.236 C 
ENDROOT
BRANCH   1   2
HETATM    2  C   UNL     1     -43.449  57.709 -55.730  1.00  0.00     0.048 C 
BRANCH   2   3
HETATM    3  C   UNL     1     -42.480  57.610 -56.913  1.00  0.00     0.131 C 
BRANCH   3   4
HETATM    4  N   UNL     1     -43.120  58.041 -58.179  1.00  0.00    -0.346 N 
HETATM    5  C   UNL     1     -43.949  57.090 -58.829  1.00  0.00     0.041 A 
HETATM    6  C   UNL     1     -45.192  57.381 -59.431  1.00  0.00    -0.031 A 
HETATM    7  C   UNL     1     -43.467  55.763 -58.971  1.00  0.00     0.030 A 
HETATM    8  C   UNL     1     -45.896  56.355 -60.111  1.00  0.00     0.009 A 
HETATM    9  C   UNL     1     -45.863  58.735 -59.463  1.00  0.00     0.045 C 
HETATM   10  C   UNL     1     -45.405  55.058 -60.201  1.00  0.00     0.001 A 
HETATM   11  C   UNL     1     -44.181  54.762 -59.632  1.00  0.00     0.002 A 
HETATM   12  C   UNL     1     -45.595  59.640 -58.271  1.00  0.00     0.045 C 
HETATM   13  C   UNL     1     -44.226  60.252 -58.372  1.00  0.00    -0.031 A 
HETATM   14  C   UNL     1     -43.079  59.445 -58.372  1.00  0.00     0.042 A 
HETATM   15  C   UNL     1     -44.107  61.650 -58.495  1.00  0.00     0.011 A 
HETATM   16  C   UNL     1     -41.828  60.071 -58.537  1.00  0.00     0.054 A 
HETATM   17  C   UNL     1     -41.721  61.457 -58.649  1.00  0.00     0.036 A 
HETATM   18 CL   UNL     1     -40.164  62.181 -58.746  1.00  0.00    -0.084 Cl
HETATM   19  C   UNL     1     -42.857  62.253 -58.623  1.00  0.00     0.024 A 
ENDBRANCH   3   4
ENDBRANCH   2   3
ENDBRANCH   1   2
BRANCH   1  20
HETATM   20  N   UNL     1     -42.267  56.423 -53.776  1.00  0.00    -0.071 N 
HETATM   21  H   UNL     1     -42.345  56.589 -52.752  1.00  0.00     0.279 HD
HETATM   22  C   UNL     1     -40.789  56.175 -53.996  1.00  0.00     0.238 C 
HETATM   23  C   UNL     1     -40.478  54.683 -54.133  1.00  0.00     0.077 C 
HETATM   24  C   UNL     1     -41.259  53.846 -53.129  1.00  0.00     0.212 C 
HETATM   25  N   UNL     1     -40.876  52.367 -53.174  1.00  0.00    -0.032 N 
HETATM   26  C   UNL     1     -40.806  54.219 -51.708  1.00  0.00     0.256 C 
HETATM   27  C   UNL     1     -42.775  54.016 -53.256  1.00  0.00     0.077 C 
HETATM   28  H   UNL     1     -41.621  51.858 -52.676  1.00  0.00     0.283 HD
HETATM   29  C   UNL     1     -39.705  52.243 -52.248  1.00  0.00     0.290 C 
HETATM   30  C   UNL     1     -40.655  51.647 -54.468  1.00  0.00     0.239 C 
HETATM   31  C   UNL     1     -39.542  50.786 -51.856  1.00  0.00     0.055 C 
HETATM   32  N   UNL     1     -40.066  53.156 -51.223  1.00  0.00    -0.331 N 
HETATM   33  C   UNL     1     -39.361  49.926 -53.113  1.00  0.00     0.005 C 
HETATM   34  C   UNL     1     -40.463  50.166 -54.153  1.00  0.00     0.028 C 
HETATM   35  H   UNL     1     -39.535  53.269 -50.362  1.00  0.00     0.164 HD
HETATM   36  O   UNL     1     -41.054  55.271 -51.150  1.00  0.00    -0.271 OA
HETATM   37  C   UNL     1     -43.185  55.260 -54.044  1.00  0.00     0.238 C 
ENDBRANCH   1  20
TORSDOF 4
ENDMDL
MODEL 2
REMARK VINA RESULT:      -9.3      2.048      4.196
REMARK  4 active torsions:
REMARK  status: ('A' for Active; 'I' for Inactive)
REMARK    1  A    between atoms: N_5  and  C_6 
REMARK    2  A    between atoms: C_6  and  C_7 
REMARK    3  A    between atoms: C_7  and  C_8 
REMARK    4  A    between atoms: C_8  and  N_9 
ROOT
HETATM    1  C   UNL     1     -44.164  58.458 -54.814  1.00  0.00     0.236 C 
ENDROOT
BRANCH   1   2
HETATM    2  C   UNL     1     -45.385  58.153 -55.685  1.00  0.00     0.048 C 
BRANCH   2   3
HETATM    3  C   UNL     1     -45.705  59.181 -56.776  1.00  0.00     0.131 C 
BRANCH   3   4
HETATM    4  N   UNL     1     -44.720  59.124 -57.882  1.00  0.00    -0.346 N 
HETATM    5  C   UNL     1     -43.638  60.041 -57.817  1.00  0.00     0.041 A 
HETATM    6  C   UNL     1     -42.297  59.729 -58.130  1.00  0.00    -0.031 A 
HETATM    7  C   UNL     1     -43.920  61.395 -57.505  1.00  0.00     0.030 A 
HETATM    8  C   UNL     1     -41.315  60.751 -58.093  1.00  0.00     0.009 A 
HETATM    9  C   UNL     1     -41.781  58.373 -58.553  1.00  0.00     0.045 C 
HETATM   10  C   UNL     1     -41.627  62.061 -57.750  1.00  0.00     0.001 A 
HETATM   11  C   UNL     1     -42.938  62.386 -57.459  1.00  0.00     0.002 A 
HETATM   12  C   UNL     1     -42.514  57.171 -57.980  1.00  0.00     0.045 C 
HETATM   13  C   UNL     1     -43.820  56.961 -58.694  1.00  0.00    -0.031 A 
HETATM   14  C   UNL     1     -44.822  57.942 -58.657  1.00  0.00     0.042 A 
HETATM   15  C   UNL     1     -44.019  55.775 -59.427  1.00  0.00     0.011 A 
HETATM   16  C   UNL     1     -45.997  57.717 -59.401  1.00  0.00     0.054 A 
HETATM   17  C   UNL     1     -46.187  56.535 -60.116  1.00  0.00     0.036 A 
HETATM   18 CL   UNL     1     -47.681  56.265 -60.925  1.00  0.00    -0.084 Cl
HETATM   19  C   UNL     1     -45.203  55.557 -60.129  1.00  0.00     0.024 A 
ENDBRANCH   3   4
ENDBRANCH   2   3
ENDBRANCH   1   2
BRANCH   1  20
HETATM   20  N   UNL     1     -43.461  57.254 -54.148  1.00  0.00    -0.071 N 
HETATM   21  H   UNL     1     -43.774  57.357 -53.161  1.00  0.00     0.279 HD
HETATM   22  C   UNL     1     -41.952  57.346 -54.066  1.00  0.00     0.238 C 
HETATM   23  C   UNL     1     -41.295  55.965 -54.134  1.00  0.00     0.077 C 
HETATM   24  C   UNL     1     -42.051  54.936 -53.304  1.00  0.00     0.212 C 
HETATM   25  N   UNL     1     -41.346  53.580 -53.267  1.00  0.00    -0.032 N 
HETATM   26  C   UNL     1     -41.981  55.339 -51.822  1.00  0.00     0.256 C 
HETATM   27  C   UNL     1     -43.512  54.775 -53.733  1.00  0.00     0.077 C 
HETATM   28  H   UNL     1     -42.042  52.900 -52.927  1.00  0.00     0.283 HD
HETATM   29  C   UNL     1     -40.382  53.677 -52.124  1.00  0.00     0.290 C 
HETATM   30  C   UNL     1     -40.721  52.981 -54.489  1.00  0.00     0.239 C 
HETATM   31  C   UNL     1     -39.979  52.276 -51.703  1.00  0.00     0.055 C 
HETATM   32  N   UNL     1     -41.132  54.445 -51.195  1.00  0.00    -0.331 N 
HETATM   33  C   UNL     1     -39.367  51.530 -52.896  1.00  0.00     0.005 C 
HETATM   34  C   UNL     1     -40.269  51.567 -54.137  1.00  0.00     0.028 C 
HETATM   35  H   UNL     1     -40.819  54.635 -50.245  1.00  0.00     0.164 HD
HETATM   36  O   UNL     1     -42.562  56.287 -51.328  1.00  0.00    -0.271 OA
HETATM   37  C   UNL     1     -44.026  55.931 -54.591  1.00  0.00     0.238 C 
ENDBRANCH   1  20
TORSDOF 4
ENDMDL
MODEL 3
REMARK VINA RESULT:      -9.0      1.319      1.998
REMARK  4 active torsions:
REMARK  status: ('A' for Active; 'I' for Inactive)
REMARK    1  A    between atoms: N_5  and  C_6 
REMARK    2  A    between atoms: C_6  and  C_7 
REMARK    3  A    between atoms: C_7  and  C_8 
REMARK    4  A    between atoms: C_8  and  N_9 
ROOT
HETATM    1  C   UNL     1     -44.065  57.591 -55.249  1.00  0.00     0.236 C 
ENDROOT
BRANCH   1   2
HETATM    2  C   UNL     1     -43.510  58.624 -56.233  1.00  0.00     0.048 C 
BRANCH   2   3
HETATM    3  C   UNL     1     -42.594  58.077 -57.333  1.00  0.00     0.131 C 
BRANCH   3   4
HETATM    4  N   UNL     1     -43.200  58.240 -58.676  1.00  0.00    -0.346 N 
HETATM    5  C   UNL     1     -43.964  57.149 -59.165  1.00  0.00     0.041 A 
HETATM    6  C   UNL     1     -45.192  57.268 -59.850  1.00  0.00    -0.031 A 
HETATM    7  C   UNL     1     -43.426  55.842 -59.044  1.00  0.00     0.030 A 
HETATM    8  C   UNL     1     -45.829  56.104 -60.351  1.00  0.00     0.009 A 
HETATM    9  C   UNL     1     -45.914  58.561 -60.153  1.00  0.00     0.045 C 
HETATM   10  C   UNL     1     -45.285  54.836 -60.184  1.00  0.00     0.001 A 
HETATM   11  C   UNL     1     -44.074  54.705 -59.531  1.00  0.00     0.002 A 
HETATM   12  C   UNL     1     -45.729  59.680 -59.141  1.00  0.00     0.045 C 
HETATM   13  C   UNL     1     -44.382  60.325 -59.310  1.00  0.00    -0.031 A 
HETATM   14  C   UNL     1     -43.205  59.585 -59.124  1.00  0.00     0.042 A 
HETATM   15  C   UNL     1     -44.312  61.681 -59.685  1.00  0.00     0.011 A 
HETATM   16  C   UNL     1     -41.974  60.226 -59.363  1.00  0.00     0.054 A 
HETATM   17  C   UNL     1     -41.916  61.572 -59.725  1.00  0.00     0.036 A 
HETATM   18 CL   UNL     1     -40.386  62.336 -59.905  1.00  0.00    -0.084 Cl
HETATM   19  C   UNL     1     -43.082  62.306 -59.883  1.00  0.00     0.024 A 
ENDBRANCH   3   4
ENDBRANCH   2   3
ENDBRANCH   1   2
BRANCH   1  20
HETATM   20  N   UNL     1     -43.081  56.519 -54.731  1.00  0.00    -0.071 N 
HETATM   21  H   UNL     1     -42.408  56.461 -55.522  1.00  0.00     0.279 HD
HETATM   22  C   UNL     1     -43.643  55.117 -54.623  1.00  0.00     0.238 C 
HETATM   23  C   UNL     1     -42.989  54.329 -53.486  1.00  0.00     0.077 C 
HETATM   24  C   UNL     1     -41.485  54.563 -53.426  1.00  0.00     0.212 C 
HETATM   25  N   UNL     1     -40.799  53.696 -52.370  1.00  0.00    -0.032 N 
HETATM   26  C   UNL     1     -40.842  54.018 -54.711  1.00  0.00     0.256 C 
HETATM   27  C   UNL     1     -41.114  56.037 -53.240  1.00  0.00     0.077 C 
HETATM   28  H   UNL     1     -39.866  54.108 -52.218  1.00  0.00     0.283 HD
HETATM   29  C   UNL     1     -40.490  52.408 -53.070  1.00  0.00     0.290 C 
HETATM   30  C   UNL     1     -41.398  53.478 -51.016  1.00  0.00     0.239 C 
HETATM   31  C   UNL     1     -39.418  51.671 -52.289  1.00  0.00     0.055 C 
HETATM   32  N   UNL     1     -40.146  52.874 -54.366  1.00  0.00    -0.331 N 
HETATM   33  C   UNL     1     -39.894  51.431 -50.850  1.00  0.00     0.005 C 
HETATM   34  C   UNL     1     -40.379  52.719 -50.170  1.00  0.00     0.028 C 
HETATM   35  H   UNL     1     -39.785  52.268 -55.101  1.00  0.00     0.164 HD
HETATM   36  O   UNL     1     -40.959  54.515 -55.815  1.00  0.00    -0.271 OA
HETATM   37  C   UNL     1     -42.257  56.998 -53.565  1.00  0.00     0.238 C 
ENDBRANCH   1  20
TORSDOF 4
ENDMDL
MODEL 4
REMARK VINA RESULT:      -8.9      1.988      2.555
REMARK  4 active torsions:
REMARK  status: ('A' for Active; 'I' for Inactive)
REMARK    1  A    between atoms: N_5  and  C_6 
REMARK    2  A    between atoms: C_6  and  C_7 
REMARK    3  A    between atoms: C_7  and  C_8 
REMARK    4  A    between atoms: C_8  and  N_9 
ROOT
HETATM    1  C   UNL     1     -43.647  57.630 -56.262  1.00  0.00     0.236 C 
ENDROOT
BRANCH   1   2
HETATM    2  C   UNL     1     -42.681  58.605 -56.941  1.00  0.00     0.048 C 
BRANCH   2   3
HETATM    3  C   UNL     1     -42.055  58.123 -58.254  1.00  0.00     0.131 C 
BRANCH   3   4
HETATM    4  N   UNL     1     -42.978  58.309 -59.398  1.00  0.00    -0.346 N 
HETATM    5  C   UNL     1     -43.860  57.234 -59.685  1.00  0.00     0.041 A 
HETATM    6  C   UNL     1     -45.220  57.378 -60.035  1.00  0.00    -0.031 A 
HETATM    7  C   UNL     1     -43.331  55.919 -59.714  1.00  0.00     0.030 A 
HETATM    8  C   UNL     1     -45.982  56.229 -60.366  1.00  0.00     0.009 A 
HETATM    9  C   UNL     1     -45.973  58.685 -60.136  1.00  0.00     0.045 C 
HETATM   10  C   UNL     1     -45.434  54.952 -60.352  1.00  0.00     0.001 A 
HETATM   11  C   UNL     1     -44.100  54.796 -60.029  1.00  0.00     0.002 A 
HETATM   12  C   UNL     1     -45.519  59.790 -59.196  1.00  0.00     0.045 C 
HETATM   13  C   UNL     1     -44.248  60.418 -59.697  1.00  0.00    -0.031 A 
HETATM   14  C   UNL     1     -43.075  59.658 -59.820  1.00  0.00     0.042 A 
HETATM   15  C   UNL     1     -44.253  61.776 -60.067  1.00  0.00     0.011 A 
HETATM   16  C   UNL     1     -41.934  60.285 -60.359  1.00  0.00     0.054 A 
HETATM   17  C   UNL     1     -41.948  61.634 -60.714  1.00  0.00     0.036 A 
HETATM   18 CL   UNL     1     -40.500  62.377 -61.271  1.00  0.00    -0.084 Cl
HETATM   19  C   UNL     1     -43.103  62.386 -60.566  1.00  0.00     0.024 A 
ENDBRANCH   3   4
ENDBRANCH   2   3
ENDBRANCH   1   2
BRANCH   1  20
HETATM   20  N   UNL     1     -43.252  57.117 -54.860  1.00  0.00    -0.071 N 
HETATM   21  H   UNL     1     -43.948  57.605 -54.260  1.00  0.00     0.279 HD
HETATM   22  C   UNL     1     -41.915  57.602 -54.341  1.00  0.00     0.238 C 
HETATM   23  C   UNL     1     -41.254  56.572 -53.423  1.00  0.00     0.077 C 
HETATM   24  C   UNL     1     -42.259  55.927 -52.478  1.00  0.00     0.212 C 
HETATM   25  N   UNL     1     -41.598  54.980 -51.477  1.00  0.00    -0.032 N 
HETATM   26  C   UNL     1     -42.820  57.003 -51.533  1.00  0.00     0.256 C 
HETATM   27  C   UNL     1     -43.407  55.225 -53.210  1.00  0.00     0.077 C 
HETATM   28  H   UNL     1     -42.355  54.404 -51.079  1.00  0.00     0.283 HD
HETATM   29  C   UNL     1     -41.197  55.852 -50.326  1.00  0.00     0.290 C 
HETATM   30  C   UNL     1     -40.509  54.037 -51.882  1.00  0.00     0.239 C 
HETATM   31  C   UNL     1     -40.969  54.980 -49.106  1.00  0.00     0.055 C 
HETATM   32  N   UNL     1     -42.284  56.764 -50.280  1.00  0.00    -0.331 N 
HETATM   33  C   UNL     1     -39.899  53.924 -49.413  1.00  0.00     0.005 C 
HETATM   34  C   UNL     1     -40.207  53.132 -50.691  1.00  0.00     0.028 C 
HETATM   35  H   UNL     1     -42.398  57.462 -49.548  1.00  0.00     0.164 HD
HETATM   36  O   UNL     1     -43.577  57.895 -51.863  1.00  0.00    -0.271 OA
HETATM   37  C   UNL     1     -43.548  55.652 -54.671  1.00  0.00     0.238 C 
ENDBRANCH   1  20
TORSDOF 4
ENDMDL
MODEL 5
REMARK VINA RESULT:      -8.6     16.479     20.722
REMARK  4 active torsions:
REMARK  status: ('A' for Active; 'I' for Inactive)
REMARK    1  A    between atoms: N_5  and  C_6 
REMARK    2  A    between atoms: C_6  and  C_7 
REMARK    3  A    between atoms: C_7  and  C_8 
REMARK    4  A    between atoms: C_8  and  N_9 
ROOT
HETATM    1  C   UNL     1     -31.572  37.898 -53.141  1.00  0.00     0.236 C 
ENDROOT
BRANCH   1   2
HETATM    2  C   UNL     1     -31.957  38.046 -51.667  1.00  0.00     0.048 C 
BRANCH   2   3
HETATM    3  C   UNL     1     -31.743  39.434 -51.054  1.00  0.00     0.131 C 
BRANCH   3   4
HETATM    4  N   UNL     1     -32.812  39.771 -50.085  1.00  0.00    -0.346 N 
HETATM    5  C   UNL     1     -34.054  40.190 -50.629  1.00  0.00     0.041 A 
HETATM    6  C   UNL     1     -35.321  39.791 -50.151  1.00  0.00    -0.031 A 
HETATM    7  C   UNL     1     -34.042  41.150 -51.673  1.00  0.00     0.030 A 
HETATM    8  C   UNL     1     -36.492  40.333 -50.737  1.00  0.00     0.009 A 
HETATM    9  C   UNL     1     -35.572  38.834 -49.008  1.00  0.00     0.045 C 
HETATM   10  C   UNL     1     -36.438  41.249 -51.781  1.00  0.00     0.001 A 
HETATM   11  C   UNL     1     -35.206  41.664 -52.248  1.00  0.00     0.002 A 
HETATM   12  C   UNL     1     -34.531  37.744 -48.809  1.00  0.00     0.045 C 
HETATM   13  C   UNL     1     -33.303  38.304 -48.147  1.00  0.00    -0.031 A 
HETATM   14  C   UNL     1     -32.544  39.302 -48.775  1.00  0.00     0.042 A 
HETATM   15  C   UNL     1     -32.935  37.831 -46.873  1.00  0.00     0.011 A 
HETATM   16  C   UNL     1     -31.443  39.834 -48.075  1.00  0.00     0.054 A 
HETATM   17  C   UNL     1     -31.082  39.353 -46.817  1.00  0.00     0.036 A 
HETATM   18 CL   UNL     1     -29.669  39.964 -46.050  1.00  0.00    -0.084 Cl
HETATM   19  C   UNL     1     -31.821  38.348 -46.212  1.00  0.00     0.024 A 
ENDBRANCH   3   4
ENDBRANCH   2   3
ENDBRANCH   1   2
BRANCH   1  20
HETATM   20  N   UNL     1     -32.619  38.345 -54.186  1.00  0.00    -0.071 N 
HETATM   21  H   UNL     1     -32.602  37.542 -54.848  1.00  0.00     0.279 HD
HETATM   22  C   UNL     1     -32.223  39.532 -55.038  1.00  0.00     0.238 C 
HETATM   23  C   UNL     1     -33.438  40.364 -55.454  1.00  0.00     0.077 C 
HETATM   24  C   UNL     1     -34.616  39.485 -55.855  1.00  0.00     0.212 C 
HETATM   25  N   UNL     1     -35.799  40.296 -56.382  1.00  0.00    -0.032 N 
HETATM   26  C   UNL     1     -34.235  38.680 -57.109  1.00  0.00     0.256 C 
HETATM   27  C   UNL     1     -35.064  38.536 -54.741  1.00  0.00     0.077 C 
HETATM   28  H   UNL     1     -36.614  39.665 -56.368  1.00  0.00     0.283 HD
HETATM   29  C   UNL     1     -35.530  40.467 -57.847  1.00  0.00     0.290 C 
HETATM   30  C   UNL     1     -36.234  41.573 -55.732  1.00  0.00     0.239 C 
HETATM   31  C   UNL     1     -36.826  40.832 -58.545  1.00  0.00     0.055 C 
HETATM   32  N   UNL     1     -34.949  39.212 -58.167  1.00  0.00    -0.331 N 
HETATM   33  C   UNL     1     -37.408  42.110 -57.926  1.00  0.00     0.005 C 
HETATM   34  C   UNL     1     -37.533  42.018 -56.399  1.00  0.00     0.028 C 
HETATM   35  H   UNL     1     -34.717  38.929 -59.118  1.00  0.00     0.164 HD
HETATM   36  O   UNL     1     -33.436  37.763 -57.134  1.00  0.00    -0.271 OA
HETATM   37  C   UNL     1     -34.021  38.357 -53.638  1.00  0.00     0.238 C 
ENDBRANCH   1  20
TORSDOF 4
ENDMDL
MODEL 6
REMARK VINA RESULT:      -8.5      3.495      8.486
REMARK  4 active torsions:
REMARK  status: ('A' for Active; 'I' for Inactive)
REMARK    1  A    between atoms: N_5  and  C_6 
REMARK    2  A    between atoms: C_6  and  C_7 
REMARK    3  A    between atoms: C_7  and  C_8 
REMARK    4  A    between atoms: C_8  and  N_9 
ROOT
HETATM    1  C   UNL     1     -42.926  54.970 -56.462  1.00  0.00     0.236 C 
ENDROOT
BRANCH   1   2
HETATM    2  C   UNL     1     -42.548  55.298 -55.016  1.00  0.00     0.048 C 
BRANCH   2   3
HETATM    3  C   UNL     1     -43.695  55.758 -54.110  1.00  0.00     0.131 C 
BRANCH   3   4
HETATM    4  N   UNL     1     -43.229  56.729 -53.092  1.00  0.00    -0.346 N 
HETATM    5  C   UNL     1     -42.621  56.189 -51.929  1.00  0.00     0.041 A 
HETATM    6  C   UNL     1     -41.470  56.714 -51.303  1.00  0.00    -0.031 A 
HETATM    7  C   UNL     1     -43.254  55.096 -51.285  1.00  0.00     0.030 A 
HETATM    8  C   UNL     1     -40.996  56.124 -50.104  1.00  0.00     0.009 A 
HETATM    9  C   UNL     1     -40.676  57.911 -51.774  1.00  0.00     0.045 C 
HETATM   10  C   UNL     1     -41.628  55.033 -49.520  1.00  0.00     0.001 A 
HETATM   11  C   UNL     1     -42.766  54.518 -50.111  1.00  0.00     0.002 A 
HETATM   12  C   UNL     1     -40.650  58.145 -53.276  1.00  0.00     0.045 C 
HETATM   13  C   UNL     1     -41.947  58.751 -53.736  1.00  0.00    -0.031 A 
HETATM   14  C   UNL     1     -43.156  58.056 -53.584  1.00  0.00     0.042 A 
HETATM   15  C   UNL     1     -41.939  60.041 -54.301  1.00  0.00     0.011 A 
HETATM   16  C   UNL     1     -44.345  58.704 -53.972  1.00  0.00     0.054 A 
HETATM   17  C   UNL     1     -44.325  59.978 -54.539  1.00  0.00     0.036 A 
HETATM   18 CL   UNL     1     -45.794  60.683 -55.091  1.00  0.00    -0.084 Cl
HETATM   19  C   UNL     1     -43.124  60.650 -54.711  1.00  0.00     0.024 A 
ENDBRANCH   3   4
ENDBRANCH   2   3
ENDBRANCH   1   2
BRANCH   1  20
HETATM   20  N   UNL     1     -43.274  56.161 -57.382  1.00  0.00    -0.071 N 
HETATM   21  H   UNL     1     -44.221  56.416 -57.036  1.00  0.00     0.279 HD
HETATM   22  C   UNL     1     -43.497  55.815 -58.840  1.00  0.00     0.238 C 
HETATM   23  C   UNL     1     -43.090  56.964 -59.765  1.00  0.00     0.077 C 
HETATM   24  C   UNL     1     -43.529  58.315 -59.218  1.00  0.00     0.212 C 
HETATM   25  N   UNL     1     -43.233  59.463 -60.184  1.00  0.00    -0.032 N 
HETATM   26  C   UNL     1     -45.065  58.363 -59.175  1.00  0.00     0.256 C 
HETATM   27  C   UNL     1     -42.958  58.616 -57.830  1.00  0.00     0.077 C 
HETATM   28  H   UNL     1     -43.308  60.332 -59.634  1.00  0.00     0.283 HD
HETATM   29  C   UNL     1     -44.428  59.528 -61.085  1.00  0.00     0.290 C 
HETATM   30  C   UNL     1     -41.944  59.544 -60.942  1.00  0.00     0.239 C 
HETATM   31  C   UNL     1     -44.462  60.889 -61.756  1.00  0.00     0.055 C 
HETATM   32  N   UNL     1     -45.475  59.226 -60.175  1.00  0.00    -0.331 N 
HETATM   33  C   UNL     1     -43.158  61.119 -62.531  1.00  0.00     0.005 C 
HETATM   34  C   UNL     1     -41.912  60.888 -61.666  1.00  0.00     0.028 C 
HETATM   35  H   UNL     1     -46.462  59.269 -60.424  1.00  0.00     0.164 HD
HETATM   36  O   UNL     1     -45.762  57.731 -58.403  1.00  0.00    -0.271 OA
HETATM   37  C   UNL     1     -42.428  57.376 -57.108  1.00  0.00     0.238 C 
ENDBRANCH   1  20
TORSDOF 4
ENDMDL
MODEL 7
REMARK VINA RESULT:      -8.5     16.332     18.921
REMARK  4 active torsions:
REMARK  status: ('A' for Active; 'I' for Inactive)
REMARK    1  A    between atoms: N_5  and  C_6 
REMARK    2  A    between atoms: C_6  and  C_7 
REMARK    3  A    between atoms: C_7  and  C_8 
REMARK    4  A    between atoms: C_8  and  N_9 
ROOT
HETATM    1  C   UNL     1     -37.675  41.157 -57.928  1.00  0.00     0.236 C 
ENDROOT
BRANCH   1   2
HETATM    2  C   UNL     1     -37.866  39.876 -58.743  1.00  0.00     0.048 C 
BRANCH   2   3
HETATM    3  C   UNL     1     -37.600  39.993 -60.248  1.00  0.00     0.131 C 
BRANCH   3   4
HETATM    4  N   UNL     1     -37.630  38.667 -60.910  1.00  0.00    -0.346 N 
HETATM    5  C   UNL     1     -38.894  38.216 -61.372  1.00  0.00     0.041 A 
HETATM    6  C   UNL     1     -39.117  37.567 -62.605  1.00  0.00    -0.031 A 
HETATM    7  C   UNL     1     -40.010  38.338 -60.506  1.00  0.00     0.030 A 
HETATM    8  C   UNL     1     -40.417  37.101 -62.925  1.00  0.00     0.009 A 
HETATM    9  C   UNL     1     -38.066  37.270 -63.651  1.00  0.00     0.045 C 
HETATM   10  C   UNL     1     -41.493  37.268 -62.062  1.00  0.00     0.001 A 
HETATM   11  C   UNL     1     -41.288  37.885 -60.843  1.00  0.00     0.002 A 
HETATM   12  C   UNL     1     -36.916  38.261 -63.741  1.00  0.00     0.045 C 
HETATM   13  C   UNL     1     -35.943  38.042 -62.616  1.00  0.00    -0.031 A 
HETATM   14  C   UNL     1     -36.344  38.202 -61.282  1.00  0.00     0.042 A 
HETATM   15  C   UNL     1     -34.625  37.647 -62.916  1.00  0.00     0.011 A 
HETATM   16  C   UNL     1     -35.406  37.917 -60.270  1.00  0.00     0.054 A 
HETATM   17  C   UNL     1     -34.100  37.536 -60.578  1.00  0.00     0.036 A 
HETATM   18 CL   UNL     1     -32.964  37.299 -59.308  1.00  0.00    -0.084 Cl
HETATM   19  C   UNL     1     -33.702  37.404 -61.900  1.00  0.00     0.024 A 
ENDBRANCH   3   4
ENDBRANCH   2   3
ENDBRANCH   1   2
BRANCH   1  20
HETATM   20  N   UNL     1     -36.558  41.148 -56.861  1.00  0.00    -0.071 N 
HETATM   21  H   UNL     1     -35.724  41.380 -57.438  1.00  0.00     0.279 HD
HETATM   22  C   UNL     1     -36.232  39.792 -56.271  1.00  0.00     0.238 C 
HETATM   23  C   UNL     1     -35.756  39.902 -54.821  1.00  0.00     0.077 C 
HETATM   24  C   UNL     1     -34.807  41.077 -54.625  1.00  0.00     0.212 C 
HETATM   25  N   UNL     1     -34.232  41.135 -53.209  1.00  0.00    -0.032 N 
HETATM   26  C   UNL     1     -33.530  40.833 -55.446  1.00  0.00     0.256 C 
HETATM   27  C   UNL     1     -35.428  42.422 -55.011  1.00  0.00     0.077 C 
HETATM   28  H   UNL     1     -33.836  42.080 -53.095  1.00  0.00     0.283 HD
HETATM   29  C   UNL     1     -33.014  40.262 -53.251  1.00  0.00     0.290 C 
HETATM   30  C   UNL     1     -35.077  40.875 -52.002  1.00  0.00     0.239 C 
HETATM   31  C   UNL     1     -32.122  40.609 -52.074  1.00  0.00     0.055 C 
HETATM   32  N   UNL     1     -32.517  40.544 -54.550  1.00  0.00    -0.331 N 
HETATM   33  C   UNL     1     -32.898  40.432 -50.762  1.00  0.00     0.005 C 
HETATM   34  C   UNL     1     -34.236  41.185 -50.766  1.00  0.00     0.028 C 
HETATM   35  H   UNL     1     -31.629  40.188 -54.899  1.00  0.00     0.164 HD
HETATM   36  O   UNL     1     -33.463  40.875 -56.660  1.00  0.00    -0.271 OA
HETATM   37  C   UNL     1     -36.675  42.288 -55.885  1.00  0.00     0.238 C 
ENDBRANCH   1  20
TORSDOF 4
ENDMDL
MODEL 8
REMARK VINA RESULT:      -8.4      2.105      4.030
REMARK  4 active torsions:
REMARK  status: ('A' for Active; 'I' for Inactive)
REMARK    1  A    between atoms: N_5  and  C_6 
REMARK    2  A    between atoms: C_6  and  C_7 
REMARK    3  A    between atoms: C_7  and  C_8 
REMARK    4  A    between atoms: C_8  and  N_9 
ROOT
HETATM    1  C   UNL     1     -43.358  58.958 -54.716  1.00  0.00     0.236 C 
ENDROOT
BRANCH   1   2
HETATM    2  C   UNL     1     -42.404  59.670 -55.677  1.00  0.00     0.048 C 
BRANCH   2   3
HETATM    3  C   UNL     1     -42.071  58.920 -56.971  1.00  0.00     0.131 C 
BRANCH   3   4
HETATM    4  N   UNL     1     -42.666  59.585 -58.154  1.00  0.00    -0.346 N 
HETATM    5  C   UNL     1     -41.873  60.573 -58.795  1.00  0.00     0.041 A 
HETATM    6  C   UNL     1     -41.750  60.728 -60.192  1.00  0.00    -0.031 A 
HETATM    7  C   UNL     1     -41.219  61.538 -57.987  1.00  0.00     0.030 A 
HETATM    8  C   UNL     1     -40.979  61.798 -60.712  1.00  0.00     0.009 A 
HETATM    9  C   UNL     1     -42.412  59.860 -61.239  1.00  0.00     0.045 C 
HETATM   10  C   UNL     1     -40.327  62.706 -59.886  1.00  0.00     0.001 A 
HETATM   11  C   UNL     1     -40.452  62.578 -58.516  1.00  0.00     0.002 A 
HETATM   12  C   UNL     1     -42.634  58.406 -60.856  1.00  0.00     0.045 C 
HETATM   13  C   UNL     1     -43.809  58.281 -59.926  1.00  0.00    -0.031 A 
HETATM   14  C   UNL     1     -43.796  58.901 -58.668  1.00  0.00     0.042 A 
HETATM   15  C   UNL     1     -44.940  57.552 -60.343  1.00  0.00     0.011 A 
HETATM   16  C   UNL     1     -44.952  58.803 -57.870  1.00  0.00     0.054 A 
HETATM   17  C   UNL     1     -46.063  58.072 -58.289  1.00  0.00     0.036 A 
HETATM   18 CL   UNL     1     -47.411  57.899 -57.234  1.00  0.00    -0.084 Cl
HETATM   19  C   UNL     1     -46.061  57.440 -59.523  1.00  0.00     0.024 A 
ENDBRANCH   3   4
ENDBRANCH   2   3
ENDBRANCH   1   2
BRANCH   1  20
HETATM   20  N   UNL     1     -42.849  57.655 -54.061  1.00  0.00    -0.071 N 
HETATM   21  H   UNL     1     -43.267  57.728 -53.111  1.00  0.00     0.279 HD
HETATM   22  C   UNL     1     -41.358  57.596 -53.802  1.00  0.00     0.238 C 
HETATM   23  C   UNL     1     -40.822  56.166 -53.891  1.00  0.00     0.077 C 
HETATM   24  C   UNL     1     -41.760  55.167 -53.228  1.00  0.00     0.212 C 
HETATM   25  N   UNL     1     -41.187  53.750 -53.206  1.00  0.00    -0.032 N 
HETATM   26  C   UNL     1     -41.832  55.472 -51.722  1.00  0.00     0.256 C 
HETATM   27  C   UNL     1     -43.168  55.172 -53.830  1.00  0.00     0.077 C 
HETATM   28  H   UNL     1     -41.976  53.120 -52.996  1.00  0.00     0.283 HD
HETATM   29  C   UNL     1     -40.362  53.685 -51.957  1.00  0.00     0.290 C 
HETATM   30  C   UNL     1     -40.476  53.167 -54.388  1.00  0.00     0.239 C 
HETATM   31  C   UNL     1     -40.138  52.229 -51.593  1.00  0.00     0.055 C 
HETATM   32  N   UNL     1     -41.147  54.464 -51.068  1.00  0.00    -0.331 N 
HETATM   33  C   UNL     1     -39.455  51.500 -52.758  1.00  0.00     0.005 C 
HETATM   34  C   UNL     1     -40.196  51.697 -54.087  1.00  0.00     0.028 C 
HETATM   35  H   UNL     1     -40.935  54.567 -50.077  1.00  0.00     0.164 HD
HETATM   36  O   UNL     1     -42.383  56.440 -51.232  1.00  0.00    -0.271 OA
HETATM   37  C   UNL     1     -43.471  56.421 -54.657  1.00  0.00     0.238 C 
ENDBRANCH   1  20
TORSDOF 4
ENDMDL
MODEL 9
REMARK VINA RESULT:      -8.4     16.469     20.124
REMARK  4 active torsions:
REMARK  status: ('A' for Active; 'I' for Inactive)
REMARK    1  A    between atoms: N_5  and  C_6 
REMARK    2  A    between atoms: C_6  and  C_7 
REMARK    3  A    between atoms: C_7  and  C_8 
REMARK    4  A    between atoms: C_8  and  N_9 
ROOT
HETATM    1  C   UNL     1     -33.134  38.180 -53.351  1.00  0.00     0.236 C 
ENDROOT
BRANCH   1   2
HETATM    2  C   UNL     1     -32.134  38.966 -52.500  1.00  0.00     0.048 C 
BRANCH   2   3
HETATM    3  C   UNL     1     -32.609  40.334 -51.998  1.00  0.00     0.131 C 
BRANCH   3   4
HETATM    4  N   UNL     1     -33.668  40.198 -50.969  1.00  0.00    -0.346 N 
HETATM    5  C   UNL     1     -35.001  40.439 -51.393  1.00  0.00     0.041 A 
HETATM    6  C   UNL     1     -36.120  39.669 -51.010  1.00  0.00    -0.031 A 
HETATM    7  C   UNL     1     -35.258  41.585 -52.187  1.00  0.00     0.030 A 
HETATM    8  C   UNL     1     -37.414  40.052 -51.446  1.00  0.00     0.009 A 
HETATM    9  C   UNL     1     -36.091  38.450 -50.116  1.00  0.00     0.045 C 
HETATM   10  C   UNL     1     -37.621  41.166 -52.251  1.00  0.00     0.001 A 
HETATM   11  C   UNL     1     -36.537  41.940 -52.619  1.00  0.00     0.002 A 
HETATM   12  C   UNL     1     -34.829  37.605 -50.183  1.00  0.00     0.045 C 
HETATM   13  C   UNL     1     -33.714  38.264 -49.419  1.00  0.00    -0.031 A 
HETATM   14  C   UNL     1     -33.227  39.521 -49.805  1.00  0.00     0.042 A 
HETATM   15  C   UNL     1     -33.178  37.614 -48.290  1.00  0.00     0.011 A 
HETATM   16  C   UNL     1     -32.228  40.117 -49.010  1.00  0.00     0.054 A 
HETATM   17  C   UNL     1     -31.698  39.460 -47.899  1.00  0.00     0.036 A 
HETATM   18 CL   UNL     1     -30.408  40.185 -47.022  1.00  0.00    -0.084 Cl
HETATM   19  C   UNL     1     -32.165  38.206 -47.537  1.00  0.00     0.024 A 
ENDBRANCH   3   4
ENDBRANCH   2   3
ENDBRANCH   1   2
BRANCH   1  20
HETATM   20  N   UNL     1     -33.750  38.912 -54.564  1.00  0.00    -0.071 N 
HETATM   21  H   UNL     1     -33.393  39.879 -54.420  1.00  0.00     0.279 HD
HETATM   22  C   UNL     1     -35.256  39.068 -54.535  1.00  0.00     0.238 C 
HETATM   23  C   UNL     1     -35.854  39.070 -55.943  1.00  0.00     0.077 C 
HETATM   24  C   UNL     1     -35.012  39.887 -56.915  1.00  0.00     0.212 C 
HETATM   25  N   UNL     1     -35.654  39.995 -58.298  1.00  0.00    -0.032 N 
HETATM   26  C   UNL     1     -35.027  41.360 -56.474  1.00  0.00     0.256 C 
HETATM   27  C   UNL     1     -33.569  39.389 -57.026  1.00  0.00     0.077 C 
HETATM   28  H   UNL     1     -34.913  40.317 -58.938  1.00  0.00     0.283 HD
HETATM   29  C   UNL     1     -36.564  41.183 -58.211  1.00  0.00     0.290 C 
HETATM   30  C   UNL     1     -36.312  38.823 -58.957  1.00  0.00     0.239 C 
HETATM   31  C   UNL     1     -36.883  41.660 -59.615  1.00  0.00     0.055 C 
HETATM   32  N   UNL     1     -35.802  42.052 -57.386  1.00  0.00    -0.331 N 
HETATM   33  C   UNL     1     -37.520  40.520 -60.420  1.00  0.00     0.005 C 
HETATM   34  C   UNL     1     -36.683  39.234 -60.380  1.00  0.00     0.028 C 
HETATM   35  H   UNL     1     -36.076  43.012 -57.182  1.00  0.00     0.164 HD
HETATM   36  O   UNL     1     -34.464  41.798 -55.488  1.00  0.00    -0.271 OA
HETATM   37  C   UNL     1     -33.150  38.476 -55.874  1.00  0.00     0.238 C 
ENDBRANCH   1  20
TORSDOF 4
ENDMDL
MODEL 10
REMARK VINA RESULT:      -8.3     16.466     18.788
REMARK  4 active torsions:
REMARK  status: ('A' for Active; 'I' for Inactive)
REMARK    1  A    between atoms: N_5  and  C_6 
REMARK    2  A    between atoms: C_6  and  C_7 
REMARK    3  A    between atoms: C_7  and  C_8 
REMARK    4  A    between atoms: C_8  and  N_9 
ROOT
HETATM    1  C   UNL     1     -38.189  41.168 -55.828  1.00  0.00     0.236 C 
ENDROOT
BRANCH   1   2
HETATM    2  C   UNL     1     -38.126  40.233 -57.038  1.00  0.00     0.048 C 
BRANCH   2   3
HETATM    3  C   UNL     1     -37.390  40.777 -58.268  1.00  0.00     0.131 C 
BRANCH   3   4
HETATM    4  N   UNL     1     -36.169  39.990 -58.562  1.00  0.00    -0.346 N 
HETATM    5  C   UNL     1     -35.101  40.103 -57.633  1.00  0.00     0.041 A 
HETATM    6  C   UNL     1     -34.307  39.027 -57.183  1.00  0.00    -0.031 A 
HETATM    7  C   UNL     1     -34.734  41.397 -57.184  1.00  0.00     0.030 A 
HETATM    8  C   UNL     1     -33.223  39.277 -56.304  1.00  0.00     0.009 A 
HETATM    9  C   UNL     1     -34.473  37.578 -57.583  1.00  0.00     0.045 C 
HETATM   10  C   UNL     1     -32.915  40.558 -55.860  1.00  0.00     0.001 A 
HETATM   11  C   UNL     1     -33.671  41.624 -56.307  1.00  0.00     0.002 A 
HETATM   12  C   UNL     1     -35.891  37.132 -57.899  1.00  0.00     0.045 C 
HETATM   13  C   UNL     1     -36.304  37.616 -59.261  1.00  0.00    -0.031 A 
HETATM   14  C   UNL     1     -36.376  38.988 -59.542  1.00  0.00     0.042 A 
HETATM   15  C   UNL     1     -36.595  36.672 -60.266  1.00  0.00     0.011 A 
HETATM   16  C   UNL     1     -36.703  39.379 -60.855  1.00  0.00     0.054 A 
HETATM   17  C   UNL     1     -36.998  38.436 -61.840  1.00  0.00     0.036 A 
HETATM   18 CL   UNL     1     -37.492  38.967 -63.400  1.00  0.00    -0.084 Cl
HETATM   19  C   UNL     1     -36.951  37.081 -61.550  1.00  0.00     0.024 A 
ENDBRANCH   3   4
ENDBRANCH   2   3
ENDBRANCH   1   2
BRANCH   1  20
HETATM   20  N   UNL     1     -37.359  40.766 -54.589  1.00  0.00    -0.071 N 
HETATM   21  H   UNL     1     -38.110  40.521 -53.912  1.00  0.00     0.279 HD
HETATM   22  C   UNL     1     -36.610  41.895 -53.913  1.00  0.00     0.238 C 
HETATM   23  C   UNL     1     -35.314  41.407 -53.263  1.00  0.00     0.077 C 
HETATM   24  C   UNL     1     -35.503  40.073 -52.553  1.00  0.00     0.212 C 
HETATM   25  N   UNL     1     -34.249  39.626 -51.801  1.00  0.00    -0.032 N 
HETATM   26  C   UNL     1     -36.487  40.262 -51.387  1.00  0.00     0.256 C 
HETATM   27  C   UNL     1     -36.001  38.963 -53.482  1.00  0.00     0.077 C 
HETATM   28  H   UNL     1     -34.378  38.625 -51.591  1.00  0.00     0.283 HD
HETATM   29  C   UNL     1     -34.357  40.270 -50.452  1.00  0.00     0.290 C 
HETATM   30  C   UNL     1     -32.881  39.770 -52.391  1.00  0.00     0.239 C 
HETATM   31  C   UNL     1     -33.443  39.540 -49.486  1.00  0.00     0.055 C 
HETATM   32  N   UNL     1     -35.755  40.183 -50.217  1.00  0.00    -0.331 N 
HETATM   33  C   UNL     1     -32.001  39.569 -50.011  1.00  0.00     0.005 C 
HETATM   34  C   UNL     1     -31.894  39.072 -51.459  1.00  0.00     0.028 C 
HETATM   35  H   UNL     1     -36.191  40.447 -49.335  1.00  0.00     0.164 HD
HETATM   36  O   UNL     1     -37.681  40.462 -51.507  1.00  0.00    -0.271 OA
HETATM   37  C   UNL     1     -36.595  39.485 -54.790  1.00  0.00     0.238 C 
ENDBRANCH   1  20
TORSDOF 4
ENDMDL
