MODEL 1
REMARK VINA RESULT:      -9.0      0.000      0.000
REMARK  5 active torsions:
REMARK  status: ('A' for Active; 'I' for Inactive)
REMARK    1  A    between atoms: C_2  and  C_3 
REMARK       I    between atoms: C_3  and  N_4 
REMARK    2  A    between atoms: N_4  and  N_5 
REMARK    3  A    between atoms: N_5  and  C_6 
REMARK    4  A    between atoms: N_7  and  C_8 
REMARK    5  A    between atoms: C_8  and  C_9 
ROOT
HETATM    1  C   UNL     1     -42.406  56.608 -56.561  1.00  0.00     0.200 A 
HETATM    2  N   UNL     1     -42.836  57.795 -56.002  1.00  0.00    -0.283 N 
HETATM    3  C   UNL     1     -42.855  57.969 -54.629  1.00  0.00     0.259 A 
HETATM    4  O   UNL     1     -43.249  59.013 -54.109  1.00  0.00    -0.267 OA
HETATM    5  C   UNL     1     -42.365  56.842 -53.788  1.00  0.00     0.049 A 
HETATM    6  C   UNL     1     -41.912  55.771 -54.468  1.00  0.00     0.083 A 
HETATM    7  C   UNL     1     -41.326  54.630 -53.713  1.00  0.00    -0.000 A 
HETATM    8  C   UNL     1     -41.600  54.481 -52.344  1.00  0.00    -0.044 A 
HETATM    9  C   UNL     1     -41.083  53.389 -51.633  1.00  0.00     0.008 A 
HETATM   10  C   UNL     1     -40.269  52.457 -52.274  1.00  0.00     0.001 A 
HETATM   11  C   UNL     1     -39.976  52.604 -53.626  1.00  0.00     0.001 A 
HETATM   12  C   UNL     1     -40.505  53.680 -54.341  1.00  0.00     0.014 A 
HETATM   13  C   UNL     1     -42.507  55.476 -51.677  1.00  0.00     0.054 C 
HETATM   14  C   UNL     1     -42.342  56.911 -52.251  1.00  0.00    -0.002 C 
HETATM   15  C   UNL     1     -41.018  57.545 -51.758  1.00  0.00     0.015 C 
HETATM   16  C   UNL     1     -41.305  59.035 -51.673  1.00  0.00     0.001 C 
HETATM   17  C   UNL     1     -42.738  59.113 -51.170  1.00  0.00     0.001 C 
HETATM   18  C   UNL     1     -43.419  57.801 -51.574  1.00  0.00     0.015 C 
HETATM   19  N   UNL     1     -41.944  55.637 -55.826  1.00  0.00    -0.218 NA
ENDROOT
BRANCH   1  20
HETATM   20  N   UNL     1     -42.464  56.413 -57.934  1.00  0.00    -0.188 NA
HETATM   21  H   UNL     1     -42.562  57.259 -58.498  1.00  0.00     0.150 HD
BRANCH  20  22
HETATM   22  N   UNL     1     -43.444  55.451 -58.319  1.00  0.00    -0.189 NA
HETATM   23  C   UNL     1     -43.800  55.502 -59.655  1.00  0.00     0.210 C 
HETATM   24  O   UNL     1     -43.112  56.068 -60.504  1.00  0.00    -0.279 OA
HETATM   25  H   UNL     1     -44.194  55.388 -57.628  1.00  0.00     0.150 HD
BRANCH  23  26
HETATM   26  C   UNL     1     -45.114  54.822 -59.968  1.00  0.00     0.093 C 
HETATM   27  C   UNL     1     -45.869  55.592 -61.037  1.00  0.00     0.014 C 
ENDBRANCH  23  26
ENDBRANCH  20  22
ENDBRANCH   1  20
BRANCH   2  28
HETATM   28  C   UNL     1     -43.212  58.950 -56.821  1.00  0.00     0.173 C 
BRANCH  28  29
HETATM   29  C   UNL     1     -44.551  58.758 -57.507  1.00  0.00    -0.040 A 
HETATM   30  C   UNL     1     -45.665  58.296 -56.792  1.00  0.00     0.009 A 
HETATM   31  C   UNL     1     -46.893  58.113 -57.432  1.00  0.00     0.001 A 
HETATM   32  C   UNL     1     -47.022  58.390 -58.791  1.00  0.00     0.000 A 
HETATM   33  C   UNL     1     -45.924  58.855 -59.512  1.00  0.00     0.001 A 
HETATM   34  C   UNL     1     -44.697  59.041 -58.873  1.00  0.00     0.009 A 
ENDBRANCH  28  29
ENDBRANCH   2  28
TORSDOF 5
ENDMDL
MODEL 2
REMARK VINA RESULT:      -8.8      2.658      8.075
REMARK  5 active torsions:
REMARK  status: ('A' for Active; 'I' for Inactive)
REMARK    1  A    between atoms: C_2  and  C_3 
REMARK       I    between atoms: C_3  and  N_4 
REMARK    2  A    between atoms: N_4  and  N_5 
REMARK    3  A    between atoms: N_5  and  C_6 
REMARK    4  A    between atoms: N_7  and  C_8 
REMARK    5  A    between atoms: C_8  and  C_9 
ROOT
HETATM    1  C   UNL     1     -42.276  59.423 -55.393  1.00  0.00     0.200 A 
HETATM    2  N   UNL     1     -42.942  58.251 -55.688  1.00  0.00    -0.283 N 
HETATM    3  C   UNL     1     -43.224  57.903 -56.998  1.00  0.00     0.259 A 
HETATM    4  O   UNL     1     -43.830  56.871 -57.283  1.00  0.00    -0.267 OA
HETATM    5  C   UNL     1     -42.752  58.825 -58.068  1.00  0.00     0.049 A 
HETATM    6  C   UNL     1     -42.056  59.896 -57.641  1.00  0.00     0.083 A 
HETATM    7  C   UNL     1     -41.474  60.828 -58.645  1.00  0.00    -0.000 A 
HETATM    8  C   UNL     1     -41.963  60.836 -59.960  1.00  0.00    -0.044 A 
HETATM    9  C   UNL     1     -41.446  61.736 -60.903  1.00  0.00     0.008 A 
HETATM   10  C   UNL     1     -40.422  62.612 -60.548  1.00  0.00     0.001 A 
HETATM   11  C   UNL     1     -39.918  62.602 -59.252  1.00  0.00     0.001 A 
HETATM   12  C   UNL     1     -40.443  61.719 -58.306  1.00  0.00     0.014 A 
HETATM   13  C   UNL     1     -43.090  59.908 -60.317  1.00  0.00     0.054 C 
HETATM   14  C   UNL     1     -43.007  58.552 -59.561  1.00  0.00    -0.002 C 
HETATM   15  C   UNL     1     -41.881  57.669 -60.150  1.00  0.00     0.015 C 
HETATM   16  C   UNL     1     -42.362  56.241 -59.960  1.00  0.00     0.001 C 
HETATM   17  C   UNL     1     -43.860  56.312 -60.215  1.00  0.00     0.001 C 
HETATM   18  C   UNL     1     -44.290  57.753 -59.917  1.00  0.00     0.015 C 
HETATM   19  N   UNL     1     -41.832  60.210 -56.332  1.00  0.00    -0.218 NA
ENDROOT
BRANCH   1  20
HETATM   20  N   UNL     1     -42.067  59.803 -54.074  1.00  0.00    -0.188 NA
HETATM   21  H   UNL     1     -42.294  60.773 -53.851  1.00  0.00     0.150 HD
BRANCH  20  22
HETATM   22  N   UNL     1     -40.760  59.484 -53.601  1.00  0.00    -0.189 NA
HETATM   23  C   UNL     1     -40.725  58.978 -52.314  1.00  0.00     0.210 C 
HETATM   24  O   UNL     1     -41.721  58.522 -51.754  1.00  0.00    -0.279 OA
HETATM   25  H   UNL     1     -40.088  60.215 -53.845  1.00  0.00     0.150 HD
BRANCH  23  26
HETATM   26  C   UNL     1     -39.366  59.059 -51.658  1.00  0.00     0.093 C 
HETATM   27  C   UNL     1     -39.470  59.734 -50.303  1.00  0.00     0.014 C 
ENDBRANCH  23  26
ENDBRANCH  20  22
ENDBRANCH   1  20
BRANCH   2  28
HETATM   28  C   UNL     1     -43.311  57.282 -54.653  1.00  0.00     0.173 C 
BRANCH  28  29
HETATM   29  C   UNL     1     -42.431  56.048 -54.679  1.00  0.00    -0.040 A 
HETATM   30  C   UNL     1     -41.033  56.162 -54.706  1.00  0.00     0.009 A 
HETATM   31  C   UNL     1     -40.228  55.021 -54.740  1.00  0.00     0.001 A 
HETATM   32  C   UNL     1     -40.811  53.754 -54.746  1.00  0.00     0.000 A 
HETATM   33  C   UNL     1     -42.197  53.627 -54.714  1.00  0.00     0.001 A 
HETATM   34  C   UNL     1     -43.002  54.767 -54.678  1.00  0.00     0.009 A 
ENDBRANCH  28  29
ENDBRANCH   2  28
TORSDOF 5
ENDMDL
MODEL 3
REMARK VINA RESULT:      -8.8      1.279      2.049
REMARK  5 active torsions:
REMARK  status: ('A' for Active; 'I' for Inactive)
REMARK    1  A    between atoms: C_2  and  C_3 
REMARK       I    between atoms: C_3  and  N_4 
REMARK    2  A    between atoms: N_4  and  N_5 
REMARK    3  A    between atoms: N_5  and  C_6 
REMARK    4  A    between atoms: N_7  and  C_8 
REMARK    5  A    between atoms: C_8  and  C_9 
ROOT
HETATM    1  C   UNL     1     -42.980  55.923 -56.916  1.00  0.00     0.200 A 
HETATM    2  N   UNL     1     -43.652  56.996 -56.365  1.00  0.00    -0.283 N 
HETATM    3  C   UNL     1     -43.710  57.171 -54.993  1.00  0.00     0.259 A 
HETATM    4  O   UNL     1     -44.316  58.111 -54.481  1.00  0.00    -0.267 OA
HETATM    5  C   UNL     1     -42.994  56.179 -54.145  1.00  0.00     0.049 A 
HETATM    6  C   UNL     1     -42.322  55.223 -54.817  1.00  0.00     0.083 A 
HETATM    7  C   UNL     1     -41.510  54.238 -54.054  1.00  0.00    -0.000 A 
HETATM    8  C   UNL     1     -41.748  54.043 -52.684  1.00  0.00    -0.044 A 
HETATM    9  C   UNL     1     -41.012  53.091 -51.966  1.00  0.00     0.008 A 
HETATM   10  C   UNL     1     -40.018  52.348 -52.600  1.00  0.00     0.001 A 
HETATM   11  C   UNL     1     -39.761  52.544 -53.953  1.00  0.00     0.001 A 
HETATM   12  C   UNL     1     -40.504  53.479 -54.675  1.00  0.00     0.014 A 
HETATM   13  C   UNL     1     -42.846  54.829 -52.024  1.00  0.00     0.054 C 
HETATM   14  C   UNL     1     -42.987  56.262 -52.608  1.00  0.00    -0.002 C 
HETATM   15  C   UNL     1     -41.828  57.165 -52.120  1.00  0.00     0.015 C 
HETATM   16  C   UNL     1     -42.424  58.561 -52.045  1.00  0.00     0.001 C 
HETATM   17  C   UNL     1     -43.843  58.338 -51.543  1.00  0.00     0.001 C 
HETATM   18  C   UNL     1     -44.229  56.908 -51.938  1.00  0.00     0.015 C 
HETATM   19  N   UNL     1     -42.323  55.077 -56.174  1.00  0.00    -0.218 NA
ENDROOT
BRANCH   1  20
HETATM   20  N   UNL     1     -42.993  55.711 -58.288  1.00  0.00    -0.188 NA
HETATM   21  H   UNL     1     -42.666  56.490 -58.860  1.00  0.00     0.150 HD
BRANCH  20  22
HETATM   22  N   UNL     1     -44.253  55.246 -58.767  1.00  0.00    -0.189 NA
HETATM   23  C   UNL     1     -44.584  55.694 -60.034  1.00  0.00     0.210 C 
HETATM   24  O   UNL     1     -43.750  56.155 -60.812  1.00  0.00    -0.279 OA
HETATM   25  H   UNL     1     -44.970  55.299 -58.040  1.00  0.00     0.150 HD
BRANCH  23  26
HETATM   26  C   UNL     1     -46.056  55.587 -60.360  1.00  0.00     0.093 C 
HETATM   27  C   UNL     1     -46.797  56.823 -59.884  1.00  0.00     0.014 C 
ENDBRANCH  23  26
ENDBRANCH  20  22
ENDBRANCH   1  20
BRANCH   2  28
HETATM   28  C   UNL     1     -44.263  58.039 -57.192  1.00  0.00     0.173 C 
BRANCH  28  29
HETATM   29  C   UNL     1     -43.245  59.037 -57.706  1.00  0.00    -0.040 A 
HETATM   30  C   UNL     1     -42.548  59.873 -56.821  1.00  0.00     0.009 A 
HETATM   31  C   UNL     1     -41.617  60.798 -57.301  1.00  0.00     0.001 A 
HETATM   32  C   UNL     1     -41.372  60.896 -58.670  1.00  0.00     0.000 A 
HETATM   33  C   UNL     1     -42.054  60.069 -59.559  1.00  0.00     0.001 A 
HETATM   34  C   UNL     1     -42.982  59.143 -59.080  1.00  0.00     0.009 A 
ENDBRANCH  28  29
ENDBRANCH   2  28
TORSDOF 5
ENDMDL
MODEL 4
REMARK VINA RESULT:      -8.1      2.861      6.577
REMARK  5 active torsions:
REMARK  status: ('A' for Active; 'I' for Inactive)
REMARK    1  A    between atoms: C_2  and  C_3 
REMARK       I    between atoms: C_3  and  N_4 
REMARK    2  A    between atoms: N_4  and  N_5 
REMARK    3  A    between atoms: N_5  and  C_6 
REMARK    4  A    between atoms: N_7  and  C_8 
REMARK    5  A    between atoms: C_8  and  C_9 
ROOT
HETATM    1  C   UNL     1     -42.189  59.469 -54.348  1.00  0.00     0.200 A 
HETATM    2  N   UNL     1     -42.001  58.639 -53.261  1.00  0.00    -0.283 N 
HETATM    3  C   UNL     1     -42.031  57.263 -53.403  1.00  0.00     0.259 A 
HETATM    4  O   UNL     1     -41.881  56.505 -52.446  1.00  0.00    -0.267 OA
HETATM    5  C   UNL     1     -42.239  56.720 -54.774  1.00  0.00     0.049 A 
HETATM    6  C   UNL     1     -42.339  57.643 -55.751  1.00  0.00     0.083 A 
HETATM    7  C   UNL     1     -42.465  57.191 -57.162  1.00  0.00    -0.000 A 
HETATM    8  C   UNL     1     -42.877  55.879 -57.444  1.00  0.00    -0.044 A 
HETATM    9  C   UNL     1     -43.034  55.456 -58.771  1.00  0.00     0.008 A 
HETATM   10  C   UNL     1     -42.757  56.327 -59.823  1.00  0.00     0.001 A 
HETATM   11  C   UNL     1     -42.332  57.624 -59.556  1.00  0.00     0.001 A 
HETATM   12  C   UNL     1     -42.192  58.054 -58.236  1.00  0.00     0.014 A 
HETATM   13  C   UNL     1     -43.204  54.963 -56.299  1.00  0.00     0.054 C 
HETATM   14  C   UNL     1     -42.296  55.209 -55.061  1.00  0.00    -0.002 C 
HETATM   15  C   UNL     1     -40.874  54.652 -55.311  1.00  0.00     0.015 C 
HETATM   16  C   UNL     1     -40.376  54.222 -53.941  1.00  0.00     0.001 C 
HETATM   17  C   UNL     1     -41.606  53.646 -53.257  1.00  0.00     0.001 C 
HETATM   18  C   UNL     1     -42.824  54.300 -53.919  1.00  0.00     0.015 C 
HETATM   19  N   UNL     1     -42.335  58.993 -55.552  1.00  0.00    -0.218 NA
ENDROOT
BRANCH   1  20
HETATM   20  N   UNL     1     -42.237  60.847 -54.183  1.00  0.00    -0.188 NA
HETATM   21  H   UNL     1     -41.770  61.211 -53.352  1.00  0.00     0.150 HD
BRANCH  20  22
HETATM   22  N   UNL     1     -43.559  61.374 -54.272  1.00  0.00    -0.189 NA
HETATM   23  C   UNL     1     -43.801  62.454 -53.442  1.00  0.00     0.210 C 
HETATM   24  O   UNL     1     -42.897  63.117 -52.937  1.00  0.00    -0.279 OA
HETATM   25  H   UNL     1     -44.256  60.626 -54.298  1.00  0.00     0.150 HD
BRANCH  23  26
HETATM   26  C   UNL     1     -45.268  62.725 -53.198  1.00  0.00     0.093 C 
HETATM   27  C   UNL     1     -46.103  61.517 -53.583  1.00  0.00     0.014 C 
ENDBRANCH  23  26
ENDBRANCH  20  22
ENDBRANCH   1  20
BRANCH   2  28
HETATM   28  C   UNL     1     -41.683  59.161 -51.929  1.00  0.00     0.173 C 
BRANCH  28  29
HETATM   29  C   UNL     1     -42.914  59.648 -51.192  1.00  0.00    -0.040 A 
HETATM   30  C   UNL     1     -44.148  59.000 -51.345  1.00  0.00     0.009 A 
HETATM   31  C   UNL     1     -45.281  59.460 -50.670  1.00  0.00     0.001 A 
HETATM   32  C   UNL     1     -45.193  60.572 -49.834  1.00  0.00     0.000 A 
HETATM   33  C   UNL     1     -43.973  61.222 -49.669  1.00  0.00     0.001 A 
HETATM   34  C   UNL     1     -42.839  60.762 -50.341  1.00  0.00     0.009 A 
ENDBRANCH  28  29
ENDBRANCH   2  28
TORSDOF 5
ENDMDL
MODEL 5
REMARK VINA RESULT:      -7.9      3.768      6.427
REMARK  5 active torsions:
REMARK  status: ('A' for Active; 'I' for Inactive)
REMARK    1  A    between atoms: C_2  and  C_3 
REMARK       I    between atoms: C_3  and  N_4 
REMARK    2  A    between atoms: N_4  and  N_5 
REMARK    3  A    between atoms: N_5  and  C_6 
REMARK    4  A    between atoms: N_7  and  C_8 
REMARK    5  A    between atoms: C_8  and  C_9 
ROOT
HETATM    1  C   UNL     1     -41.735  58.837 -51.492  1.00  0.00     0.200 A 
HETATM    2  N   UNL     1     -42.065  58.812 -52.832  1.00  0.00    -0.283 N 
HETATM    3  C   UNL     1     -42.017  57.632 -53.555  1.00  0.00     0.259 A 
HETATM    4  O   UNL     1     -42.292  57.591 -54.754  1.00  0.00    -0.267 OA
HETATM    5  C   UNL     1     -41.629  56.396 -52.823  1.00  0.00     0.049 A 
HETATM    6  C   UNL     1     -41.400  56.553 -51.505  1.00  0.00     0.083 A 
HETATM    7  C   UNL     1     -41.087  55.357 -50.677  1.00  0.00    -0.000 A 
HETATM    8  C   UNL     1     -40.642  54.176 -51.291  1.00  0.00    -0.044 A 
HETATM    9  C   UNL     1     -40.310  53.056 -50.516  1.00  0.00     0.008 A 
HETATM   10  C   UNL     1     -40.446  53.097 -49.130  1.00  0.00     0.001 A 
HETATM   11  C   UNL     1     -40.902  54.256 -48.511  1.00  0.00     0.001 A 
HETATM   12  C   UNL     1     -41.216  55.379 -49.279  1.00  0.00     0.014 A 
HETATM   13  C   UNL     1     -40.470  54.159 -52.784  1.00  0.00     0.054 C 
HETATM   14  C   UNL     1     -41.534  55.025 -53.516  1.00  0.00    -0.002 C 
HETATM   15  C   UNL     1     -42.911  54.317 -53.506  1.00  0.00     0.015 C 
HETATM   16  C   UNL     1     -43.586  54.755 -54.795  1.00  0.00     0.001 C 
HETATM   17  C   UNL     1     -42.457  54.805 -55.813  1.00  0.00     0.001 C 
HETATM   18  C   UNL     1     -41.162  55.027 -55.023  1.00  0.00     0.015 C 
HETATM   19  N   UNL     1     -41.431  57.747 -50.845  1.00  0.00    -0.218 NA
ENDROOT
BRANCH   1  20
HETATM   20  N   UNL     1     -41.709  60.036 -50.794  1.00  0.00    -0.188 NA
HETATM   21  H   UNL     1     -40.864  60.214 -50.250  1.00  0.00     0.150 HD
BRANCH  20  22
HETATM   22  N   UNL     1     -42.865  60.234 -49.982  1.00  0.00    -0.189 NA
HETATM   23  C   UNL     1     -43.245  61.557 -49.840  1.00  0.00     0.210 C 
HETATM   24  O   UNL     1     -42.855  62.443 -50.600  1.00  0.00    -0.279 OA
HETATM   25  H   UNL     1     -42.830  59.655 -49.140  1.00  0.00     0.150 HD
BRANCH  23  26
HETATM   26  C   UNL     1     -44.157  61.812 -48.662  1.00  0.00     0.093 C 
HETATM   27  C   UNL     1     -45.432  61.001 -48.793  1.00  0.00     0.014 C 
ENDBRANCH  23  26
ENDBRANCH  20  22
ENDBRANCH   1  20
BRANCH   2  28
HETATM   28  C   UNL     1     -42.557  60.000 -53.535  1.00  0.00     0.173 C 
BRANCH  28  29
HETATM   29  C   UNL     1     -43.983  60.345 -53.153  1.00  0.00    -0.040 A 
HETATM   30  C   UNL     1     -44.497  61.631 -53.379  1.00  0.00     0.009 A 
HETATM   31  C   UNL     1     -45.808  61.945 -53.017  1.00  0.00     0.001 A 
HETATM   32  C   UNL     1     -46.621  60.979 -52.426  1.00  0.00     0.000 A 
HETATM   33  C   UNL     1     -46.125  59.698 -52.200  1.00  0.00     0.001 A 
HETATM   34  C   UNL     1     -44.815  59.381 -52.564  1.00  0.00     0.009 A 
ENDBRANCH  28  29
ENDBRANCH   2  28
TORSDOF 5
ENDMDL
MODEL 6
REMARK VINA RESULT:      -7.9      2.468      6.733
REMARK  5 active torsions:
REMARK  status: ('A' for Active; 'I' for Inactive)
REMARK    1  A    between atoms: C_2  and  C_3 
REMARK       I    between atoms: C_3  and  N_4 
REMARK    2  A    between atoms: N_4  and  N_5 
REMARK    3  A    between atoms: N_5  and  C_6 
REMARK    4  A    between atoms: N_7  and  C_8 
REMARK    5  A    between atoms: C_8  and  C_9 
ROOT
HETATM    1  C   UNL     1     -43.341  55.706 -54.309  1.00  0.00     0.200 A 
HETATM    2  N   UNL     1     -43.625  56.787 -53.499  1.00  0.00    -0.283 N 
HETATM    3  C   UNL     1     -43.557  58.080 -53.988  1.00  0.00     0.259 A 
HETATM    4  O   UNL     1     -43.791  59.059 -53.280  1.00  0.00    -0.267 OA
HETATM    5  C   UNL     1     -43.199  58.252 -55.423  1.00  0.00     0.049 A 
HETATM    6  C   UNL     1     -43.015  57.109 -56.113  1.00  0.00     0.083 A 
HETATM    7  C   UNL     1     -42.736  57.182 -57.572  1.00  0.00    -0.000 A 
HETATM    8  C   UNL     1     -42.275  58.380 -58.139  1.00  0.00    -0.044 A 
HETATM    9  C   UNL     1     -41.975  58.447 -59.507  1.00  0.00     0.008 A 
HETATM   10  C   UNL     1     -42.158  57.330 -60.321  1.00  0.00     0.001 A 
HETATM   11  C   UNL     1     -42.630  56.142 -59.774  1.00  0.00     0.001 A 
HETATM   12  C   UNL     1     -42.913  56.067 -58.408  1.00  0.00     0.014 A 
HETATM   13  C   UNL     1     -42.052  59.564 -57.242  1.00  0.00     0.054 C 
HETATM   14  C   UNL     1     -43.086  59.637 -56.084  1.00  0.00    -0.002 C 
HETATM   15  C   UNL     1     -44.466  60.097 -56.615  1.00  0.00     0.015 C 
HETATM   16  C   UNL     1     -45.095  60.862 -55.463  1.00  0.00     0.001 C 
HETATM   17  C   UNL     1     -43.931  61.607 -54.827  1.00  0.00     0.001 C 
HETATM   18  C   UNL     1     -42.663  60.817 -55.167  1.00  0.00     0.015 C 
HETATM   19  N   UNL     1     -43.063  55.856 -55.573  1.00  0.00    -0.218 NA
ENDROOT
BRANCH   1  20
HETATM   20  N   UNL     1     -43.334  54.418 -53.790  1.00  0.00    -0.188 NA
HETATM   21  H   UNL     1     -43.196  54.348 -52.781  1.00  0.00     0.150 HD
BRANCH  20  22
HETATM   22  N   UNL     1     -42.432  53.548 -54.470  1.00  0.00    -0.189 NA
HETATM   23  C   UNL     1     -41.327  53.174 -53.726  1.00  0.00     0.210 C 
HETATM   24  O   UNL     1     -41.285  53.286 -52.501  1.00  0.00    -0.279 OA
HETATM   25  H   UNL     1     -42.277  53.853 -55.434  1.00  0.00     0.150 HD
BRANCH  23  26
HETATM   26  C   UNL     1     -40.179  52.642 -54.553  1.00  0.00     0.093 C 
HETATM   27  C   UNL     1     -40.022  51.147 -54.343  1.00  0.00     0.014 C 
ENDBRANCH  23  26
ENDBRANCH  20  22
ENDBRANCH   1  20
BRANCH   2  28
HETATM   28  C   UNL     1     -44.087  56.625 -52.118  1.00  0.00     0.173 C 
BRANCH  28  29
HETATM   29  C   UNL     1     -42.976  56.185 -51.186  1.00  0.00    -0.040 A 
HETATM   30  C   UNL     1     -41.779  56.911 -51.101  1.00  0.00     0.009 A 
HETATM   31  C   UNL     1     -40.755  56.495 -50.247  1.00  0.00     0.001 A 
HETATM   32  C   UNL     1     -40.917  55.350 -49.468  1.00  0.00     0.000 A 
HETATM   33  C   UNL     1     -42.102  54.623 -49.539  1.00  0.00     0.001 A 
HETATM   34  C   UNL     1     -43.127  55.039 -50.391  1.00  0.00     0.009 A 
ENDBRANCH  28  29
ENDBRANCH   2  28
TORSDOF 5
ENDMDL
MODEL 7
REMARK VINA RESULT:      -7.8     16.650     18.982
REMARK  5 active torsions:
REMARK  status: ('A' for Active; 'I' for Inactive)
REMARK    1  A    between atoms: C_2  and  C_3 
REMARK       I    between atoms: C_3  and  N_4 
REMARK    2  A    between atoms: N_4  and  N_5 
REMARK    3  A    between atoms: N_5  and  C_6 
REMARK    4  A    between atoms: N_7  and  C_8 
REMARK    5  A    between atoms: C_8  and  C_9 
ROOT
HETATM    1  C   UNL     1     -35.362  41.122 -52.612  1.00  0.00     0.200 A 
HETATM    2  N   UNL     1     -36.646  40.614 -52.641  1.00  0.00    -0.283 N 
HETATM    3  C   UNL     1     -37.035  39.616 -51.765  1.00  0.00     0.259 A 
HETATM    4  O   UNL     1     -38.169  39.138 -51.783  1.00  0.00    -0.267 OA
HETATM    5  C   UNL     1     -36.028  39.140 -50.777  1.00  0.00     0.049 A 
HETATM    6  C   UNL     1     -34.838  39.771 -50.816  1.00  0.00     0.083 A 
HETATM    7  C   UNL     1     -33.799  39.419 -49.812  1.00  0.00    -0.000 A 
HETATM    8  C   UNL     1     -33.884  38.206 -49.111  1.00  0.00    -0.044 A 
HETATM    9  C   UNL     1     -32.889  37.849 -48.189  1.00  0.00     0.008 A 
HETATM   10  C   UNL     1     -31.822  38.709 -47.941  1.00  0.00     0.001 A 
HETATM   11  C   UNL     1     -31.736  39.922 -48.617  1.00  0.00     0.001 A 
HETATM   12  C   UNL     1     -32.715  40.272 -49.549  1.00  0.00     0.014 A 
HETATM   13  C   UNL     1     -35.023  37.274 -49.415  1.00  0.00     0.054 C 
HETATM   14  C   UNL     1     -36.337  38.032 -49.754  1.00  0.00    -0.002 C 
HETATM   15  C   UNL     1     -36.962  38.637 -48.473  1.00  0.00     0.015 C 
HETATM   16  C   UNL     1     -38.461  38.620 -48.723  1.00  0.00     0.001 C 
HETATM   17  C   UNL     1     -38.702  37.321 -49.476  1.00  0.00     0.001 C 
HETATM   18  C   UNL     1     -37.384  36.966 -50.174  1.00  0.00     0.015 C 
HETATM   19  N   UNL     1     -34.494  40.731 -51.724  1.00  0.00    -0.218 NA
ENDROOT
BRANCH   1  20
HETATM   20  N   UNL     1     -34.957  42.067 -53.546  1.00  0.00    -0.188 NA
HETATM   21  H   UNL     1     -35.706  42.589 -54.001  1.00  0.00     0.150 HD
BRANCH  20  22
HETATM   22  N   UNL     1     -34.064  41.537 -54.523  1.00  0.00    -0.189 NA
HETATM   23  C   UNL     1     -34.400  41.843 -55.830  1.00  0.00     0.210 C 
HETATM   24  O   UNL     1     -35.175  42.755 -56.119  1.00  0.00    -0.279 OA
HETATM   25  H   UNL     1     -33.811  40.569 -54.310  1.00  0.00     0.150 HD
BRANCH  23  26
HETATM   26  C   UNL     1     -33.751  40.945 -56.859  1.00  0.00     0.093 C 
HETATM   27  C   UNL     1     -32.597  40.178 -56.241  1.00  0.00     0.014 C 
ENDBRANCH  23  26
ENDBRANCH  20  22
ENDBRANCH   1  20
BRANCH   2  28
HETATM   28  C   UNL     1     -37.677  41.153 -53.531  1.00  0.00     0.173 C 
BRANCH  28  29
HETATM   29  C   UNL     1     -37.606  40.557 -54.922  1.00  0.00    -0.040 A 
HETATM   30  C   UNL     1     -36.858  39.396 -55.170  1.00  0.00     0.009 A 
HETATM   31  C   UNL     1     -36.789  38.857 -56.457  1.00  0.00     0.001 A 
HETATM   32  C   UNL     1     -37.466  39.470 -57.509  1.00  0.00     0.000 A 
HETATM   33  C   UNL     1     -38.216  40.620 -57.276  1.00  0.00     0.001 A 
HETATM   34  C   UNL     1     -38.288  41.159 -55.990  1.00  0.00     0.009 A 
ENDBRANCH  28  29
ENDBRANCH   2  28
TORSDOF 5
ENDMDL
MODEL 8
REMARK VINA RESULT:      -7.7      3.545      6.365
REMARK  5 active torsions:
REMARK  status: ('A' for Active; 'I' for Inactive)
REMARK    1  A    between atoms: C_2  and  C_3 
REMARK       I    between atoms: C_3  and  N_4 
REMARK    2  A    between atoms: N_4  and  N_5 
REMARK    3  A    between atoms: N_5  and  C_6 
REMARK    4  A    between atoms: N_7  and  C_8 
REMARK    5  A    between atoms: C_8  and  C_9 
ROOT
HETATM    1  C   UNL     1     -44.217  57.829 -51.437  1.00  0.00     0.200 A 
HETATM    2  N   UNL     1     -44.421  57.930 -52.799  1.00  0.00    -0.283 N 
HETATM    3  C   UNL     1     -43.720  57.130 -53.685  1.00  0.00     0.259 A 
HETATM    4  O   UNL     1     -43.876  57.214 -54.902  1.00  0.00    -0.267 OA
HETATM    5  C   UNL     1     -42.767  56.142 -53.109  1.00  0.00     0.049 A 
HETATM    6  C   UNL     1     -42.717  56.104 -51.763  1.00  0.00     0.083 A 
HETATM    7  C   UNL     1     -41.854  55.091 -51.099  1.00  0.00    -0.000 A 
HETATM    8  C   UNL     1     -40.821  54.470 -51.819  1.00  0.00    -0.044 A 
HETATM    9  C   UNL     1     -39.980  53.541 -51.191  1.00  0.00     0.008 A 
HETATM   10  C   UNL     1     -40.179  53.206 -49.853  1.00  0.00     0.001 A 
HETATM   11  C   UNL     1     -41.210  53.802 -49.134  1.00  0.00     0.001 A 
HETATM   12  C   UNL     1     -42.039  54.741 -49.752  1.00  0.00     0.014 A 
HETATM   13  C   UNL     1     -40.599  54.868 -53.251  1.00  0.00     0.054 C 
HETATM   14  C   UNL     1     -41.925  55.201 -53.989  1.00  0.00    -0.002 C 
HETATM   15  C   UNL     1     -42.713  53.905 -54.303  1.00  0.00     0.015 C 
HETATM   16  C   UNL     1     -43.458  54.203 -55.594  1.00  0.00     0.001 C 
HETATM   17  C   UNL     1     -42.484  55.043 -56.405  1.00  0.00     0.001 C 
HETATM   18  C   UNL     1     -41.543  55.719 -55.402  1.00  0.00     0.015 C 
HETATM   19  N   UNL     1     -43.409  56.939 -50.934  1.00  0.00    -0.218 NA
ENDROOT
BRANCH   1  20
HETATM   20  N   UNL     1     -44.865  58.688 -50.561  1.00  0.00    -0.188 NA
HETATM   21  H   UNL     1     -45.808  58.969 -50.832  1.00  0.00     0.150 HD
BRANCH  20  22
HETATM   22  N   UNL     1     -44.088  59.837 -50.229  1.00  0.00    -0.189 NA
HETATM   23  C   UNL     1     -44.819  60.891 -49.709  1.00  0.00     0.210 C 
HETATM   24  O   UNL     1     -45.953  60.750 -49.253  1.00  0.00    -0.279 OA
HETATM   25  H   UNL     1     -43.403  60.045 -50.959  1.00  0.00     0.150 HD
BRANCH  23  26
HETATM   26  C   UNL     1     -44.108  62.224 -49.775  1.00  0.00     0.093 C 
HETATM   27  C   UNL     1     -42.715  62.054 -50.351  1.00  0.00     0.014 C 
ENDBRANCH  23  26
ENDBRANCH  20  22
ENDBRANCH   1  20
BRANCH   2  28
HETATM   28  C   UNL     1     -45.438  58.817 -53.370  1.00  0.00     0.173 C 
BRANCH  28  29
HETATM   29  C   UNL     1     -44.949  60.246 -53.496  1.00  0.00    -0.040 A 
HETATM   30  C   UNL     1     -43.627  60.523 -53.875  1.00  0.00     0.009 A 
HETATM   31  C   UNL     1     -43.181  61.843 -53.981  1.00  0.00     0.001 A 
HETATM   32  C   UNL     1     -44.049  62.899 -53.711  1.00  0.00     0.000 A 
HETATM   33  C   UNL     1     -45.365  62.638 -53.339  1.00  0.00     0.001 A 
HETATM   34  C   UNL     1     -45.814  61.320 -53.235  1.00  0.00     0.009 A 
ENDBRANCH  28  29
ENDBRANCH   2  28
TORSDOF 5
ENDMDL
MODEL 9
REMARK VINA RESULT:      -7.7      2.682      4.975
REMARK  5 active torsions:
REMARK  status: ('A' for Active; 'I' for Inactive)
REMARK    1  A    between atoms: C_2  and  C_3 
REMARK       I    between atoms: C_3  and  N_4 
REMARK    2  A    between atoms: N_4  and  N_5 
REMARK    3  A    between atoms: N_5  and  C_6 
REMARK    4  A    between atoms: N_7  and  C_8 
REMARK    5  A    between atoms: C_8  and  C_9 
ROOT
HETATM    1  C   UNL     1     -42.194  59.430 -56.819  1.00  0.00     0.200 A 
HETATM    2  N   UNL     1     -42.365  58.171 -57.360  1.00  0.00    -0.283 N 
HETATM    3  C   UNL     1     -42.269  57.038 -56.571  1.00  0.00     0.259 A 
HETATM    4  O   UNL     1     -42.403  55.907 -57.036  1.00  0.00    -0.267 OA
HETATM    5  C   UNL     1     -42.008  57.235 -55.119  1.00  0.00     0.049 A 
HETATM    6  C   UNL     1     -41.930  58.518 -54.715  1.00  0.00     0.083 A 
HETATM    7  C   UNL     1     -41.754  58.811 -53.268  1.00  0.00    -0.000 A 
HETATM    8  C   UNL     1     -41.277  57.814 -52.403  1.00  0.00    -0.044 A 
HETATM    9  C   UNL     1     -41.072  58.093 -51.044  1.00  0.00     0.008 A 
HETATM   10  C   UNL     1     -41.368  59.356 -50.535  1.00  0.00     0.001 A 
HETATM   11  C   UNL     1     -41.857  60.347 -51.379  1.00  0.00     0.001 A 
HETATM   12  C   UNL     1     -42.045  60.079 -52.736  1.00  0.00     0.014 A 
HETATM   13  C   UNL     1     -40.931  56.468 -52.975  1.00  0.00     0.054 C 
HETATM   14  C   UNL     1     -41.875  56.056 -54.139  1.00  0.00    -0.002 C 
HETATM   15  C   UNL     1     -43.265  55.646 -53.593  1.00  0.00     0.015 C 
HETATM   16  C   UNL     1     -43.770  54.591 -54.563  1.00  0.00     0.001 C 
HETATM   17  C   UNL     1     -42.529  53.794 -54.932  1.00  0.00     0.001 C 
HETATM   18  C   UNL     1     -41.329  54.723 -54.718  1.00  0.00     0.015 C 
HETATM   19  N   UNL     1     -42.001  59.602 -55.542  1.00  0.00    -0.218 NA
ENDROOT
BRANCH   1  20
HETATM   20  N   UNL     1     -42.213  60.555 -57.631  1.00  0.00    -0.188 NA
HETATM   21  H   UNL     1     -42.562  60.412 -58.580  1.00  0.00     0.150 HD
BRANCH  20  22
HETATM   22  N   UNL     1     -40.961  61.238 -57.668  1.00  0.00    -0.189 NA
HETATM   23  C   UNL     1     -40.876  62.224 -58.634  1.00  0.00     0.210 C 
HETATM   24  O   UNL     1     -41.869  62.710 -59.175  1.00  0.00    -0.279 OA
HETATM   25  H   UNL     1     -40.179  60.584 -57.584  1.00  0.00     0.150 HD
BRANCH  23  26
HETATM   26  C   UNL     1     -39.460  62.630 -58.977  1.00  0.00     0.093 C 
HETATM   27  C   UNL     1     -39.426  63.366 -60.304  1.00  0.00     0.014 C 
ENDBRANCH  23  26
ENDBRANCH  20  22
ENDBRANCH   1  20
BRANCH   2  28
HETATM   28  C   UNL     1     -42.735  57.971 -58.764  1.00  0.00     0.173 C 
BRANCH  28  29
HETATM   29  C   UNL     1     -44.207  57.652 -58.932  1.00  0.00    -0.040 A 
HETATM   30  C   UNL     1     -44.626  56.615 -59.779  1.00  0.00     0.009 A 
HETATM   31  C   UNL     1     -45.985  56.332 -59.936  1.00  0.00     0.001 A 
HETATM   32  C   UNL     1     -46.939  57.080 -59.249  1.00  0.00     0.000 A 
HETATM   33  C   UNL     1     -46.536  58.110 -58.402  1.00  0.00     0.001 A 
HETATM   34  C   UNL     1     -45.179  58.392 -58.241  1.00  0.00     0.009 A 
ENDBRANCH  28  29
ENDBRANCH   2  28
TORSDOF 5
ENDMDL
MODEL 10
REMARK VINA RESULT:      -7.7      2.209      6.461
REMARK  5 active torsions:
REMARK  status: ('A' for Active; 'I' for Inactive)
REMARK    1  A    between atoms: C_2  and  C_3 
REMARK       I    between atoms: C_3  and  N_4 
REMARK    2  A    between atoms: N_4  and  N_5 
REMARK    3  A    between atoms: N_5  and  C_6 
REMARK    4  A    between atoms: N_7  and  C_8 
REMARK    5  A    between atoms: C_8  and  C_9 
ROOT
HETATM    1  C   UNL     1     -41.832  56.473 -54.493  1.00  0.00     0.200 A 
HETATM    2  N   UNL     1     -41.660  57.798 -54.148  1.00  0.00    -0.283 N 
HETATM    3  C   UNL     1     -41.864  58.807 -55.074  1.00  0.00     0.259 A 
HETATM    4  O   UNL     1     -41.702  59.993 -54.792  1.00  0.00    -0.267 OA
HETATM    5  C   UNL     1     -42.304  58.405 -56.439  1.00  0.00     0.049 A 
HETATM    6  C   UNL     1     -42.498  57.084 -56.617  1.00  0.00     0.083 A 
HETATM    7  C   UNL     1     -43.017  56.599 -57.924  1.00  0.00    -0.000 A 
HETATM    8  C   UNL     1     -42.924  57.415 -59.062  1.00  0.00    -0.044 A 
HETATM    9  C   UNL     1     -43.377  56.951 -60.305  1.00  0.00     0.008 A 
HETATM   10  C   UNL     1     -43.950  55.686 -60.415  1.00  0.00     0.001 A 
HETATM   11  C   UNL     1     -44.062  54.874 -59.291  1.00  0.00     0.001 A 
HETATM   12  C   UNL     1     -43.596  55.326 -58.055  1.00  0.00     0.014 A 
HETATM   13  C   UNL     1     -42.274  58.764 -58.931  1.00  0.00     0.054 C 
HETATM   14  C   UNL     1     -42.558  59.431 -57.557  1.00  0.00    -0.002 C 
HETATM   15  C   UNL     1     -44.016  59.949 -57.495  1.00  0.00     0.015 C 
HETATM   16  C   UNL     1     -43.959  61.170 -56.591  1.00  0.00     0.001 C 
HETATM   17  C   UNL     1     -42.639  61.838 -56.943  1.00  0.00     0.001 C 
HETATM   18  C   UNL     1     -41.727  60.742 -57.506  1.00  0.00     0.015 C 
HETATM   19  N   UNL     1     -42.252  56.125 -55.676  1.00  0.00    -0.218 NA
ENDROOT
BRANCH   1  20
HETATM   20  N   UNL     1     -41.549  55.464 -53.581  1.00  0.00    -0.188 NA
HETATM   21  H   UNL     1     -40.677  55.568 -53.062  1.00  0.00     0.150 HD
BRANCH  20  22
HETATM   22  N   UNL     1     -41.627  54.159 -54.151  1.00  0.00    -0.189 NA
HETATM   23  C   UNL     1     -40.791  53.228 -53.563  1.00  0.00     0.210 C 
HETATM   24  O   UNL     1     -40.289  53.396 -52.452  1.00  0.00    -0.279 OA
HETATM   25  H   UNL     1     -41.651  54.201 -55.173  1.00  0.00     0.150 HD
BRANCH  23  26
HETATM   26  C   UNL     1     -40.536  52.005 -54.415  1.00  0.00     0.093 C 
HETATM   27  C   UNL     1     -39.575  51.062 -53.715  1.00  0.00     0.014 C 
ENDBRANCH  23  26
ENDBRANCH  20  22
ENDBRANCH   1  20
BRANCH   2  28
HETATM   28  C   UNL     1     -41.339  58.211 -52.780  1.00  0.00     0.173 C 
BRANCH  28  29
HETATM   29  C   UNL     1     -42.559  58.692 -52.021  1.00  0.00    -0.040 A 
HETATM   30  C   UNL     1     -43.719  57.906 -51.952  1.00  0.00     0.009 A 
HETATM   31  C   UNL     1     -44.844  58.359 -51.258  1.00  0.00     0.001 A 
HETATM   32  C   UNL     1     -44.823  59.601 -50.626  1.00  0.00     0.000 A 
HETATM   33  C   UNL     1     -43.676  60.390 -50.683  1.00  0.00     0.001 A 
HETATM   34  C   UNL     1     -42.550  59.937 -51.373  1.00  0.00     0.009 A 
ENDBRANCH  28  29
ENDBRANCH   2  28
TORSDOF 5
ENDMDL
