MODEL 1
REMARK VINA RESULT:      -8.0      0.000      0.000
REMARK  8 active torsions:
REMARK  status: ('A' for Active; 'I' for Inactive)
REMARK    1  A    between atoms: C_8  and  C_9 
REMARK       I    between atoms: C_9  and  N_10 
REMARK    2  A    between atoms: N_10  and  N_11 
REMARK    3  A    between atoms: N_11  and  C_12 
REMARK    4  A    between atoms: C_12  and  N_13 
REMARK    5  A    between atoms: N_13  and  C_14 
REMARK    6  A    between atoms: C_15  and  O_16 
REMARK    7  A    between atoms: C_19  and  O_20 
REMARK    8  A    between atoms: C_26  and  C_27 
ROOT
HETATM    1  C   UNL     1     -43.228  55.261 -53.669  1.00  0.00     0.275 C 
HETATM    2  N   UNL     1     -43.981  55.681 -54.748  1.00  0.00    -0.263 N 
HETATM    3  O   UNL     1     -43.471  55.608 -52.514  1.00  0.00    -0.266 OA
HETATM    4  H   UNL     1     -43.623  55.603 -55.697  1.00  0.00     0.190 HD
ENDROOT
BRANCH   2   5
HETATM    5  N   UNL     1     -45.094  56.501 -54.528  1.00  0.00    -0.273 N 
HETATM    6  H   UNL     1     -45.653  56.243 -53.713  1.00  0.00     0.189 HD
BRANCH   5   7
HETATM    7  C   UNL     1     -45.100  57.819 -54.903  1.00  0.00     0.191 C 
HETATM    8  S   UNL     1     -45.633  58.379 -56.390  1.00  0.00    -0.039 SA
BRANCH   7   9
HETATM    9  N   UNL     1     -44.622  58.724 -53.999  1.00  0.00    -0.330 N 
HETATM   10  H   UNL     1     -45.335  59.311 -53.569  1.00  0.00     0.168 HD
BRANCH   9  11
HETATM   11  C   UNL     1     -43.327  58.929 -53.468  1.00  0.00     0.068 A 
HETATM   12  C   UNL     1     -43.227  59.122 -52.073  1.00  0.00     0.097 A 
HETATM   13  C   UNL     1     -41.970  59.286 -51.473  1.00  0.00     0.075 A 
HETATM   14  C   UNL     1     -40.811  59.248 -52.250  1.00  0.00     0.070 A 
HETATM   15  C   UNL     1     -40.914  59.042 -53.625  1.00  0.00     0.039 A 
HETATM   16  C   UNL     1     -42.160  58.873 -54.231  1.00  0.00     0.035 A 
BRANCH  12  17
HETATM   17  O   UNL     1     -44.425  59.123 -51.394  1.00  0.00    -0.354 OA
HETATM   18  C   UNL     1     -44.749  60.287 -50.644  1.00  0.00     0.210 C 
ENDBRANCH  12  17
BRANCH  14  19
HETATM   19  O   UNL     1     -39.528  59.383 -51.795  1.00  0.00    -0.356 OA
HETATM   20  C   UNL     1     -39.351  59.609 -50.402  1.00  0.00     0.210 C 
ENDBRANCH  14  19
ENDBRANCH   9  11
ENDBRANCH   7   9
ENDBRANCH   5   7
ENDBRANCH   2   5
BRANCH   1  21
HETATM   21  C   UNL     1     -42.130  54.386 -54.013  1.00  0.00     0.098 A 
HETATM   22  C   UNL     1     -41.455  53.484 -53.211  1.00  0.00     0.138 A 
HETATM   23  N   UNL     1     -41.535  53.169 -51.894  1.00  0.00    -0.370 N 
HETATM   24  N   UNL     1     -40.507  52.908 -54.017  1.00  0.00    -0.240 N 
HETATM   25  C   UNL     1     -40.627  52.201 -51.277  1.00  0.00     0.081 C 
HETATM   26  H   UNL     1     -42.087  53.733 -51.246  1.00  0.00     0.161 HD
HETATM   27  C   UNL     1     -40.397  52.584 -49.816  1.00  0.00     0.032 C 
HETATM   28  C   UNL     1     -39.295  52.155 -52.042  1.00  0.00     0.061 C 
HETATM   29  C   UNL     1     -39.517  51.956 -53.551  1.00  0.00     0.221 C 
HETATM   30  N   UNL     1     -40.451  53.427 -55.254  1.00  0.00    -0.181 NA
HETATM   31  C   UNL     1     -41.449  54.319 -55.253  1.00  0.00     0.160 A 
BRANCH  29  32
HETATM   32  C   UNL     1     -39.948  50.551 -53.901  1.00  0.00     0.409 C 
HETATM   33  F   UNL     1     -41.209  50.482 -54.382  1.00  0.00    -0.169 F 
HETATM   34  F   UNL     1     -39.133  49.964 -54.804  1.00  0.00    -0.169 F 
HETATM   35  F   UNL     1     -39.915  49.771 -52.789  1.00  0.00    -0.169 F 
ENDBRANCH  29  32
ENDBRANCH   1  21
TORSDOF 8
ENDMDL
MODEL 2
REMARK VINA RESULT:      -7.9      3.020      5.062
REMARK  8 active torsions:
REMARK  status: ('A' for Active; 'I' for Inactive)
REMARK    1  A    between atoms: C_8  and  C_9 
REMARK       I    between atoms: C_9  and  N_10 
REMARK    2  A    between atoms: N_10  and  N_11 
REMARK    3  A    between atoms: N_11  and  C_12 
REMARK    4  A    between atoms: C_12  and  N_13 
REMARK    5  A    between atoms: N_13  and  C_14 
REMARK    6  A    between atoms: C_15  and  O_16 
REMARK    7  A    between atoms: C_19  and  O_20 
REMARK    8  A    between atoms: C_26  and  C_27 
ROOT
HETATM    1  C   UNL     1     -43.209  55.466 -53.810  1.00  0.00     0.275 C 
HETATM    2  N   UNL     1     -43.993  55.838 -54.885  1.00  0.00    -0.263 N 
HETATM    3  O   UNL     1     -43.410  55.875 -52.668  1.00  0.00    -0.266 OA
HETATM    4  H   UNL     1     -43.667  55.707 -55.840  1.00  0.00     0.190 HD
ENDROOT
BRANCH   2   5
HETATM    5  N   UNL     1     -45.090  56.680 -54.672  1.00  0.00    -0.273 N 
HETATM    6  H   UNL     1     -45.766  56.328 -53.992  1.00  0.00     0.189 HD
BRANCH   5   7
HETATM    7  C   UNL     1     -44.990  58.040 -54.811  1.00  0.00     0.191 C 
HETATM    8  S   UNL     1     -44.909  59.120 -53.532  1.00  0.00    -0.039 SA
BRANCH   7   9
HETATM    9  N   UNL     1     -44.973  58.534 -56.084  1.00  0.00    -0.330 N 
HETATM   10  H   UNL     1     -44.530  59.446 -56.178  1.00  0.00     0.168 HD
BRANCH   9  11
HETATM   11  C   UNL     1     -45.366  57.967 -57.319  1.00  0.00     0.068 A 
HETATM   12  C   UNL     1     -44.379  57.273 -58.050  1.00  0.00     0.097 A 
HETATM   13  C   UNL     1     -44.709  56.647 -59.261  1.00  0.00     0.075 A 
HETATM   14  C   UNL     1     -46.018  56.697 -59.743  1.00  0.00     0.070 A 
HETATM   15  C   UNL     1     -46.993  57.371 -59.010  1.00  0.00     0.039 A 
HETATM   16  C   UNL     1     -46.676  57.993 -57.801  1.00  0.00     0.035 A 
BRANCH  12  17
HETATM   17  O   UNL     1     -43.124  57.264 -57.481  1.00  0.00    -0.354 OA
HETATM   18  C   UNL     1     -42.114  58.038 -58.114  1.00  0.00     0.210 C 
ENDBRANCH  12  17
BRANCH  14  19
HETATM   19  O   UNL     1     -46.477  56.126 -60.898  1.00  0.00    -0.356 OA
HETATM   20  C   UNL     1     -47.682  56.645 -61.447  1.00  0.00     0.210 C 
ENDBRANCH  14  19
ENDBRANCH   9  11
ENDBRANCH   7   9
ENDBRANCH   5   7
ENDBRANCH   2   5
BRANCH   1  21
HETATM   21  C   UNL     1     -42.131  54.563 -54.144  1.00  0.00     0.098 A 
HETATM   22  C   UNL     1     -41.481  53.650 -53.333  1.00  0.00     0.138 A 
HETATM   23  N   UNL     1     -41.574  53.347 -52.014  1.00  0.00    -0.370 N 
HETATM   24  N   UNL     1     -40.543  53.046 -54.131  1.00  0.00    -0.240 N 
HETATM   25  C   UNL     1     -40.692  52.361 -51.387  1.00  0.00     0.081 C 
HETATM   26  H   UNL     1     -42.114  53.928 -51.373  1.00  0.00     0.161 HD
HETATM   27  C   UNL     1     -40.457  52.749 -49.928  1.00  0.00     0.032 C 
HETATM   28  C   UNL     1     -39.358  52.278 -52.146  1.00  0.00     0.061 C 
HETATM   29  C   UNL     1     -39.579  52.074 -53.655  1.00  0.00     0.221 C 
HETATM   30  N   UNL     1     -40.471  53.555 -55.372  1.00  0.00    -0.181 NA
HETATM   31  C   UNL     1     -41.446  54.470 -55.381  1.00  0.00     0.160 A 
BRANCH  29  32
HETATM   32  C   UNL     1     -40.042  50.677 -53.997  1.00  0.00     0.409 C 
HETATM   33  F   UNL     1     -41.324  50.627 -54.420  1.00  0.00    -0.169 F 
HETATM   34  F   UNL     1     -39.276  50.090 -54.941  1.00  0.00    -0.169 F 
HETATM   35  F   UNL     1     -39.967  49.886 -52.894  1.00  0.00    -0.169 F 
ENDBRANCH  29  32
ENDBRANCH   1  21
TORSDOF 8
ENDMDL
MODEL 3
REMARK VINA RESULT:      -7.8      3.215      4.547
REMARK  8 active torsions:
REMARK  status: ('A' for Active; 'I' for Inactive)
REMARK    1  A    between atoms: C_8  and  C_9 
REMARK       I    between atoms: C_9  and  N_10 
REMARK    2  A    between atoms: N_10  and  N_11 
REMARK    3  A    between atoms: N_11  and  C_12 
REMARK    4  A    between atoms: C_12  and  N_13 
REMARK    5  A    between atoms: N_13  and  C_14 
REMARK    6  A    between atoms: C_15  and  O_16 
REMARK    7  A    between atoms: C_19  and  O_20 
REMARK    8  A    between atoms: C_26  and  C_27 
ROOT
HETATM    1  C   UNL     1     -43.037  55.295 -53.693  1.00  0.00     0.275 C 
HETATM    2  N   UNL     1     -43.961  55.475 -54.703  1.00  0.00    -0.263 N 
HETATM    3  O   UNL     1     -43.116  55.870 -52.609  1.00  0.00    -0.266 OA
HETATM    4  H   UNL     1     -43.747  55.206 -55.661  1.00  0.00     0.190 HD
ENDROOT
BRANCH   2   5
HETATM    5  N   UNL     1     -45.061  56.310 -54.482  1.00  0.00    -0.273 N 
HETATM    6  H   UNL     1     -45.553  56.136 -53.604  1.00  0.00     0.189 HD
BRANCH   5   7
HETATM    7  C   UNL     1     -45.110  57.584 -54.987  1.00  0.00     0.191 C 
HETATM    8  S   UNL     1     -44.938  58.975 -54.068  1.00  0.00    -0.039 SA
BRANCH   7   9
HETATM    9  N   UNL     1     -45.329  57.712 -56.329  1.00  0.00    -0.330 N 
HETATM   10  H   UNL     1     -46.310  57.791 -56.592  1.00  0.00     0.168 HD
BRANCH   9  11
HETATM   11  C   UNL     1     -44.439  57.862 -57.417  1.00  0.00     0.068 A 
HETATM   12  C   UNL     1     -44.974  57.700 -58.713  1.00  0.00     0.097 A 
HETATM   13  C   UNL     1     -44.159  57.879 -59.840  1.00  0.00     0.075 A 
HETATM   14  C   UNL     1     -42.816  58.229 -59.687  1.00  0.00     0.070 A 
HETATM   15  C   UNL     1     -42.296  58.402 -58.406  1.00  0.00     0.039 A 
HETATM   16  C   UNL     1     -43.100  58.231 -57.277  1.00  0.00     0.035 A 
BRANCH  12  17
HETATM   17  O   UNL     1     -46.312  57.375 -58.759  1.00  0.00    -0.354 OA
HETATM   18  C   UNL     1     -46.773  56.667 -59.901  1.00  0.00     0.210 C 
ENDBRANCH  12  17
BRANCH  14  19
HETATM   19  O   UNL     1     -41.916  58.443 -60.694  1.00  0.00    -0.356 OA
HETATM   20  C   UNL     1     -41.836  59.759 -61.227  1.00  0.00     0.210 C 
ENDBRANCH  14  19
ENDBRANCH   9  11
ENDBRANCH   7   9
ENDBRANCH   5   7
ENDBRANCH   2   5
BRANCH   1  21
HETATM   21  C   UNL     1     -41.967  54.380 -54.021  1.00  0.00     0.098 A 
HETATM   22  C   UNL     1     -41.343  53.448 -53.211  1.00  0.00     0.138 A 
HETATM   23  N   UNL     1     -41.461  53.130 -51.897  1.00  0.00    -0.370 N 
HETATM   24  N   UNL     1     -40.402  52.839 -54.002  1.00  0.00    -0.240 N 
HETATM   25  C   UNL     1     -40.604  52.124 -51.268  1.00  0.00     0.081 C 
HETATM   26  H   UNL     1     -42.003  53.712 -51.257  1.00  0.00     0.161 HD
HETATM   27  C   UNL     1     -40.386  52.491 -49.801  1.00  0.00     0.032 C 
HETATM   28  C   UNL     1     -39.260  52.030 -52.007  1.00  0.00     0.061 C 
HETATM   29  C   UNL     1     -39.459  51.847 -53.522  1.00  0.00     0.221 C 
HETATM   30  N   UNL     1     -40.303  53.362 -55.235  1.00  0.00    -0.181 NA
HETATM   31  C   UNL     1     -41.264  54.291 -55.248  1.00  0.00     0.160 A 
BRANCH  29  32
HETATM   32  C   UNL     1     -39.938  50.461 -53.888  1.00  0.00     0.409 C 
HETATM   33  F   UNL     1     -39.934  49.601 -52.847  1.00  0.00    -0.169 F 
HETATM   34  F   UNL     1     -41.181  50.461 -54.416  1.00  0.00    -0.169 F 
HETATM   35  F   UNL     1     -39.120  49.929 -54.833  1.00  0.00    -0.169 F 
ENDBRANCH  29  32
ENDBRANCH   1  21
TORSDOF 8
ENDMDL
MODEL 4
REMARK VINA RESULT:      -7.6      3.675      5.619
REMARK  8 active torsions:
REMARK  status: ('A' for Active; 'I' for Inactive)
REMARK    1  A    between atoms: C_8  and  C_9 
REMARK       I    between atoms: C_9  and  N_10 
REMARK    2  A    between atoms: N_10  and  N_11 
REMARK    3  A    between atoms: N_11  and  C_12 
REMARK    4  A    between atoms: C_12  and  N_13 
REMARK    5  A    between atoms: N_13  and  C_14 
REMARK    6  A    between atoms: C_15  and  O_16 
REMARK    7  A    between atoms: C_19  and  O_20 
REMARK    8  A    between atoms: C_26  and  C_27 
ROOT
HETATM    1  C   UNL     1     -41.128  58.799 -53.201  1.00  0.00     0.275 C 
HETATM    2  N   UNL     1     -42.211  59.256 -53.926  1.00  0.00    -0.263 N 
HETATM    3  O   UNL     1     -40.026  59.345 -53.237  1.00  0.00    -0.266 OA
HETATM    4  H   UNL     1     -43.019  58.661 -54.090  1.00  0.00     0.190 HD
ENDROOT
BRANCH   2   5
HETATM    5  N   UNL     1     -42.075  60.412 -54.703  1.00  0.00    -0.273 N 
HETATM    6  H   UNL     1     -41.310  61.025 -54.416  1.00  0.00     0.189 HD
BRANCH   5   7
HETATM    7  C   UNL     1     -42.437  60.436 -56.025  1.00  0.00     0.191 C 
HETATM    8  S   UNL     1     -43.701  61.347 -56.644  1.00  0.00    -0.039 SA
BRANCH   7   9
HETATM    9  N   UNL     1     -41.721  59.649 -56.879  1.00  0.00    -0.330 N 
HETATM   10  H   UNL     1     -40.714  59.666 -56.730  1.00  0.00     0.168 HD
BRANCH   9  11
HETATM   11  C   UNL     1     -42.128  58.728 -57.873  1.00  0.00     0.068 A 
HETATM   12  C   UNL     1     -42.565  57.459 -57.434  1.00  0.00     0.097 A 
HETATM   13  C   UNL     1     -43.025  56.513 -58.360  1.00  0.00     0.075 A 
HETATM   14  C   UNL     1     -43.064  56.823 -59.721  1.00  0.00     0.070 A 
HETATM   15  C   UNL     1     -42.645  58.082 -60.148  1.00  0.00     0.039 A 
HETATM   16  C   UNL     1     -42.190  59.033 -59.234  1.00  0.00     0.035 A 
BRANCH  12  17
HETATM   17  O   UNL     1     -42.507  57.258 -56.072  1.00  0.00    -0.354 OA
HETATM   18  C   UNL     1     -43.459  56.369 -55.503  1.00  0.00     0.210 C 
ENDBRANCH  12  17
BRANCH  14  19
HETATM   19  O   UNL     1     -43.496  56.002 -60.726  1.00  0.00    -0.356 OA
HETATM   20  C   UNL     1     -44.607  55.160 -60.446  1.00  0.00     0.210 C 
ENDBRANCH  14  19
ENDBRANCH   9  11
ENDBRANCH   7   9
ENDBRANCH   5   7
ENDBRANCH   2   5
BRANCH   1  21
HETATM   21  C   UNL     1     -41.398  57.623 -52.405  1.00  0.00     0.098 A 
HETATM   22  C   UNL     1     -41.123  56.299 -52.693  1.00  0.00     0.138 A 
HETATM   23  N   UNL     1     -40.599  55.671 -53.777  1.00  0.00    -0.370 N 
HETATM   24  N   UNL     1     -41.575  55.582 -51.614  1.00  0.00    -0.240 N 
HETATM   25  C   UNL     1     -40.484  54.214 -53.842  1.00  0.00     0.081 C 
HETATM   26  H   UNL     1     -40.455  56.166 -54.658  1.00  0.00     0.161 HD
HETATM   27  C   UNL     1     -40.622  53.760 -55.294  1.00  0.00     0.032 C 
HETATM   28  C   UNL     1     -41.557  53.553 -52.963  1.00  0.00     0.061 C 
HETATM   29  C   UNL     1     -41.558  54.134 -51.538  1.00  0.00     0.221 C 
HETATM   30  N   UNL     1     -42.202  56.325 -50.688  1.00  0.00    -0.181 NA
HETATM   31  C   UNL     1     -42.082  57.569 -51.166  1.00  0.00     0.160 A 
BRANCH  29  32
HETATM   32  C   UNL     1     -40.377  53.675 -50.716  1.00  0.00     0.409 C 
HETATM   33  F   UNL     1     -39.574  54.686 -50.320  1.00  0.00    -0.169 F 
HETATM   34  F   UNL     1     -40.744  52.987 -49.614  1.00  0.00    -0.169 F 
HETATM   35  F   UNL     1     -39.604  52.834 -51.453  1.00  0.00    -0.169 F 
ENDBRANCH  29  32
ENDBRANCH   1  21
TORSDOF 8
ENDMDL
MODEL 5
REMARK VINA RESULT:      -7.4      2.236      3.110
REMARK  8 active torsions:
REMARK  status: ('A' for Active; 'I' for Inactive)
REMARK    1  A    between atoms: C_8  and  C_9 
REMARK       I    between atoms: C_9  and  N_10 
REMARK    2  A    between atoms: N_10  and  N_11 
REMARK    3  A    between atoms: N_11  and  C_12 
REMARK    4  A    between atoms: C_12  and  N_13 
REMARK    5  A    between atoms: N_13  and  C_14 
REMARK    6  A    between atoms: C_15  and  O_16 
REMARK    7  A    between atoms: C_19  and  O_20 
REMARK    8  A    between atoms: C_26  and  C_27 
ROOT
HETATM    1  C   UNL     1     -43.636  55.117 -53.620  1.00  0.00     0.275 C 
HETATM    2  N   UNL     1     -44.528  56.170 -53.558  1.00  0.00    -0.263 N 
HETATM    3  O   UNL     1     -43.367  54.534 -54.669  1.00  0.00    -0.266 OA
HETATM    4  H   UNL     1     -44.931  56.462 -52.671  1.00  0.00     0.190 HD
ENDROOT
BRANCH   2   5
HETATM    5  N   UNL     1     -45.125  56.630 -54.737  1.00  0.00    -0.273 N 
HETATM    6  H   UNL     1     -46.121  56.419 -54.816  1.00  0.00     0.189 HD
BRANCH   5   7
HETATM    7  C   UNL     1     -44.667  57.747 -55.386  1.00  0.00     0.191 C 
HETATM    8  S   UNL     1     -44.342  57.823 -57.028  1.00  0.00    -0.039 SA
BRANCH   7   9
HETATM    9  N   UNL     1     -44.450  58.861 -54.627  1.00  0.00    -0.330 N 
HETATM   10  H   UNL     1     -45.151  59.592 -54.736  1.00  0.00     0.168 HD
BRANCH   9  11
HETATM   11  C   UNL     1     -43.484  59.150 -53.634  1.00  0.00     0.068 A 
HETATM   12  C   UNL     1     -43.963  59.479 -52.348  1.00  0.00     0.097 A 
HETATM   13  C   UNL     1     -43.062  59.732 -51.303  1.00  0.00     0.075 A 
HETATM   14  C   UNL     1     -41.687  59.649 -51.528  1.00  0.00     0.070 A 
HETATM   15  C   UNL     1     -41.219  59.309 -52.796  1.00  0.00     0.039 A 
HETATM   16  C   UNL     1     -42.108  59.050 -53.841  1.00  0.00     0.035 A 
BRANCH  12  17
HETATM   17  O   UNL     1     -45.335  59.515 -52.224  1.00  0.00    -0.354 OA
HETATM   18  C   UNL     1     -45.872  59.500 -50.908  1.00  0.00     0.210 C 
ENDBRANCH  12  17
BRANCH  14  19
HETATM   19  O   UNL     1     -40.702  59.861 -50.602  1.00  0.00    -0.356 OA
HETATM   20  C   UNL     1     -39.421  59.307 -50.877  1.00  0.00     0.210 C 
ENDBRANCH  14  19
ENDBRANCH   9  11
ENDBRANCH   7   9
ENDBRANCH   5   7
ENDBRANCH   2   5
BRANCH   1  21
HETATM   21  C   UNL     1     -43.053  54.755 -52.348  1.00  0.00     0.098 A 
HETATM   22  C   UNL     1     -41.888  54.053 -52.095  1.00  0.00     0.138 A 
HETATM   23  N   UNL     1     -40.978  53.441 -52.895  1.00  0.00    -0.370 N 
HETATM   24  N   UNL     1     -41.786  53.983 -50.729  1.00  0.00    -0.240 N 
HETATM   25  C   UNL     1     -39.849  52.692 -52.344  1.00  0.00     0.081 C 
HETATM   26  H   UNL     1     -41.153  53.309 -53.892  1.00  0.00     0.161 HD
HETATM   27  C   UNL     1     -39.488  51.550 -53.293  1.00  0.00     0.032 C 
HETATM   28  C   UNL     1     -40.199  52.147 -50.950  1.00  0.00     0.061 C 
HETATM   29  C   UNL     1     -40.744  53.254 -50.031  1.00  0.00     0.221 C 
HETATM   30  N   UNL     1     -42.836  54.504 -50.074  1.00  0.00    -0.181 NA
HETATM   31  C   UNL     1     -43.600  54.984 -51.061  1.00  0.00     0.160 A 
BRANCH  29  32
HETATM   32  C   UNL     1     -39.672  54.210 -49.562  1.00  0.00     0.409 C 
HETATM   33  F   UNL     1     -38.447  53.924 -50.056  1.00  0.00    -0.169 F 
HETATM   34  F   UNL     1     -39.948  55.495 -49.870  1.00  0.00    -0.169 F 
HETATM   35  F   UNL     1     -39.567  54.153 -48.209  1.00  0.00    -0.169 F 
ENDBRANCH  29  32
ENDBRANCH   1  21
TORSDOF 8
ENDMDL
MODEL 6
REMARK VINA RESULT:      -7.4      4.787      7.715
REMARK  8 active torsions:
REMARK  status: ('A' for Active; 'I' for Inactive)
REMARK    1  A    between atoms: C_8  and  C_9 
REMARK       I    between atoms: C_9  and  N_10 
REMARK    2  A    between atoms: N_10  and  N_11 
REMARK    3  A    between atoms: N_11  and  C_12 
REMARK    4  A    between atoms: C_12  and  N_13 
REMARK    5  A    between atoms: N_13  and  C_14 
REMARK    6  A    between atoms: C_15  and  O_16 
REMARK    7  A    between atoms: C_19  and  O_20 
REMARK    8  A    between atoms: C_26  and  C_27 
ROOT
HETATM    1  C   UNL     1     -43.787  57.392 -54.506  1.00  0.00     0.275 C 
HETATM    2  N   UNL     1     -42.960  57.360 -53.400  1.00  0.00    -0.263 N 
HETATM    3  O   UNL     1     -44.933  56.947 -54.492  1.00  0.00    -0.266 OA
HETATM    4  H   UNL     1     -41.955  57.487 -53.496  1.00  0.00     0.190 HD
ENDROOT
BRANCH   2   5
HETATM    5  N   UNL     1     -43.448  56.842 -52.196  1.00  0.00    -0.273 N 
HETATM    6  H   UNL     1     -44.438  57.030 -52.027  1.00  0.00     0.189 HD
BRANCH   5   7
HETATM    7  C   UNL     1     -42.920  55.709 -51.635  1.00  0.00     0.191 C 
HETATM    8  S   UNL     1     -43.715  54.747 -50.515  1.00  0.00    -0.039 SA
BRANCH   7   9
HETATM    9  N   UNL     1     -41.654  55.361 -52.010  1.00  0.00    -0.330 N 
HETATM   10  H   UNL     1     -40.968  56.109 -51.933  1.00  0.00     0.168 HD
BRANCH   9  11
HETATM   11  C   UNL     1     -41.094  54.119 -52.390  1.00  0.00     0.068 A 
HETATM   12  C   UNL     1     -41.254  53.726 -53.737  1.00  0.00     0.097 A 
HETATM   13  C   UNL     1     -40.685  52.529 -54.194  1.00  0.00     0.075 A 
HETATM   14  C   UNL     1     -39.948  51.724 -53.323  1.00  0.00     0.070 A 
HETATM   15  C   UNL     1     -39.780  52.124 -51.998  1.00  0.00     0.039 A 
HETATM   16  C   UNL     1     -40.337  53.317 -51.535  1.00  0.00     0.035 A 
BRANCH  12  17
HETATM   17  O   UNL     1     -41.980  54.597 -54.519  1.00  0.00    -0.354 OA
HETATM   18  C   UNL     1     -42.928  54.034 -55.416  1.00  0.00     0.210 C 
ENDBRANCH  12  17
BRANCH  14  19
HETATM   19  O   UNL     1     -39.335  50.543 -53.638  1.00  0.00    -0.356 OA
HETATM   20  C   UNL     1     -39.569  49.438 -52.774  1.00  0.00     0.210 C 
ENDBRANCH  14  19
ENDBRANCH   9  11
ENDBRANCH   7   9
ENDBRANCH   5   7
ENDBRANCH   2   5
BRANCH   1  21
HETATM   21  C   UNL     1     -43.188  57.986 -55.680  1.00  0.00     0.098 A 
HETATM   22  C   UNL     1     -43.345  57.632 -57.008  1.00  0.00     0.138 A 
HETATM   23  N   UNL     1     -44.017  56.630 -57.630  1.00  0.00    -0.370 N 
HETATM   24  N   UNL     1     -42.566  58.507 -57.721  1.00  0.00    -0.240 N 
HETATM   25  C   UNL     1     -43.951  56.444 -59.081  1.00  0.00     0.081 C 
HETATM   26  H   UNL     1     -44.425  55.857 -57.103  1.00  0.00     0.161 HD
HETATM   27  C   UNL     1     -44.093  54.958 -59.407  1.00  0.00     0.032 C 
HETATM   28  C   UNL     1     -42.627  56.996 -59.631  1.00  0.00     0.061 C 
HETATM   29  C   UNL     1     -42.374  58.438 -59.156  1.00  0.00     0.221 C 
HETATM   30  N   UNL     1     -41.846  59.345 -56.957  1.00  0.00    -0.181 NA
HETATM   31  C   UNL     1     -42.235  59.034 -55.716  1.00  0.00     0.160 A 
BRANCH  29  32
HETATM   32  C   UNL     1     -43.263  59.447 -59.845  1.00  0.00     0.409 C 
HETATM   33  F   UNL     1     -43.680  59.047 -61.066  1.00  0.00    -0.169 F 
HETATM   34  F   UNL     1     -44.358  59.758 -59.120  1.00  0.00    -0.169 F 
HETATM   35  F   UNL     1     -42.581  60.608 -60.030  1.00  0.00    -0.169 F 
ENDBRANCH  29  32
ENDBRANCH   1  21
TORSDOF 8
ENDMDL
MODEL 7
REMARK VINA RESULT:      -7.4      4.193      6.177
REMARK  8 active torsions:
REMARK  status: ('A' for Active; 'I' for Inactive)
REMARK    1  A    between atoms: C_8  and  C_9 
REMARK       I    between atoms: C_9  and  N_10 
REMARK    2  A    between atoms: N_10  and  N_11 
REMARK    3  A    between atoms: N_11  and  C_12 
REMARK    4  A    between atoms: C_12  and  N_13 
REMARK    5  A    between atoms: N_13  and  C_14 
REMARK    6  A    between atoms: C_15  and  O_16 
REMARK    7  A    between atoms: C_19  and  O_20 
REMARK    8  A    between atoms: C_26  and  C_27 
ROOT
HETATM    1  C   UNL     1     -41.418  58.884 -53.612  1.00  0.00     0.275 C 
HETATM    2  N   UNL     1     -42.242  59.221 -54.668  1.00  0.00    -0.263 N 
HETATM    3  O   UNL     1     -40.370  59.479 -53.370  1.00  0.00    -0.266 OA
HETATM    4  H   UNL     1     -42.950  58.574 -55.007  1.00  0.00     0.190 HD
ENDROOT
BRANCH   2   5
HETATM    5  N   UNL     1     -41.904  60.311 -55.478  1.00  0.00    -0.273 N 
HETATM    6  H   UNL     1     -41.028  60.771 -55.222  1.00  0.00     0.189 HD
BRANCH   5   7
HETATM    7  C   UNL     1     -42.286  60.377 -56.792  1.00  0.00     0.191 C 
HETATM    8  S   UNL     1     -43.321  61.536 -57.422  1.00  0.00    -0.039 SA
BRANCH   7   9
HETATM    9  N   UNL     1     -41.796  59.417 -57.630  1.00  0.00    -0.330 N 
HETATM   10  H   UNL     1     -40.805  59.506 -57.844  1.00  0.00     0.168 HD
BRANCH   9  11
HETATM   11  C   UNL     1     -42.389  58.255 -58.177  1.00  0.00     0.068 A 
HETATM   12  C   UNL     1     -42.637  58.253 -59.567  1.00  0.00     0.097 A 
HETATM   13  C   UNL     1     -43.180  57.117 -60.185  1.00  0.00     0.075 A 
HETATM   14  C   UNL     1     -43.470  55.978 -59.430  1.00  0.00     0.070 A 
HETATM   15  C   UNL     1     -43.210  55.980 -58.061  1.00  0.00     0.039 A 
HETATM   16  C   UNL     1     -42.664  57.104 -57.438  1.00  0.00     0.035 A 
BRANCH  12  17
HETATM   17  O   UNL     1     -42.298  59.415 -60.225  1.00  0.00    -0.354 OA
HETATM   18  C   UNL     1     -43.296  60.019 -61.038  1.00  0.00     0.210 C 
ENDBRANCH  12  17
BRANCH  14  19
HETATM   19  O   UNL     1     -43.991  54.806 -59.903  1.00  0.00    -0.356 OA
HETATM   20  C   UNL     1     -44.932  54.893 -60.965  1.00  0.00     0.210 C 
ENDBRANCH  14  19
ENDBRANCH   9  11
ENDBRANCH   7   9
ENDBRANCH   5   7
ENDBRANCH   2   5
BRANCH   1  21
HETATM   21  C   UNL     1     -41.890  57.768 -52.823  1.00  0.00     0.098 A 
HETATM   22  C   UNL     1     -41.540  56.433 -52.912  1.00  0.00     0.138 A 
HETATM   23  N   UNL     1     -40.737  55.736 -53.755  1.00  0.00    -0.370 N 
HETATM   24  N   UNL     1     -42.266  55.794 -51.939  1.00  0.00    -0.240 N 
HETATM   25  C   UNL     1     -40.601  54.282 -53.661  1.00  0.00     0.081 C 
HETATM   26  H   UNL     1     -40.360  56.162 -54.602  1.00  0.00     0.161 HD
HETATM   27  C   UNL     1     -40.335  53.708 -55.052  1.00  0.00     0.032 C 
HETATM   28  C   UNL     1     -41.870  53.664 -53.055  1.00  0.00     0.061 C 
HETATM   29  C   UNL     1     -42.263  54.357 -51.739  1.00  0.00     0.221 C 
HETATM   30  N   UNL     1     -43.125  56.591 -51.285  1.00  0.00    -0.181 NA
HETATM   31  C   UNL     1     -42.886  57.795 -51.816  1.00  0.00     0.160 A 
BRANCH  29  32
HETATM   32  C   UNL     1     -41.349  53.999 -50.590  1.00  0.00     0.409 C 
HETATM   33  F   UNL     1     -40.216  54.734 -50.558  1.00  0.00    -0.169 F 
HETATM   34  F   UNL     1     -41.950  54.119 -49.388  1.00  0.00    -0.169 F 
HETATM   35  F   UNL     1     -40.964  52.700 -50.699  1.00  0.00    -0.169 F 
ENDBRANCH  29  32
ENDBRANCH   1  21
TORSDOF 8
ENDMDL
MODEL 8
REMARK VINA RESULT:      -7.2      4.367      7.600
REMARK  8 active torsions:
REMARK  status: ('A' for Active; 'I' for Inactive)
REMARK    1  A    between atoms: C_8  and  C_9 
REMARK       I    between atoms: C_9  and  N_10 
REMARK    2  A    between atoms: N_10  and  N_11 
REMARK    3  A    between atoms: N_11  and  C_12 
REMARK    4  A    between atoms: C_12  and  N_13 
REMARK    5  A    between atoms: N_13  and  C_14 
REMARK    6  A    between atoms: C_15  and  O_16 
REMARK    7  A    between atoms: C_19  and  O_20 
REMARK    8  A    between atoms: C_26  and  C_27 
ROOT
HETATM    1  C   UNL     1     -45.332  58.202 -55.343  1.00  0.00     0.275 C 
HETATM    2  N   UNL     1     -45.226  57.044 -54.598  1.00  0.00    -0.263 N 
HETATM    3  O   UNL     1     -45.093  59.315 -54.879  1.00  0.00    -0.266 OA
HETATM    4  H   UNL     1     -45.668  56.181 -54.906  1.00  0.00     0.190 HD
ENDROOT
BRANCH   2   5
HETATM    5  N   UNL     1     -44.789  57.123 -53.271  1.00  0.00    -0.273 N 
HETATM    6  H   UNL     1     -45.541  57.165 -52.581  1.00  0.00     0.189 HD
BRANCH   5   7
HETATM    7  C   UNL     1     -43.601  56.569 -52.872  1.00  0.00     0.191 C 
HETATM    8  S   UNL     1     -42.179  57.430 -52.654  1.00  0.00    -0.039 SA
BRANCH   7   9
HETATM    9  N   UNL     1     -43.585  55.221 -52.656  1.00  0.00    -0.330 N 
HETATM   10  H   UNL     1     -44.506  54.791 -52.594  1.00  0.00     0.168 HD
BRANCH   9  11
HETATM   11  C   UNL     1     -42.522  54.289 -52.606  1.00  0.00     0.068 A 
HETATM   12  C   UNL     1     -42.116  53.711 -53.828  1.00  0.00     0.097 A 
HETATM   13  C   UNL     1     -41.038  52.813 -53.859  1.00  0.00     0.075 A 
HETATM   14  C   UNL     1     -40.355  52.495 -52.684  1.00  0.00     0.070 A 
HETATM   15  C   UNL     1     -40.751  53.080 -51.482  1.00  0.00     0.039 A 
HETATM   16  C   UNL     1     -41.818  53.979 -51.441  1.00  0.00     0.035 A 
BRANCH  12  17
HETATM   17  O   UNL     1     -42.839  54.104 -54.932  1.00  0.00    -0.354 OA
HETATM   18  C   UNL     1     -42.160  54.870 -55.918  1.00  0.00     0.210 C 
ENDBRANCH  12  17
BRANCH  14  19
HETATM   19  O   UNL     1     -39.288  51.647 -52.573  1.00  0.00    -0.356 OA
HETATM   20  C   UNL     1     -39.350  50.652 -51.560  1.00  0.00     0.210 C 
ENDBRANCH  14  19
ENDBRANCH   9  11
ENDBRANCH   7   9
ENDBRANCH   5   7
ENDBRANCH   2   5
BRANCH   1  21
HETATM   21  C   UNL     1     -45.754  57.994 -56.710  1.00  0.00     0.098 A 
HETATM   22  C   UNL     1     -44.995  57.624 -57.805  1.00  0.00     0.138 A 
HETATM   23  N   UNL     1     -43.668  57.404 -57.987  1.00  0.00    -0.370 N 
HETATM   24  N   UNL     1     -45.870  57.561 -58.860  1.00  0.00    -0.240 N 
HETATM   25  C   UNL     1     -43.113  57.085 -59.303  1.00  0.00     0.081 C 
HETATM   26  H   UNL     1     -42.987  57.648 -57.267  1.00  0.00     0.161 HD
HETATM   27  C   UNL     1     -41.690  57.632 -59.398  1.00  0.00     0.032 C 
HETATM   28  C   UNL     1     -43.996  57.676 -60.413  1.00  0.00     0.061 C 
HETATM   29  C   UNL     1     -45.473  57.287 -60.227  1.00  0.00     0.221 C 
HETATM   30  N   UNL     1     -47.120  57.948 -58.557  1.00  0.00    -0.181 NA
HETATM   31  C   UNL     1     -47.050  58.199 -57.245  1.00  0.00     0.160 A 
BRANCH  29  32
HETATM   32  C   UNL     1     -45.746  55.839 -60.563  1.00  0.00     0.409 C 
HETATM   33  F   UNL     1     -45.363  54.983 -59.591  1.00  0.00    -0.169 F 
HETATM   34  F   UNL     1     -47.048  55.602 -60.829  1.00  0.00    -0.169 F 
HETATM   35  F   UNL     1     -45.056  55.490 -61.680  1.00  0.00    -0.169 F 
ENDBRANCH  29  32
ENDBRANCH   1  21
TORSDOF 8
ENDMDL
MODEL 9
REMARK VINA RESULT:      -7.2      4.533      5.867
REMARK  8 active torsions:
REMARK  status: ('A' for Active; 'I' for Inactive)
REMARK    1  A    between atoms: C_8  and  C_9 
REMARK       I    between atoms: C_9  and  N_10 
REMARK    2  A    between atoms: N_10  and  N_11 
REMARK    3  A    between atoms: N_11  and  C_12 
REMARK    4  A    between atoms: C_12  and  N_13 
REMARK    5  A    between atoms: N_13  and  C_14 
REMARK    6  A    between atoms: C_15  and  O_16 
REMARK    7  A    between atoms: C_19  and  O_20 
REMARK    8  A    between atoms: C_26  and  C_27 
ROOT
HETATM    1  C   UNL     1     -42.447  54.729 -54.605  1.00  0.00     0.275 C 
HETATM    2  N   UNL     1     -43.465  55.517 -55.107  1.00  0.00    -0.263 N 
HETATM    3  O   UNL     1     -41.631  54.159 -55.327  1.00  0.00    -0.266 OA
HETATM    4  H   UNL     1     -44.269  55.761 -54.532  1.00  0.00     0.190 HD
ENDROOT
BRANCH   2   5
HETATM    5  N   UNL     1     -43.556  55.719 -56.488  1.00  0.00    -0.273 N 
HETATM    6  H   UNL     1     -44.098  55.008 -56.983  1.00  0.00     0.189 HD
BRANCH   5   7
HETATM    7  C   UNL     1     -43.520  56.975 -57.035  1.00  0.00     0.191 C 
HETATM    8  S   UNL     1     -44.761  58.096 -56.916  1.00  0.00    -0.039 SA
BRANCH   7   9
HETATM    9  N   UNL     1     -42.399  57.316 -57.735  1.00  0.00    -0.330 N 
HETATM   10  H   UNL     1     -41.627  56.658 -57.647  1.00  0.00     0.168 HD
BRANCH   9  11
HETATM   11  C   UNL     1     -42.144  58.365 -58.649  1.00  0.00     0.068 A 
HETATM   12  C   UNL     1     -42.285  58.071 -60.022  1.00  0.00     0.097 A 
HETATM   13  C   UNL     1     -42.092  59.075 -60.982  1.00  0.00     0.075 A 
HETATM   14  C   UNL     1     -41.770  60.374 -60.584  1.00  0.00     0.070 A 
HETATM   15  C   UNL     1     -41.646  60.663 -59.226  1.00  0.00     0.039 A 
HETATM   16  C   UNL     1     -41.842  59.672 -58.262  1.00  0.00     0.035 A 
BRANCH  12  17
HETATM   17  O   UNL     1     -42.624  56.767 -60.311  1.00  0.00    -0.354 OA
HETATM   18  C   UNL     1     -43.995  56.490 -60.562  1.00  0.00     0.210 C 
ENDBRANCH  12  17
BRANCH  14  19
HETATM   19  O   UNL     1     -41.565  61.446 -61.409  1.00  0.00    -0.356 OA
HETATM   20  C   UNL     1     -40.767  62.510 -60.906  1.00  0.00     0.210 C 
ENDBRANCH  14  19
ENDBRANCH   9  11
ENDBRANCH   7   9
ENDBRANCH   5   7
ENDBRANCH   2   5
BRANCH   1  21
HETATM   21  C   UNL     1     -42.429  54.626 -53.164  1.00  0.00     0.098 A 
HETATM   22  C   UNL     1     -41.523  53.968 -52.352  1.00  0.00     0.138 A 
HETATM   23  N   UNL     1     -40.442  53.187 -52.606  1.00  0.00    -0.370 N 
HETATM   24  N   UNL     1     -41.954  54.179 -51.067  1.00  0.00    -0.240 N 
HETATM   25  C   UNL     1     -39.687  52.545 -51.530  1.00  0.00     0.081 C 
HETATM   26  H   UNL     1     -40.238  52.855 -53.549  1.00  0.00     0.161 HD
HETATM   27  C   UNL     1     -39.107  51.225 -52.037  1.00  0.00     0.032 C 
HETATM   28  C   UNL     1     -40.590  52.307 -50.310  1.00  0.00     0.061 C 
HETATM   29  C   UNL     1     -41.332  53.590 -49.897  1.00  0.00     0.221 C 
HETATM   30  N   UNL     1     -43.117  54.845 -50.982  1.00  0.00    -0.181 NA
HETATM   31  C   UNL     1     -43.398  55.126 -52.259  1.00  0.00     0.160 A 
BRANCH  29  32
HETATM   32  C   UNL     1     -40.429  54.600 -49.229  1.00  0.00     0.409 C 
HETATM   33  F   UNL     1     -39.299  54.058 -48.725  1.00  0.00    -0.169 F 
HETATM   34  F   UNL     1     -40.069  55.605 -50.055  1.00  0.00    -0.169 F 
HETATM   35  F   UNL     1     -41.081  55.177 -48.185  1.00  0.00    -0.169 F 
ENDBRANCH  29  32
ENDBRANCH   1  21
TORSDOF 8
ENDMDL
MODEL 10
REMARK VINA RESULT:      -7.2      4.870      8.110
REMARK  8 active torsions:
REMARK  status: ('A' for Active; 'I' for Inactive)
REMARK    1  A    between atoms: C_8  and  C_9 
REMARK       I    between atoms: C_9  and  N_10 
REMARK    2  A    between atoms: N_10  and  N_11 
REMARK    3  A    between atoms: N_11  and  C_12 
REMARK    4  A    between atoms: C_12  and  N_13 
REMARK    5  A    between atoms: N_13  and  C_14 
REMARK    6  A    between atoms: C_15  and  O_16 
REMARK    7  A    between atoms: C_19  and  O_20 
REMARK    8  A    between atoms: C_26  and  C_27 
ROOT
HETATM    1  C   UNL     1     -42.311  56.786 -55.813  1.00  0.00     0.275 C 
HETATM    2  N   UNL     1     -41.766  57.446 -54.729  1.00  0.00    -0.263 N 
HETATM    3  O   UNL     1     -42.115  55.592 -56.032  1.00  0.00    -0.266 OA
HETATM    4  H   UNL     1     -41.720  58.462 -54.705  1.00  0.00     0.190 HD
ENDROOT
BRANCH   2   5
HETATM    5  N   UNL     1     -40.991  56.728 -53.811  1.00  0.00    -0.273 N 
HETATM    6  H   UNL     1     -39.987  56.747 -54.001  1.00  0.00     0.189 HD
BRANCH   5   7
HETATM    7  C   UNL     1     -41.380  56.576 -52.506  1.00  0.00     0.191 C 
HETATM    8  S   UNL     1     -41.599  57.842 -51.429  1.00  0.00    -0.039 SA
BRANCH   7   9
HETATM    9  N   UNL     1     -41.584  55.301 -52.063  1.00  0.00    -0.330 N 
HETATM   10  H   UNL     1     -42.360  55.197 -51.413  1.00  0.00     0.168 HD
BRANCH   9  11
HETATM   11  C   UNL     1     -40.979  54.073 -52.421  1.00  0.00     0.068 A 
HETATM   12  C   UNL     1     -40.176  53.444 -51.445  1.00  0.00     0.097 A 
HETATM   13  C   UNL     1     -39.582  52.202 -51.715  1.00  0.00     0.075 A 
HETATM   14  C   UNL     1     -39.791  51.577 -52.945  1.00  0.00     0.070 A 
HETATM   15  C   UNL     1     -40.596  52.196 -53.900  1.00  0.00     0.039 A 
HETATM   16  C   UNL     1     -41.196  53.429 -53.639  1.00  0.00     0.035 A 
BRANCH  12  17
HETATM   17  O   UNL     1     -40.048  54.131 -50.258  1.00  0.00    -0.354 OA
HETATM   18  C   UNL     1     -40.511  53.487 -49.078  1.00  0.00     0.210 C 
ENDBRANCH  12  17
BRANCH  14  19
HETATM   19  O   UNL     1     -39.283  50.368 -53.335  1.00  0.00    -0.356 OA
HETATM   20  C   UNL     1     -39.752  49.831 -54.565  1.00  0.00     0.210 C 
ENDBRANCH  14  19
ENDBRANCH   9  11
ENDBRANCH   7   9
ENDBRANCH   5   7
ENDBRANCH   2   5
BRANCH   1  21
HETATM   21  C   UNL     1     -43.125  57.619 -56.670  1.00  0.00     0.098 A 
HETATM   22  C   UNL     1     -43.920  57.249 -57.739  1.00  0.00     0.138 A 
HETATM   23  N   UNL     1     -44.151  56.065 -58.361  1.00  0.00    -0.370 N 
HETATM   24  N   UNL     1     -44.479  58.411 -58.206  1.00  0.00    -0.240 N 
HETATM   25  C   UNL     1     -45.007  55.971 -59.544  1.00  0.00     0.081 C 
HETATM   26  H   UNL     1     -43.587  55.240 -58.156  1.00  0.00     0.161 HD
HETATM   27  C   UNL     1     -44.511  54.835 -60.438  1.00  0.00     0.032 C 
HETATM   28  C   UNL     1     -45.008  57.303 -60.311  1.00  0.00     0.061 C 
HETATM   29  C   UNL     1     -45.323  58.489 -59.383  1.00  0.00     0.221 C 
HETATM   30  N   UNL     1     -44.041  59.518 -57.584  1.00  0.00    -0.181 NA
HETATM   31  C   UNL     1     -43.226  59.032 -56.641  1.00  0.00     0.160 A 
BRANCH  29  32
HETATM   32  C   UNL     1     -46.776  58.543 -58.972  1.00  0.00     0.409 C 
HETATM   33  F   UNL     1     -47.048  57.815 -57.867  1.00  0.00    -0.169 F 
HETATM   34  F   UNL     1     -47.209  59.803 -58.750  1.00  0.00    -0.169 F 
HETATM   35  F   UNL     1     -47.553  58.040 -59.967  1.00  0.00    -0.169 F 
ENDBRANCH  29  32
ENDBRANCH   1  21
TORSDOF 8
ENDMDL
