MODEL 1
REMARK VINA RESULT:      -8.2      0.000      0.000
REMARK  6 active torsions:
REMARK  status: ('A' for Active; 'I' for Inactive)
REMARK    1  A    between atoms: C_2  and  C_3 
REMARK    2  A    between atoms: C_3  and  C_4 
REMARK       I    between atoms: C_4  and  N_5 
REMARK    3  A    between atoms: N_5  and  C_6 
REMARK    4  A    between atoms: C_8  and  C_9 
REMARK    5  A    between atoms: C_9  and  N_10 
REMARK       I    between atoms: N_10  and  C_11 
REMARK    6  A    between atoms: C_11  and  C_12 
ROOT
HETATM    1  C   UNL     1     -41.057  56.262 -49.797  1.00  0.00     0.161 C 
ENDROOT
BRANCH   1   2
HETATM    2  C   UNL     1     -41.158  57.299 -50.883  1.00  0.00    -0.038 A 
HETATM    3  C   UNL     1     -41.317  56.910 -52.223  1.00  0.00     0.038 A 
HETATM    4  C   UNL     1     -41.522  57.861 -53.227  1.00  0.00     0.035 A 
HETATM    5  C   UNL     1     -41.548  59.217 -52.883  1.00  0.00     0.029 A 
HETATM    6  C   UNL     1     -41.345  59.617 -51.561  1.00  0.00     0.003 A 
HETATM    7  C   UNL     1     -41.151  58.663 -50.564  1.00  0.00     0.009 A 
BRANCH   4   8
HETATM    8  N   UNL     1     -41.776  57.524 -54.573  1.00  0.00    -0.327 N 
HETATM    9  C   UNL     1     -42.965  57.046 -55.094  1.00  0.00     0.226 C 
HETATM   10  O   UNL     1     -43.932  56.703 -54.416  1.00  0.00    -0.273 OA
HETATM   11  H   UNL     1     -40.968  57.524 -55.176  1.00  0.00     0.169 HD
BRANCH   9  12
HETATM   12  C   UNL     1     -43.059  57.070 -56.634  1.00  0.00     0.074 C 
HETATM   13  C   UNL     1     -44.297  57.864 -57.070  1.00  0.00     0.020 C 
BRANCH  12  14
HETATM   14  C   UNL     1     -42.989  55.717 -57.362  1.00  0.00     0.009 C 
HETATM   15  C   UNL     1     -43.078  55.798 -58.878  1.00  0.00     0.006 C 
ENDBRANCH  12  14
ENDBRANCH   9  12
ENDBRANCH   4   8
ENDBRANCH   1   2
BRANCH   1  16
HETATM   16  N   UNL     1     -40.500  55.023 -50.263  1.00  0.00    -0.351 N 
HETATM   17  C   UNL     1     -40.806  53.844 -49.614  1.00  0.00     0.273 C 
HETATM   18  O   UNL     1     -41.352  53.811 -48.514  1.00  0.00    -0.266 OA
HETATM   19  H   UNL     1     -40.206  54.923 -51.231  1.00  0.00     0.163 HD
BRANCH  17  20
HETATM   20  C   UNL     1     -40.453  52.635 -50.374  1.00  0.00     0.157 A 
HETATM   21  N   UNL     1     -40.194  51.458 -49.761  1.00  0.00    -0.168 NA
HETATM   22  N   UNL     1     -39.898  50.628 -50.777  1.00  0.00    -0.277 N 
HETATM   23  H   UNL     1     -39.664  49.666 -50.557  1.00  0.00     0.189 HD
HETATM   24  C   UNL     1     -39.940  51.206 -52.015  1.00  0.00     0.063 A 
HETATM   25  C   UNL     1     -40.306  52.527 -51.789  1.00  0.00     0.029 A 
HETATM   26  C   UNL     1     -39.691  50.692 -53.291  1.00  0.00     0.032 A 
HETATM   27  C   UNL     1     -40.432  53.394 -52.891  1.00  0.00     0.023 A 
HETATM   28  C   UNL     1     -40.185  52.911 -54.188  1.00  0.00    -0.061 A 
HETATM   29  C   UNL     1     -39.820  51.572 -54.373  1.00  0.00     0.009 A 
HETATM   30  C   UNL     1     -40.315  53.846 -55.356  1.00  0.00     0.048 C 
ENDBRANCH  17  20
ENDBRANCH   1  16
TORSDOF 6
ENDMDL
MODEL 2
REMARK VINA RESULT:      -8.1      2.271      3.576
REMARK  6 active torsions:
REMARK  status: ('A' for Active; 'I' for Inactive)
REMARK    1  A    between atoms: C_2  and  C_3 
REMARK    2  A    between atoms: C_3  and  C_4 
REMARK       I    between atoms: C_4  and  N_5 
REMARK    3  A    between atoms: N_5  and  C_6 
REMARK    4  A    between atoms: C_8  and  C_9 
REMARK    5  A    between atoms: C_9  and  N_10 
REMARK       I    between atoms: N_10  and  C_11 
REMARK    6  A    between atoms: C_11  and  C_12 
ROOT
HETATM    1  C   UNL     1     -41.384  57.614 -53.664  1.00  0.00     0.161 C 
ENDROOT
BRANCH   1   2
HETATM    2  C   UNL     1     -42.719  57.887 -54.302  1.00  0.00    -0.038 A 
HETATM    3  C   UNL     1     -42.984  57.449 -55.610  1.00  0.00     0.038 A 
HETATM    4  C   UNL     1     -44.254  57.598 -56.174  1.00  0.00     0.035 A 
HETATM    5  C   UNL     1     -45.263  58.212 -55.423  1.00  0.00     0.029 A 
HETATM    6  C   UNL     1     -44.998  58.694 -54.139  1.00  0.00     0.003 A 
HETATM    7  C   UNL     1     -43.732  58.531 -53.580  1.00  0.00     0.009 A 
BRANCH   4   8
HETATM    8  N   UNL     1     -44.601  57.098 -57.447  1.00  0.00    -0.327 N 
HETATM    9  C   UNL     1     -44.344  57.696 -58.667  1.00  0.00     0.226 C 
HETATM   10  O   UNL     1     -43.905  58.837 -58.802  1.00  0.00    -0.273 OA
HETATM   11  H   UNL     1     -45.197  56.284 -57.440  1.00  0.00     0.169 HD
BRANCH   9  12
HETATM   12  C   UNL     1     -44.542  56.784 -59.895  1.00  0.00     0.074 C 
HETATM   13  C   UNL     1     -46.039  56.594 -60.169  1.00  0.00     0.020 C 
BRANCH  12  14
HETATM   14  C   UNL     1     -43.808  55.432 -59.890  1.00  0.00     0.009 C 
HETATM   15  C   UNL     1     -44.710  54.212 -59.791  1.00  0.00     0.006 C 
ENDBRANCH  12  14
ENDBRANCH   9  12
ENDBRANCH   4   8
ENDBRANCH   1   2
BRANCH   1  16
HETATM   16  N   UNL     1     -41.396  56.441 -52.834  1.00  0.00    -0.351 N 
HETATM   17  C   UNL     1     -40.880  55.254 -53.313  1.00  0.00     0.273 C 
HETATM   18  O   UNL     1     -40.610  55.075 -54.498  1.00  0.00    -0.266 OA
HETATM   19  H   UNL     1     -41.421  56.528 -51.822  1.00  0.00     0.163 HD
BRANCH  17  20
HETATM   20  C   UNL     1     -40.649  54.240 -52.272  1.00  0.00     0.157 A 
HETATM   21  N   UNL     1     -40.713  54.542 -50.957  1.00  0.00    -0.168 NA
HETATM   22  N   UNL     1     -40.427  53.377 -50.348  1.00  0.00    -0.277 N 
HETATM   23  H   UNL     1     -40.415  53.356 -49.334  1.00  0.00     0.189 HD
HETATM   24  C   UNL     1     -40.170  52.338 -51.199  1.00  0.00     0.063 A 
HETATM   25  C   UNL     1     -40.310  52.869 -52.475  1.00  0.00     0.029 A 
HETATM   26  C   UNL     1     -39.830  51.004 -50.962  1.00  0.00     0.032 A 
HETATM   27  C   UNL     1     -40.101  52.029 -53.586  1.00  0.00     0.023 A 
HETATM   28  C   UNL     1     -39.754  50.682 -53.384  1.00  0.00    -0.061 A 
HETATM   29  C   UNL     1     -39.624  50.187 -52.081  1.00  0.00     0.009 A 
HETATM   30  C   UNL     1     -39.525  49.797 -54.575  1.00  0.00     0.048 C 
ENDBRANCH  17  20
ENDBRANCH   1  16
TORSDOF 6
ENDMDL
MODEL 3
REMARK VINA RESULT:      -8.0      1.914      2.833
REMARK  6 active torsions:
REMARK  status: ('A' for Active; 'I' for Inactive)
REMARK    1  A    between atoms: C_2  and  C_3 
REMARK    2  A    between atoms: C_3  and  C_4 
REMARK       I    between atoms: C_4  and  N_5 
REMARK    3  A    between atoms: N_5  and  C_6 
REMARK    4  A    between atoms: C_8  and  C_9 
REMARK    5  A    between atoms: C_9  and  N_10 
REMARK       I    between atoms: N_10  and  C_11 
REMARK    6  A    between atoms: C_11  and  C_12 
ROOT
HETATM    1  C   UNL     1     -43.264  57.995 -51.933  1.00  0.00     0.161 C 
ENDROOT
BRANCH   1   2
HETATM    2  C   UNL     1     -42.771  58.346 -53.310  1.00  0.00    -0.038 A 
HETATM    3  C   UNL     1     -42.728  57.370 -54.319  1.00  0.00     0.038 A 
HETATM    4  C   UNL     1     -42.377  57.707 -55.630  1.00  0.00     0.035 A 
HETATM    5  C   UNL     1     -42.047  59.034 -55.924  1.00  0.00     0.029 A 
HETATM    6  C   UNL     1     -42.040  60.003 -54.919  1.00  0.00     0.003 A 
HETATM    7  C   UNL     1     -42.401  59.662 -53.617  1.00  0.00     0.009 A 
BRANCH   4   8
HETATM    8  N   UNL     1     -42.404  56.788 -56.700  1.00  0.00    -0.327 N 
HETATM    9  C   UNL     1     -43.368  56.700 -57.688  1.00  0.00     0.226 C 
HETATM   10  O   UNL     1     -44.428  57.324 -57.682  1.00  0.00    -0.273 OA
HETATM   11  H   UNL     1     -41.711  56.057 -56.656  1.00  0.00     0.169 HD
BRANCH   9  12
HETATM   12  C   UNL     1     -42.981  55.828 -58.900  1.00  0.00     0.074 C 
HETATM   13  C   UNL     1     -42.346  56.700 -59.991  1.00  0.00     0.020 C 
BRANCH  12  14
HETATM   14  C   UNL     1     -44.075  54.921 -59.489  1.00  0.00     0.009 C 
HETATM   15  C   UNL     1     -44.731  55.445 -60.757  1.00  0.00     0.006 C 
ENDBRANCH  12  14
ENDBRANCH   9  12
ENDBRANCH   4   8
ENDBRANCH   1   2
BRANCH   1  16
HETATM   16  N   UNL     1     -42.448  57.005 -51.287  1.00  0.00    -0.351 N 
HETATM   17  C   UNL     1     -43.034  55.886 -50.731  1.00  0.00     0.273 C 
HETATM   18  O   UNL     1     -44.245  55.786 -50.554  1.00  0.00    -0.266 OA
HETATM   19  H   UNL     1     -41.468  56.905 -51.535  1.00  0.00     0.163 HD
BRANCH  17  20
HETATM   20  C   UNL     1     -42.082  54.812 -50.406  1.00  0.00     0.157 A 
HETATM   21  N   UNL     1     -41.717  54.544 -49.133  1.00  0.00    -0.168 NA
HETATM   22  N   UNL     1     -40.839  53.535 -49.258  1.00  0.00    -0.277 N 
HETATM   23  H   UNL     1     -40.420  53.156 -48.416  1.00  0.00     0.189 HD
HETATM   24  C   UNL     1     -40.606  53.139 -50.546  1.00  0.00     0.063 A 
HETATM   25  C   UNL     1     -41.410  53.957 -51.330  1.00  0.00     0.029 A 
HETATM   26  C   UNL     1     -39.771  52.154 -51.081  1.00  0.00     0.032 A 
HETATM   27  C   UNL     1     -41.388  53.792 -52.728  1.00  0.00     0.023 A 
HETATM   28  C   UNL     1     -40.557  52.813 -53.300  1.00  0.00    -0.061 A 
HETATM   29  C   UNL     1     -39.762  52.009 -52.474  1.00  0.00     0.009 A 
HETATM   30  C   UNL     1     -40.534  52.649 -54.792  1.00  0.00     0.048 C 
ENDBRANCH  17  20
ENDBRANCH   1  16
TORSDOF 6
ENDMDL
MODEL 4
REMARK VINA RESULT:      -8.0      2.194      7.245
REMARK  6 active torsions:
REMARK  status: ('A' for Active; 'I' for Inactive)
REMARK    1  A    between atoms: C_2  and  C_3 
REMARK    2  A    between atoms: C_3  and  C_4 
REMARK       I    between atoms: C_4  and  N_5 
REMARK    3  A    between atoms: N_5  and  C_6 
REMARK    4  A    between atoms: C_8  and  C_9 
REMARK    5  A    between atoms: C_9  and  N_10 
REMARK       I    between atoms: N_10  and  C_11 
REMARK    6  A    between atoms: C_11  and  C_12 
ROOT
HETATM    1  C   UNL     1     -42.119  58.165 -52.783  1.00  0.00     0.161 C 
ENDROOT
BRANCH   1   2
HETATM    2  C   UNL     1     -42.493  56.810 -52.246  1.00  0.00    -0.038 A 
HETATM    3  C   UNL     1     -41.730  55.679 -52.577  1.00  0.00     0.038 A 
HETATM    4  C   UNL     1     -42.000  54.435 -51.998  1.00  0.00     0.035 A 
HETATM    5  C   UNL     1     -43.061  54.325 -51.092  1.00  0.00     0.029 A 
HETATM    6  C   UNL     1     -43.856  55.432 -50.791  1.00  0.00     0.003 A 
HETATM    7  C   UNL     1     -43.573  56.671 -51.365  1.00  0.00     0.009 A 
BRANCH   4   8
HETATM    8  N   UNL     1     -41.212  53.287 -52.225  1.00  0.00    -0.327 N 
HETATM    9  C   UNL     1     -40.863  52.755 -53.453  1.00  0.00     0.226 C 
HETATM   10  O   UNL     1     -41.325  53.131 -54.529  1.00  0.00    -0.273 OA
HETATM   11  H   UNL     1     -40.991  52.749 -51.402  1.00  0.00     0.169 HD
BRANCH   9  12
HETATM   12  C   UNL     1     -39.740  51.699 -53.410  1.00  0.00     0.074 C 
HETATM   13  C   UNL     1     -40.133  50.484 -54.259  1.00  0.00     0.020 C 
BRANCH  12  14
HETATM   14  C   UNL     1     -39.241  51.262 -52.022  1.00  0.00     0.009 C 
HETATM   15  C   UNL     1     -39.628  49.848 -51.617  1.00  0.00     0.006 C 
ENDBRANCH  12  14
ENDBRANCH   9  12
ENDBRANCH   4   8
ENDBRANCH   1   2
BRANCH   1  16
HETATM   16  N   UNL     1     -41.877  58.152 -54.199  1.00  0.00    -0.351 N 
HETATM   17  C   UNL     1     -42.886  58.506 -55.072  1.00  0.00     0.273 C 
HETATM   18  O   UNL     1     -44.060  58.618 -54.725  1.00  0.00    -0.266 OA
HETATM   19  H   UNL     1     -40.933  58.255 -54.561  1.00  0.00     0.163 HD
BRANCH  17  20
HETATM   20  C   UNL     1     -42.424  58.772 -56.443  1.00  0.00     0.157 A 
HETATM   21  N   UNL     1     -41.762  59.906 -56.764  1.00  0.00    -0.168 NA
HETATM   22  N   UNL     1     -41.539  59.781 -58.084  1.00  0.00    -0.277 N 
HETATM   23  H   UNL     1     -41.045  60.528 -58.560  1.00  0.00     0.189 HD
HETATM   24  C   UNL     1     -42.031  58.633 -58.639  1.00  0.00     0.063 A 
HETATM   25  C   UNL     1     -42.618  57.941 -57.587  1.00  0.00     0.029 A 
HETATM   26  C   UNL     1     -42.013  58.151 -59.951  1.00  0.00     0.032 A 
HETATM   27  C   UNL     1     -43.226  56.698 -57.846  1.00  0.00     0.023 A 
HETATM   28  C   UNL     1     -43.230  56.186 -59.155  1.00  0.00    -0.061 A 
HETATM   29  C   UNL     1     -42.626  56.913 -60.188  1.00  0.00     0.009 A 
HETATM   30  C   UNL     1     -43.887  54.862 -59.423  1.00  0.00     0.048 C 
ENDBRANCH  17  20
ENDBRANCH   1  16
TORSDOF 6
ENDMDL
MODEL 5
REMARK VINA RESULT:      -7.8      2.539      7.178
REMARK  6 active torsions:
REMARK  status: ('A' for Active; 'I' for Inactive)
REMARK    1  A    between atoms: C_2  and  C_3 
REMARK    2  A    between atoms: C_3  and  C_4 
REMARK       I    between atoms: C_4  and  N_5 
REMARK    3  A    between atoms: N_5  and  C_6 
REMARK    4  A    between atoms: C_8  and  C_9 
REMARK    5  A    between atoms: C_9  and  N_10 
REMARK       I    between atoms: N_10  and  C_11 
REMARK    6  A    between atoms: C_11  and  C_12 
ROOT
HETATM    1  C   UNL     1     -43.401  59.002 -53.224  1.00  0.00     0.161 C 
ENDROOT
BRANCH   1   2
HETATM    2  C   UNL     1     -42.605  58.085 -52.336  1.00  0.00    -0.038 A 
HETATM    3  C   UNL     1     -42.545  56.709 -52.607  1.00  0.00     0.038 A 
HETATM    4  C   UNL     1     -41.722  55.864 -51.856  1.00  0.00     0.035 A 
HETATM    5  C   UNL     1     -40.967  56.405 -50.810  1.00  0.00     0.029 A 
HETATM    6  C   UNL     1     -41.055  57.764 -50.501  1.00  0.00     0.003 A 
HETATM    7  C   UNL     1     -41.870  58.601 -51.261  1.00  0.00     0.009 A 
BRANCH   4   8
HETATM    8  N   UNL     1     -41.554  54.492 -52.141  1.00  0.00    -0.327 N 
HETATM    9  C   UNL     1     -40.809  53.948 -53.172  1.00  0.00     0.226 C 
HETATM   10  O   UNL     1     -40.306  54.602 -54.085  1.00  0.00    -0.273 OA
HETATM   11  H   UNL     1     -42.135  53.868 -51.604  1.00  0.00     0.169 HD
BRANCH   9  12
HETATM   12  C   UNL     1     -40.539  52.434 -53.053  1.00  0.00     0.074 C 
HETATM   13  C   UNL     1     -39.657  52.155 -51.830  1.00  0.00     0.020 C 
BRANCH  12  14
HETATM   14  C   UNL     1     -39.991  51.720 -54.300  1.00  0.00     0.009 C 
HETATM   15  C   UNL     1     -40.184  50.211 -54.313  1.00  0.00     0.006 C 
ENDBRANCH  12  14
ENDBRANCH   9  12
ENDBRANCH   4   8
ENDBRANCH   1   2
BRANCH   1  16
HETATM   16  N   UNL     1     -43.411  58.574 -54.596  1.00  0.00    -0.351 N 
HETATM   17  C   UNL     1     -42.390  58.956 -55.443  1.00  0.00     0.273 C 
HETATM   18  O   UNL     1     -41.580  59.834 -55.157  1.00  0.00    -0.266 OA
HETATM   19  H   UNL     1     -43.909  57.731 -54.867  1.00  0.00     0.163 HD
BRANCH  17  20
HETATM   20  C   UNL     1     -42.340  58.193 -56.700  1.00  0.00     0.157 A 
HETATM   21  N   UNL     1     -42.372  56.843 -56.715  1.00  0.00    -0.168 NA
HETATM   22  N   UNL     1     -42.285  56.537 -58.022  1.00  0.00    -0.277 N 
HETATM   23  H   UNL     1     -42.291  55.558 -58.287  1.00  0.00     0.189 HD
HETATM   24  C   UNL     1     -42.189  57.617 -58.855  1.00  0.00     0.063 A 
HETATM   25  C   UNL     1     -42.225  58.726 -58.019  1.00  0.00     0.029 A 
HETATM   26  C   UNL     1     -42.073  57.714 -60.244  1.00  0.00     0.032 A 
HETATM   27  C   UNL     1     -42.140  60.010 -58.591  1.00  0.00     0.023 A 
HETATM   28  C   UNL     1     -42.018  60.144 -59.984  1.00  0.00    -0.061 A 
HETATM   29  C   UNL     1     -41.987  59.000 -60.792  1.00  0.00     0.009 A 
HETATM   30  C   UNL     1     -41.920  61.517 -60.584  1.00  0.00     0.048 C 
ENDBRANCH  17  20
ENDBRANCH   1  16
TORSDOF 6
ENDMDL
MODEL 6
REMARK VINA RESULT:      -7.8      2.754      5.922
REMARK  6 active torsions:
REMARK  status: ('A' for Active; 'I' for Inactive)
REMARK    1  A    between atoms: C_2  and  C_3 
REMARK    2  A    between atoms: C_3  and  C_4 
REMARK       I    between atoms: C_4  and  N_5 
REMARK    3  A    between atoms: N_5  and  C_6 
REMARK    4  A    between atoms: C_8  and  C_9 
REMARK    5  A    between atoms: C_9  and  N_10 
REMARK       I    between atoms: N_10  and  C_11 
REMARK    6  A    between atoms: C_11  and  C_12 
ROOT
HETATM    1  C   UNL     1     -43.006  53.930 -51.825  1.00  0.00     0.161 C 
ENDROOT
BRANCH   1   2
HETATM    2  C   UNL     1     -42.135  53.934 -53.051  1.00  0.00    -0.038 A 
HETATM    3  C   UNL     1     -42.418  54.799 -54.121  1.00  0.00     0.038 A 
HETATM    4  C   UNL     1     -41.555  54.892 -55.217  1.00  0.00     0.035 A 
HETATM    5  C   UNL     1     -40.407  54.093 -55.247  1.00  0.00     0.029 A 
HETATM    6  C   UNL     1     -40.140  53.195 -54.211  1.00  0.00     0.003 A 
HETATM    7  C   UNL     1     -40.999  53.116 -53.117  1.00  0.00     0.009 A 
BRANCH   4   8
HETATM    8  N   UNL     1     -41.743  55.806 -56.275  1.00  0.00    -0.327 N 
HETATM    9  C   UNL     1     -42.732  55.759 -57.241  1.00  0.00     0.226 C 
HETATM   10  O   UNL     1     -43.504  54.815 -57.399  1.00  0.00    -0.273 OA
HETATM   11  H   UNL     1     -41.005  56.484 -56.392  1.00  0.00     0.169 HD
BRANCH   9  12
HETATM   12  C   UNL     1     -42.893  57.049 -58.071  1.00  0.00     0.074 C 
HETATM   13  C   UNL     1     -44.253  57.694 -57.775  1.00  0.00     0.020 C 
BRANCH  12  14
HETATM   14  C   UNL     1     -42.653  56.943 -59.587  1.00  0.00     0.009 C 
HETATM   15  C   UNL     1     -43.853  56.474 -60.396  1.00  0.00     0.006 C 
ENDBRANCH  12  14
ENDBRANCH   9  12
ENDBRANCH   4   8
ENDBRANCH   1   2
BRANCH   1  16
HETATM   16  N   UNL     1     -43.854  55.087 -51.743  1.00  0.00    -0.351 N 
HETATM   17  C   UNL     1     -43.408  56.222 -51.098  1.00  0.00     0.273 C 
HETATM   18  O   UNL     1     -42.408  56.234 -50.385  1.00  0.00    -0.266 OA
HETATM   19  H   UNL     1     -44.586  55.236 -52.431  1.00  0.00     0.163 HD
BRANCH  17  20
HETATM   20  C   UNL     1     -44.217  57.421 -51.371  1.00  0.00     0.157 A 
HETATM   21  N   UNL     1     -45.300  57.734 -50.626  1.00  0.00    -0.168 NA
HETATM   22  N   UNL     1     -45.763  58.860 -51.196  1.00  0.00    -0.277 N 
HETATM   23  H   UNL     1     -46.590  59.293 -50.800  1.00  0.00     0.189 HD
HETATM   24  C   UNL     1     -45.044  59.290 -52.276  1.00  0.00     0.063 A 
HETATM   25  C   UNL     1     -44.015  58.367 -52.419  1.00  0.00     0.029 A 
HETATM   26  C   UNL     1     -45.207  60.387 -53.127  1.00  0.00     0.032 A 
HETATM   27  C   UNL     1     -43.091  58.538 -53.468  1.00  0.00     0.023 A 
HETATM   28  C   UNL     1     -43.228  59.629 -54.344  1.00  0.00    -0.061 A 
HETATM   29  C   UNL     1     -44.279  60.536 -54.165  1.00  0.00     0.009 A 
HETATM   30  C   UNL     1     -42.242  59.799 -55.464  1.00  0.00     0.048 C 
ENDBRANCH  17  20
ENDBRANCH   1  16
TORSDOF 6
ENDMDL
MODEL 7
REMARK VINA RESULT:      -7.8      3.833      6.015
REMARK  6 active torsions:
REMARK  status: ('A' for Active; 'I' for Inactive)
REMARK    1  A    between atoms: C_2  and  C_3 
REMARK    2  A    between atoms: C_3  and  C_4 
REMARK       I    between atoms: C_4  and  N_5 
REMARK    3  A    between atoms: N_5  and  C_6 
REMARK    4  A    between atoms: C_8  and  C_9 
REMARK    5  A    between atoms: C_9  and  N_10 
REMARK       I    between atoms: N_10  and  C_11 
REMARK    6  A    between atoms: C_11  and  C_12 
ROOT
HETATM    1  C   UNL     1     -42.511  55.778 -57.522  1.00  0.00     0.161 C 
ENDROOT
BRANCH   1   2
HETATM    2  C   UNL     1     -43.087  57.130 -57.841  1.00  0.00    -0.038 A 
HETATM    3  C   UNL     1     -42.239  58.226 -58.071  1.00  0.00     0.038 A 
HETATM    4  C   UNL     1     -42.755  59.461 -58.476  1.00  0.00     0.035 A 
HETATM    5  C   UNL     1     -44.138  59.600 -58.632  1.00  0.00     0.029 A 
HETATM    6  C   UNL     1     -44.994  58.531 -58.361  1.00  0.00     0.003 A 
HETATM    7  C   UNL     1     -44.471  57.301 -57.968  1.00  0.00     0.009 A 
BRANCH   4   8
HETATM    8  N   UNL     1     -41.945  60.568 -58.806  1.00  0.00    -0.327 N 
HETATM    9  C   UNL     1     -41.547  60.950 -60.075  1.00  0.00     0.226 C 
HETATM   10  O   UNL     1     -41.724  60.278 -61.090  1.00  0.00    -0.273 OA
HETATM   11  H   UNL     1     -41.529  61.045 -58.022  1.00  0.00     0.169 HD
BRANCH   9  12
HETATM   12  C   UNL     1     -40.944  62.366 -60.170  1.00  0.00     0.074 C 
HETATM   13  C   UNL     1     -40.420  62.617 -61.590  1.00  0.00     0.020 C 
BRANCH  12  14
HETATM   14  C   UNL     1     -39.889  62.751 -59.119  1.00  0.00     0.009 C 
HETATM   15  C   UNL     1     -38.831  63.733 -59.600  1.00  0.00     0.006 C 
ENDBRANCH  12  14
ENDBRANCH   9  12
ENDBRANCH   4   8
ENDBRANCH   1   2
BRANCH   1  16
HETATM   16  N   UNL     1     -42.114  55.654 -56.147  1.00  0.00    -0.351 N 
HETATM   17  C   UNL     1     -42.600  54.614 -55.381  1.00  0.00     0.273 C 
HETATM   18  O   UNL     1     -43.538  53.905 -55.738  1.00  0.00    -0.266 OA
HETATM   19  H   UNL     1     -41.238  56.058 -55.827  1.00  0.00     0.163 HD
BRANCH  17  20
HETATM   20  C   UNL     1     -41.873  54.410 -54.119  1.00  0.00     0.157 A 
HETATM   21  N   UNL     1     -41.859  55.346 -53.145  1.00  0.00    -0.168 NA
HETATM   22  N   UNL     1     -41.085  54.801 -52.189  1.00  0.00    -0.277 N 
HETATM   23  H   UNL     1     -40.926  55.332 -51.340  1.00  0.00     0.189 HD
HETATM   24  C   UNL     1     -40.587  53.566 -52.496  1.00  0.00     0.063 A 
HETATM   25  C   UNL     1     -41.088  53.274 -53.759  1.00  0.00     0.029 A 
HETATM   26  C   UNL     1     -39.754  52.696 -51.788  1.00  0.00     0.032 A 
HETATM   27  C   UNL     1     -40.742  52.048 -54.359  1.00  0.00     0.023 A 
HETATM   28  C   UNL     1     -39.902  51.152 -53.677  1.00  0.00    -0.061 A 
HETATM   29  C   UNL     1     -39.420  51.484 -52.404  1.00  0.00     0.009 A 
HETATM   30  C   UNL     1     -39.533  49.850 -54.328  1.00  0.00     0.048 C 
ENDBRANCH  17  20
ENDBRANCH   1  16
TORSDOF 6
ENDMDL
MODEL 8
REMARK VINA RESULT:      -7.6      2.233      2.742
REMARK  6 active torsions:
REMARK  status: ('A' for Active; 'I' for Inactive)
REMARK    1  A    between atoms: C_2  and  C_3 
REMARK    2  A    between atoms: C_3  and  C_4 
REMARK       I    between atoms: C_4  and  N_5 
REMARK    3  A    between atoms: N_5  and  C_6 
REMARK    4  A    between atoms: C_8  and  C_9 
REMARK    5  A    between atoms: C_9  and  N_10 
REMARK       I    between atoms: N_10  and  C_11 
REMARK    6  A    between atoms: C_11  and  C_12 
ROOT
HETATM    1  C   UNL     1     -44.340  57.070 -50.765  1.00  0.00     0.161 C 
ENDROOT
BRANCH   1   2
HETATM    2  C   UNL     1     -44.609  57.893 -51.996  1.00  0.00    -0.038 A 
HETATM    3  C   UNL     1     -44.401  57.348 -53.274  1.00  0.00     0.038 A 
HETATM    4  C   UNL     1     -44.751  58.062 -54.424  1.00  0.00     0.035 A 
HETATM    5  C   UNL     1     -45.298  59.342 -54.289  1.00  0.00     0.029 A 
HETATM    6  C   UNL     1     -45.465  59.912 -53.025  1.00  0.00     0.003 A 
HETATM    7  C   UNL     1     -45.124  59.191 -51.883  1.00  0.00     0.009 A 
BRANCH   4   8
HETATM    8  N   UNL     1     -44.648  57.530 -55.727  1.00  0.00    -0.327 N 
HETATM    9  C   UNL     1     -43.604  57.719 -56.615  1.00  0.00     0.226 C 
HETATM   10  O   UNL     1     -42.680  58.512 -56.442  1.00  0.00    -0.273 OA
HETATM   11  H   UNL     1     -45.476  57.069 -56.070  1.00  0.00     0.169 HD
BRANCH   9  12
HETATM   12  C   UNL     1     -43.602  56.768 -57.830  1.00  0.00     0.074 C 
HETATM   13  C   UNL     1     -42.985  55.420 -57.437  1.00  0.00     0.020 C 
BRANCH  12  14
HETATM   14  C   UNL     1     -42.981  57.298 -59.134  1.00  0.00     0.009 C 
HETATM   15  C   UNL     1     -42.299  56.245 -59.995  1.00  0.00     0.006 C 
ENDBRANCH  12  14
ENDBRANCH   9  12
ENDBRANCH   4   8
ENDBRANCH   1   2
BRANCH   1  16
HETATM   16  N   UNL     1     -43.448  55.973 -51.017  1.00  0.00    -0.351 N 
HETATM   17  C   UNL     1     -42.153  56.016 -50.540  1.00  0.00     0.273 C 
HETATM   18  O   UNL     1     -41.638  57.041 -50.101  1.00  0.00    -0.266 OA
HETATM   19  H   UNL     1     -43.815  55.042 -51.195  1.00  0.00     0.163 HD
BRANCH  17  20
HETATM   20  C   UNL     1     -41.461  54.718 -50.571  1.00  0.00     0.157 A 
HETATM   21  N   UNL     1     -41.182  54.032 -49.441  1.00  0.00    -0.168 NA
HETATM   22  N   UNL     1     -40.541  52.936 -49.884  1.00  0.00    -0.277 N 
HETATM   23  H   UNL     1     -40.227  52.255 -49.201  1.00  0.00     0.189 HD
HETATM   24  C   UNL     1     -40.381  52.879 -51.240  1.00  0.00     0.063 A 
HETATM   25  C   UNL     1     -40.978  54.035 -51.727  1.00  0.00     0.029 A 
HETATM   26  C   UNL     1     -39.772  51.930 -52.067  1.00  0.00     0.032 A 
HETATM   27  C   UNL     1     -40.972  54.269 -53.116  1.00  0.00     0.023 A 
HETATM   28  C   UNL     1     -40.364  53.337 -53.975  1.00  0.00    -0.061 A 
HETATM   29  C   UNL     1     -39.775  52.184 -53.444  1.00  0.00     0.009 A 
HETATM   30  C   UNL     1     -40.357  53.599 -55.454  1.00  0.00     0.048 C 
ENDBRANCH  17  20
ENDBRANCH   1  16
TORSDOF 6
ENDMDL
MODEL 9
REMARK VINA RESULT:      -7.6      3.500      5.649
REMARK  6 active torsions:
REMARK  status: ('A' for Active; 'I' for Inactive)
REMARK    1  A    between atoms: C_2  and  C_3 
REMARK    2  A    between atoms: C_3  and  C_4 
REMARK       I    between atoms: C_4  and  N_5 
REMARK    3  A    between atoms: N_5  and  C_6 
REMARK    4  A    between atoms: C_8  and  C_9 
REMARK    5  A    between atoms: C_9  and  N_10 
REMARK       I    between atoms: N_10  and  C_11 
REMARK    6  A    between atoms: C_11  and  C_12 
ROOT
HETATM    1  C   UNL     1     -42.507  56.347 -56.884  1.00  0.00     0.161 C 
ENDROOT
BRANCH   1   2
HETATM    2  C   UNL     1     -43.744  57.195 -57.003  1.00  0.00    -0.038 A 
HETATM    3  C   UNL     1     -44.278  57.499 -58.266  1.00  0.00     0.038 A 
HETATM    4  C   UNL     1     -45.486  58.192 -58.387  1.00  0.00     0.035 A 
HETATM    5  C   UNL     1     -46.154  58.600 -57.228  1.00  0.00     0.029 A 
HETATM    6  C   UNL     1     -45.609  58.344 -55.968  1.00  0.00     0.003 A 
HETATM    7  C   UNL     1     -44.410  57.644 -55.855  1.00  0.00     0.009 A 
BRANCH   4   8
HETATM    8  N   UNL     1     -46.113  58.446 -59.626  1.00  0.00    -0.327 N 
HETATM    9  C   UNL     1     -46.950  57.590 -60.318  1.00  0.00     0.226 C 
HETATM   10  O   UNL     1     -47.145  56.414 -60.014  1.00  0.00    -0.273 OA
HETATM   11  H   UNL     1     -45.815  59.288 -60.093  1.00  0.00     0.169 HD
BRANCH   9  12
HETATM   12  C   UNL     1     -47.742  58.242 -61.470  1.00  0.00     0.074 C 
HETATM   13  C   UNL     1     -48.444  59.510 -60.969  1.00  0.00     0.020 C 
BRANCH  12  14
HETATM   14  C   UNL     1     -48.719  57.343 -62.246  1.00  0.00     0.009 C 
HETATM   15  C   UNL     1     -48.939  57.738 -63.699  1.00  0.00     0.006 C 
ENDBRANCH  12  14
ENDBRANCH   9  12
ENDBRANCH   4   8
ENDBRANCH   1   2
BRANCH   1  16
HETATM   16  N   UNL     1     -42.195  56.010 -55.522  1.00  0.00    -0.351 N 
HETATM   17  C   UNL     1     -42.501  54.755 -55.036  1.00  0.00     0.273 C 
HETATM   18  O   UNL     1     -43.236  53.971 -55.632  1.00  0.00    -0.266 OA
HETATM   19  H   UNL     1     -41.452  56.498 -55.030  1.00  0.00     0.163 HD
BRANCH  17  20
HETATM   20  C   UNL     1     -41.841  54.431 -53.762  1.00  0.00     0.157 A 
HETATM   21  N   UNL     1     -41.905  55.257 -52.696  1.00  0.00    -0.168 NA
HETATM   22  N   UNL     1     -41.174  54.628 -51.760  1.00  0.00    -0.277 N 
HETATM   23  H   UNL     1     -41.075  55.068 -50.851  1.00  0.00     0.189 HD
HETATM   24  C   UNL     1     -40.630  53.440 -52.165  1.00  0.00     0.063 A 
HETATM   25  C   UNL     1     -41.052  53.276 -53.479  1.00  0.00     0.029 A 
HETATM   26  C   UNL     1     -39.818  52.515 -51.505  1.00  0.00     0.032 A 
HETATM   27  C   UNL     1     -40.644  52.128 -54.184  1.00  0.00     0.023 A 
HETATM   28  C   UNL     1     -39.823  51.178 -53.551  1.00  0.00    -0.061 A 
HETATM   29  C   UNL     1     -39.422  51.381 -52.225  1.00  0.00     0.009 A 
HETATM   30  C   UNL     1     -39.388  49.960 -54.313  1.00  0.00     0.048 C 
ENDBRANCH  17  20
ENDBRANCH   1  16
TORSDOF 6
ENDMDL
MODEL 10
REMARK VINA RESULT:      -7.4      4.062      6.321
REMARK  6 active torsions:
REMARK  status: ('A' for Active; 'I' for Inactive)
REMARK    1  A    between atoms: C_2  and  C_3 
REMARK    2  A    between atoms: C_3  and  C_4 
REMARK       I    between atoms: C_4  and  N_5 
REMARK    3  A    between atoms: N_5  and  C_6 
REMARK    4  A    between atoms: C_8  and  C_9 
REMARK    5  A    between atoms: C_9  and  N_10 
REMARK       I    between atoms: N_10  and  C_11 
REMARK    6  A    between atoms: C_11  and  C_12 
ROOT
HETATM    1  C   UNL     1     -42.703  58.824 -52.531  1.00  0.00     0.161 C 
ENDROOT
BRANCH   1   2
HETATM    2  C   UNL     1     -43.120  60.051 -51.769  1.00  0.00    -0.038 A 
HETATM    3  C   UNL     1     -43.670  59.935 -50.481  1.00  0.00     0.038 A 
HETATM    4  C   UNL     1     -43.960  61.071 -49.719  1.00  0.00     0.035 A 
HETATM    5  C   UNL     1     -43.712  62.335 -50.263  1.00  0.00     0.029 A 
HETATM    6  C   UNL     1     -43.209  62.464 -51.560  1.00  0.00     0.003 A 
HETATM    7  C   UNL     1     -42.913  61.327 -52.309  1.00  0.00     0.009 A 
BRANCH   4   8
HETATM    8  N   UNL     1     -44.428  61.012 -48.389  1.00  0.00    -0.327 N 
HETATM    9  C   UNL     1     -45.735  61.177 -47.967  1.00  0.00     0.226 C 
HETATM   10  O   UNL     1     -46.656  61.553 -48.690  1.00  0.00    -0.273 OA
HETATM   11  H   UNL     1     -43.711  60.964 -47.683  1.00  0.00     0.169 HD
BRANCH   9  12
HETATM   12  C   UNL     1     -46.009  60.745 -46.512  1.00  0.00     0.074 C 
HETATM   13  C   UNL     1     -44.831  61.147 -45.616  1.00  0.00     0.020 C 
BRANCH  12  14
HETATM   14  C   UNL     1     -46.400  59.276 -46.279  1.00  0.00     0.009 C 
HETATM   15  C   UNL     1     -47.662  59.070 -45.454  1.00  0.00     0.006 C 
ENDBRANCH  12  14
ENDBRANCH   9  12
ENDBRANCH   4   8
ENDBRANCH   1   2
BRANCH   1  16
HETATM   16  N   UNL     1     -42.072  57.840 -51.696  1.00  0.00    -0.351 N 
HETATM   17  C   UNL     1     -42.759  56.697 -51.339  1.00  0.00     0.273 C 
HETATM   18  O   UNL     1     -43.970  56.568 -51.507  1.00  0.00    -0.266 OA
HETATM   19  H   UNL     1     -41.059  57.766 -51.663  1.00  0.00     0.163 HD
BRANCH  17  20
HETATM   20  C   UNL     1     -41.907  55.639 -50.776  1.00  0.00     0.157 A 
HETATM   21  N   UNL     1     -41.567  55.619 -49.469  1.00  0.00    -0.168 NA
HETATM   22  N   UNL     1     -40.782  54.532 -49.360  1.00  0.00    -0.277 N 
HETATM   23  H   UNL     1     -40.398  54.307 -48.449  1.00  0.00     0.189 HD
HETATM   24  C   UNL     1     -40.587  53.851 -50.530  1.00  0.00     0.063 A 
HETATM   25  C   UNL     1     -41.317  54.550 -51.484  1.00  0.00     0.029 A 
HETATM   26  C   UNL     1     -39.846  52.705 -50.827  1.00  0.00     0.032 A 
HETATM   27  C   UNL     1     -41.311  54.088 -52.814  1.00  0.00     0.023 A 
HETATM   28  C   UNL     1     -40.572  52.940 -53.149  1.00  0.00    -0.061 A 
HETATM   29  C   UNL     1     -39.852  52.264 -52.156  1.00  0.00     0.009 A 
HETATM   30  C   UNL     1     -40.567  52.460 -54.571  1.00  0.00     0.048 C 
ENDBRANCH  17  20
ENDBRANCH   1  16
TORSDOF 6
ENDMDL
