MODEL 1
REMARK VINA RESULT:      -8.7      0.000      0.000
REMARK  7 active torsions:
REMARK  status: ('A' for Active; 'I' for Inactive)
REMARK    1  A    between atoms: O_2  and  C_3 
REMARK    2  A    between atoms: C_5  and  C_6 
REMARK    3  A    between atoms: C_6  and  N_7 
REMARK    4  A    between atoms: C_6  and  C_13 
REMARK    5  A    between atoms: C_13  and  N_14 
REMARK       I    between atoms: N_14  and  C_15 
REMARK       I    between atoms: C_15  and  N_16 
REMARK    6  A    between atoms: N_16  and  C_17 
REMARK    7  A    between atoms: C_18  and  O_19 
ROOT
HETATM    1  N   UNL     1     -41.727  55.466 -55.562  1.00  0.00    -0.341 N 
HETATM    2  C   UNL     1     -42.170  56.564 -56.236  1.00  0.00     0.316 C 
HETATM    3  N   UNL     1     -42.503  56.300 -57.525  1.00  0.00    -0.332 N 
HETATM    4  O   UNL     1     -42.259  57.668 -55.706  1.00  0.00    -0.247 OA
HETATM    5  H   UNL     1     -41.600  54.633 -56.124  1.00  0.00     0.164 HD
HETATM    6  H   UNL     1     -42.125  55.467 -57.953  1.00  0.00     0.165 HD
ENDROOT
BRANCH   1   7
HETATM    7  C   UNL     1     -40.948  55.541 -54.329  1.00  0.00     0.162 C 
BRANCH   7   8
HETATM    8  C   UNL     1     -41.611  54.936 -53.046  1.00  0.00     0.238 C 
BRANCH   8   9
HETATM    9  C   UNL     1     -40.893  53.694 -52.539  1.00  0.00    -0.023 A 
HETATM   10  C   UNL     1     -40.302  52.810 -53.458  1.00  0.00     0.046 A 
HETATM   11  C   UNL     1     -39.663  51.637 -53.042  1.00  0.00     0.068 A 
HETATM   12  C   UNL     1     -39.596  51.341 -51.683  1.00  0.00     0.037 A 
HETATM   13  C   UNL     1     -40.167  52.210 -50.752  1.00  0.00     0.003 A 
HETATM   14  C   UNL     1     -40.811  53.374 -51.173  1.00  0.00     0.009 A 
BRANCH  11  15
HETATM   15  O   UNL     1     -39.157  50.878 -54.059  1.00  0.00    -0.356 OA
HETATM   16  C   UNL     1     -39.950  49.780 -54.500  1.00  0.00     0.210 C 
ENDBRANCH  11  15
ENDBRANCH   8   9
BRANCH   8  17
HETATM   17  N   UNL     1     -41.816  56.010 -51.978  1.00  0.00    -0.061 N 
HETATM   18  H   UNL     1     -41.214  55.699 -51.190  1.00  0.00     0.280 HD
HETATM   19  C   UNL     1     -43.184  56.175 -51.385  1.00  0.00     0.236 C 
HETATM   20  C   UNL     1     -43.783  57.347 -52.131  1.00  0.00     0.029 C 
HETATM   21  C   UNL     1     -42.607  58.237 -52.489  1.00  0.00     0.029 C 
HETATM   22  C   UNL     1     -41.350  57.392 -52.345  1.00  0.00     0.236 C 
ENDBRANCH   8  17
ENDBRANCH   7   8
ENDBRANCH   1   7
BRANCH   3  23
HETATM   23  C   UNL     1     -42.865  57.359 -58.458  1.00  0.00     0.149 C 
HETATM   24  C   UNL     1     -42.589  57.014 -59.961  1.00  0.00     0.149 C 
HETATM   25  C   UNL     1     -43.855  56.306 -60.478  1.00  0.00     0.073 C 
HETATM   26  C   UNL     1     -44.913  56.921 -59.615  1.00  0.00    -0.047 A 
HETATM   27  C   UNL     1     -44.357  57.530 -58.482  1.00  0.00    -0.026 A 
HETATM   28  C   UNL     1     -46.283  56.899 -59.817  1.00  0.00     0.008 A 
HETATM   29  C   UNL     1     -45.163  58.138 -57.533  1.00  0.00     0.010 A 
HETATM   30  C   UNL     1     -46.545  58.133 -57.736  1.00  0.00     0.001 A 
HETATM   31  C   UNL     1     -47.101  57.518 -58.869  1.00  0.00     0.001 A 
BRANCH  24  32
HETATM   32  O   UNL     1     -41.435  56.203 -60.172  1.00  0.00    -0.393 OA
HETATM   33  H   UNL     1     -41.346  56.104 -61.139  1.00  0.00     0.210 HD
ENDBRANCH  24  32
ENDBRANCH   3  23
TORSDOF 7
ENDMDL
MODEL 2
REMARK VINA RESULT:      -8.6      1.066      1.844
REMARK  7 active torsions:
REMARK  status: ('A' for Active; 'I' for Inactive)
REMARK    1  A    between atoms: O_2  and  C_3 
REMARK    2  A    between atoms: C_5  and  C_6 
REMARK    3  A    between atoms: C_6  and  N_7 
REMARK    4  A    between atoms: C_6  and  C_13 
REMARK    5  A    between atoms: C_13  and  N_14 
REMARK       I    between atoms: N_14  and  C_15 
REMARK       I    between atoms: C_15  and  N_16 
REMARK    6  A    between atoms: N_16  and  C_17 
REMARK    7  A    between atoms: C_18  and  O_19 
ROOT
HETATM    1  N   UNL     1     -41.725  55.615 -55.698  1.00  0.00    -0.341 N 
HETATM    2  C   UNL     1     -42.221  56.692 -56.370  1.00  0.00     0.316 C 
HETATM    3  N   UNL     1     -42.520  56.419 -57.665  1.00  0.00    -0.332 N 
HETATM    4  O   UNL     1     -42.379  57.785 -55.834  1.00  0.00    -0.247 OA
HETATM    5  H   UNL     1     -41.543  54.795 -56.263  1.00  0.00     0.164 HD
HETATM    6  H   UNL     1     -42.091  55.612 -58.094  1.00  0.00     0.165 HD
ENDROOT
BRANCH   1   7
HETATM    7  C   UNL     1     -40.968  55.725 -54.453  1.00  0.00     0.162 C 
BRANCH   7   8
HETATM    8  C   UNL     1     -41.651  55.150 -53.167  1.00  0.00     0.238 C 
BRANCH   8   9
HETATM    9  C   UNL     1     -40.986  53.878 -52.663  1.00  0.00    -0.023 A 
HETATM   10  C   UNL     1     -40.932  53.624 -51.281  1.00  0.00     0.046 A 
HETATM   11  C   UNL     1     -40.299  52.486 -50.768  1.00  0.00     0.068 A 
HETATM   12  C   UNL     1     -39.720  51.572 -51.645  1.00  0.00     0.037 A 
HETATM   13  C   UNL     1     -39.773  51.799 -53.021  1.00  0.00     0.003 A 
HETATM   14  C   UNL     1     -40.397  52.940 -53.527  1.00  0.00     0.009 A 
BRANCH  11  15
HETATM   15  O   UNL     1     -40.317  52.395 -49.405  1.00  0.00    -0.356 OA
HETATM   16  C   UNL     1     -40.606  53.589 -48.683  1.00  0.00     0.210 C 
ENDBRANCH  11  15
ENDBRANCH   8   9
BRANCH   8  17
HETATM   17  N   UNL     1     -41.804  56.233 -52.098  1.00  0.00    -0.061 N 
HETATM   18  H   UNL     1     -41.211  55.896 -51.313  1.00  0.00     0.280 HD
HETATM   19  C   UNL     1     -43.160  56.456 -51.498  1.00  0.00     0.236 C 
HETATM   20  C   UNL     1     -43.712  57.652 -52.241  1.00  0.00     0.029 C 
HETATM   21  C   UNL     1     -42.501  58.491 -52.606  1.00  0.00     0.029 C 
HETATM   22  C   UNL     1     -41.281  57.593 -52.468  1.00  0.00     0.236 C 
ENDBRANCH   8  17
ENDBRANCH   7   8
ENDBRANCH   1   7
BRANCH   3  23
HETATM   23  C   UNL     1     -42.929  57.463 -58.596  1.00  0.00     0.149 C 
HETATM   24  C   UNL     1     -42.643  57.131 -60.100  1.00  0.00     0.149 C 
HETATM   25  C   UNL     1     -43.880  56.371 -60.614  1.00  0.00     0.073 C 
HETATM   26  C   UNL     1     -44.960  56.940 -59.748  1.00  0.00    -0.047 A 
HETATM   27  C   UNL     1     -44.427  57.571 -58.616  1.00  0.00    -0.026 A 
HETATM   28  C   UNL     1     -46.328  56.861 -59.946  1.00  0.00     0.008 A 
HETATM   29  C   UNL     1     -45.256  58.143 -57.664  1.00  0.00     0.010 A 
HETATM   30  C   UNL     1     -46.637  58.081 -57.863  1.00  0.00     0.001 A 
HETATM   31  C   UNL     1     -47.169  57.444 -58.995  1.00  0.00     0.001 A 
BRANCH  24  32
HETATM   32  O   UNL     1     -41.457  56.370 -60.315  1.00  0.00    -0.393 OA
HETATM   33  H   UNL     1     -41.160  56.580 -61.221  1.00  0.00     0.210 HD
ENDBRANCH  24  32
ENDBRANCH   3  23
TORSDOF 7
ENDMDL
MODEL 3
REMARK VINA RESULT:      -8.5      2.153      8.332
REMARK  7 active torsions:
REMARK  status: ('A' for Active; 'I' for Inactive)
REMARK    1  A    between atoms: O_2  and  C_3 
REMARK    2  A    between atoms: C_5  and  C_6 
REMARK    3  A    between atoms: C_6  and  N_7 
REMARK    4  A    between atoms: C_6  and  C_13 
REMARK    5  A    between atoms: C_13  and  N_14 
REMARK       I    between atoms: N_14  and  C_15 
REMARK       I    between atoms: C_15  and  N_16 
REMARK    6  A    between atoms: N_16  and  C_17 
REMARK    7  A    between atoms: C_18  and  O_19 
ROOT
HETATM    1  N   UNL     1     -42.898  54.116 -54.733  1.00  0.00    -0.341 N 
HETATM    2  C   UNL     1     -41.632  53.843 -54.307  1.00  0.00     0.316 C 
HETATM    3  N   UNL     1     -41.543  53.698 -52.961  1.00  0.00    -0.332 N 
HETATM    4  O   UNL     1     -40.688  53.734 -55.084  1.00  0.00    -0.247 OA
HETATM    5  H   UNL     1     -43.577  54.282 -54.000  1.00  0.00     0.164 HD
HETATM    6  H   UNL     1     -42.277  54.091 -52.390  1.00  0.00     0.165 HD
ENDROOT
BRANCH   1   7
HETATM    7  C   UNL     1     -43.198  54.699 -56.038  1.00  0.00     0.162 C 
BRANCH   7   8
HETATM    8  C   UNL     1     -43.212  56.263 -56.118  1.00  0.00     0.238 C 
BRANCH   8   9
HETATM    9  C   UNL     1     -42.970  56.786 -57.525  1.00  0.00    -0.023 A 
HETATM   10  C   UNL     1     -43.517  56.101 -58.624  1.00  0.00     0.046 A 
HETATM   11  C   UNL     1     -43.291  56.522 -59.939  1.00  0.00     0.068 A 
HETATM   12  C   UNL     1     -42.517  57.656 -60.170  1.00  0.00     0.037 A 
HETATM   13  C   UNL     1     -41.973  58.358 -59.093  1.00  0.00     0.003 A 
HETATM   14  C   UNL     1     -42.194  57.929 -57.784  1.00  0.00     0.009 A 
BRANCH  11  15
HETATM   15  O   UNL     1     -43.876  55.738 -60.893  1.00  0.00    -0.356 OA
HETATM   16  C   UNL     1     -44.981  54.939 -60.482  1.00  0.00     0.210 C 
ENDBRANCH  11  15
ENDBRANCH   8   9
BRANCH   8  17
HETATM   17  N   UNL     1     -44.466  56.833 -55.454  1.00  0.00    -0.061 N 
HETATM   18  H   UNL     1     -45.158  56.060 -55.519  1.00  0.00     0.280 HD
HETATM   19  C   UNL     1     -45.136  58.014 -56.091  1.00  0.00     0.236 C 
HETATM   20  C   UNL     1     -44.643  59.205 -55.300  1.00  0.00     0.029 C 
HETATM   21  C   UNL     1     -44.404  58.680 -53.895  1.00  0.00     0.029 C 
HETATM   22  C   UNL     1     -44.339  57.163 -53.993  1.00  0.00     0.236 C 
ENDBRANCH   8  17
ENDBRANCH   7   8
ENDBRANCH   1   7
BRANCH   3  23
HETATM   23  C   UNL     1     -40.259  53.543 -52.289  1.00  0.00     0.149 C 
HETATM   24  C   UNL     1     -40.214  54.145 -50.843  1.00  0.00     0.149 C 
HETATM   25  C   UNL     1     -40.696  53.029 -49.898  1.00  0.00     0.073 C 
HETATM   26  C   UNL     1     -40.274  51.803 -50.646  1.00  0.00    -0.047 A 
HETATM   27  C   UNL     1     -40.011  52.091 -51.992  1.00  0.00    -0.026 A 
HETATM   28  C   UNL     1     -40.171  50.511 -50.157  1.00  0.00     0.008 A 
HETATM   29  C   UNL     1     -39.631  51.091 -52.874  1.00  0.00     0.010 A 
HETATM   30  C   UNL     1     -39.511  49.788 -52.386  1.00  0.00     0.001 A 
HETATM   31  C   UNL     1     -39.780  49.500 -51.038  1.00  0.00     0.001 A 
BRANCH  24  32
HETATM   32  O   UNL     1     -41.000  55.323 -50.676  1.00  0.00    -0.393 OA
HETATM   33  H   UNL     1     -41.811  55.044 -50.210  1.00  0.00     0.210 HD
ENDBRANCH  24  32
ENDBRANCH   3  23
TORSDOF 7
ENDMDL
MODEL 4
REMARK VINA RESULT:      -8.4      1.751      2.308
REMARK  7 active torsions:
REMARK  status: ('A' for Active; 'I' for Inactive)
REMARK    1  A    between atoms: O_2  and  C_3 
REMARK    2  A    between atoms: C_5  and  C_6 
REMARK    3  A    between atoms: C_6  and  N_7 
REMARK    4  A    between atoms: C_6  and  C_13 
REMARK    5  A    between atoms: C_13  and  N_14 
REMARK       I    between atoms: N_14  and  C_15 
REMARK       I    between atoms: C_15  and  N_16 
REMARK    6  A    between atoms: N_16  and  C_17 
REMARK    7  A    between atoms: C_18  and  O_19 
ROOT
HETATM    1  N   UNL     1     -43.970  55.390 -55.107  1.00  0.00    -0.341 N 
HETATM    2  C   UNL     1     -43.118  55.417 -56.170  1.00  0.00     0.316 C 
HETATM    3  N   UNL     1     -43.665  55.978 -57.278  1.00  0.00    -0.332 N 
HETATM    4  O   UNL     1     -41.972  54.980 -56.104  1.00  0.00    -0.247 OA
HETATM    5  H   UNL     1     -44.919  55.684 -55.303  1.00  0.00     0.164 HD
HETATM    6  H   UNL     1     -44.672  56.030 -57.337  1.00  0.00     0.165 HD
ENDROOT
BRANCH   1   7
HETATM    7  C   UNL     1     -43.790  54.510 -53.956  1.00  0.00     0.162 C 
BRANCH   7   8
HETATM    8  C   UNL     1     -42.943  55.078 -52.767  1.00  0.00     0.238 C 
BRANCH   8   9
HETATM    9  C   UNL     1     -41.830  54.138 -52.331  1.00  0.00    -0.023 A 
HETATM   10  C   UNL     1     -41.174  53.347 -53.290  1.00  0.00     0.046 A 
HETATM   11  C   UNL     1     -40.169  52.441 -52.933  1.00  0.00     0.068 A 
HETATM   12  C   UNL     1     -39.796  52.327 -51.596  1.00  0.00     0.037 A 
HETATM   13  C   UNL     1     -40.426  53.111 -50.629  1.00  0.00     0.003 A 
HETATM   14  C   UNL     1     -41.434  54.007 -50.989  1.00  0.00     0.009 A 
BRANCH  11  15
HETATM   15  O   UNL     1     -39.646  51.735 -53.979  1.00  0.00    -0.356 OA
HETATM   16  C   UNL     1     -39.759  50.316 -53.920  1.00  0.00     0.210 C 
ENDBRANCH  11  15
ENDBRANCH   8   9
BRANCH   8  17
HETATM   17  N   UNL     1     -42.470  56.501 -53.064  1.00  0.00    -0.061 N 
HETATM   18  H   UNL     1     -42.590  56.596 -54.093  1.00  0.00     0.280 HD
HETATM   19  C   UNL     1     -41.033  56.844 -52.804  1.00  0.00     0.236 C 
HETATM   20  C   UNL     1     -41.046  57.540 -51.461  1.00  0.00     0.029 C 
HETATM   21  C   UNL     1     -42.392  58.238 -51.384  1.00  0.00     0.029 C 
HETATM   22  C   UNL     1     -43.282  57.603 -52.442  1.00  0.00     0.236 C 
ENDBRANCH   8  17
ENDBRANCH   7   8
ENDBRANCH   1   7
BRANCH   3  23
HETATM   23  C   UNL     1     -42.974  55.978 -58.560  1.00  0.00     0.149 C 
HETATM   24  C   UNL     1     -43.791  55.333 -59.731  1.00  0.00     0.149 C 
HETATM   25  C   UNL     1     -44.639  56.467 -60.337  1.00  0.00     0.073 C 
HETATM   26  C   UNL     1     -43.784  57.662 -60.055  1.00  0.00    -0.047 A 
HETATM   27  C   UNL     1     -42.832  57.386 -59.064  1.00  0.00    -0.026 A 
HETATM   28  C   UNL     1     -43.881  58.922 -60.622  1.00  0.00     0.008 A 
HETATM   29  C   UNL     1     -41.952  58.365 -58.629  1.00  0.00     0.010 A 
HETATM   30  C   UNL     1     -42.034  59.634 -59.206  1.00  0.00     0.001 A 
HETATM   31  C   UNL     1     -42.992  59.910 -60.195  1.00  0.00     0.001 A 
BRANCH  24  32
HETATM   32  O   UNL     1     -44.617  54.241 -59.335  1.00  0.00    -0.393 OA
HETATM   33  H   UNL     1     -44.474  54.126 -58.377  1.00  0.00     0.210 HD
ENDBRANCH  24  32
ENDBRANCH   3  23
TORSDOF 7
ENDMDL
MODEL 5
REMARK VINA RESULT:      -8.4      1.705      2.678
REMARK  7 active torsions:
REMARK  status: ('A' for Active; 'I' for Inactive)
REMARK    1  A    between atoms: O_2  and  C_3 
REMARK    2  A    between atoms: C_5  and  C_6 
REMARK    3  A    between atoms: C_6  and  N_7 
REMARK    4  A    between atoms: C_6  and  C_13 
REMARK    5  A    between atoms: C_13  and  N_14 
REMARK       I    between atoms: N_14  and  C_15 
REMARK       I    between atoms: C_15  and  N_16 
REMARK    6  A    between atoms: N_16  and  C_17 
REMARK    7  A    between atoms: C_18  and  O_19 
ROOT
HETATM    1  N   UNL     1     -44.588  56.561 -54.354  1.00  0.00    -0.341 N 
HETATM    2  C   UNL     1     -44.287  57.406 -55.380  1.00  0.00     0.316 C 
HETATM    3  N   UNL     1     -44.634  56.913 -56.596  1.00  0.00    -0.332 N 
HETATM    4  O   UNL     1     -43.765  58.502 -55.196  1.00  0.00    -0.247 OA
HETATM    5  H   UNL     1     -44.924  55.646 -54.629  1.00  0.00     0.164 HD
HETATM    6  H   UNL     1     -44.772  55.917 -56.684  1.00  0.00     0.165 HD
ENDROOT
BRANCH   1   7
HETATM    7  C   UNL     1     -43.980  56.657 -53.030  1.00  0.00     0.162 C 
BRANCH   7   8
HETATM    8  C   UNL     1     -43.306  55.357 -52.474  1.00  0.00     0.238 C 
BRANCH   8   9
HETATM    9  C   UNL     1     -42.167  54.860 -53.351  1.00  0.00    -0.023 A 
HETATM   10  C   UNL     1     -41.987  53.478 -53.537  1.00  0.00     0.046 A 
HETATM   11  C   UNL     1     -40.932  52.972 -54.305  1.00  0.00     0.068 A 
HETATM   12  C   UNL     1     -40.045  53.856 -54.914  1.00  0.00     0.037 A 
HETATM   13  C   UNL     1     -40.212  55.231 -54.753  1.00  0.00     0.003 A 
HETATM   14  C   UNL     1     -41.260  55.731 -53.979  1.00  0.00     0.009 A 
BRANCH  11  15
HETATM   15  O   UNL     1     -40.885  51.608 -54.371  1.00  0.00    -0.356 OA
HETATM   16  C   UNL     1     -39.799  50.967 -53.708  1.00  0.00     0.210 C 
ENDBRANCH  11  15
ENDBRANCH   8   9
BRANCH   8  17
HETATM   17  N   UNL     1     -42.926  55.525 -51.003  1.00  0.00    -0.061 N 
HETATM   18  H   UNL     1     -43.836  55.481 -50.503  1.00  0.00     0.280 HD
HETATM   19  C   UNL     1     -42.302  56.818 -50.570  1.00  0.00     0.236 C 
HETATM   20  C   UNL     1     -40.818  56.527 -50.522  1.00  0.00     0.029 C 
HETATM   21  C   UNL     1     -40.710  55.057 -50.157  1.00  0.00     0.029 C 
HETATM   22  C   UNL     1     -42.072  54.432 -50.422  1.00  0.00     0.236 C 
ENDBRANCH   8  17
ENDBRANCH   7   8
ENDBRANCH   1   7
BRANCH   3  23
HETATM   23  C   UNL     1     -44.273  57.594 -57.832  1.00  0.00     0.149 C 
HETATM   24  C   UNL     1     -42.843  57.242 -58.366  1.00  0.00     0.149 C 
HETATM   25  C   UNL     1     -43.011  55.996 -59.255  1.00  0.00     0.073 C 
HETATM   26  C   UNL     1     -44.412  56.173 -59.753  1.00  0.00    -0.047 A 
HETATM   27  C   UNL     1     -45.123  57.086 -58.962  1.00  0.00    -0.026 A 
HETATM   28  C   UNL     1     -45.016  55.527 -60.819  1.00  0.00     0.008 A 
HETATM   29  C   UNL     1     -46.451  57.376 -59.230  1.00  0.00     0.010 A 
HETATM   30  C   UNL     1     -47.064  56.741 -60.312  1.00  0.00     0.001 A 
HETATM   31  C   UNL     1     -46.352  55.822 -61.100  1.00  0.00     0.001 A 
BRANCH  24  32
HETATM   32  O   UNL     1     -41.879  57.005 -57.342  1.00  0.00    -0.393 OA
HETATM   33  H   UNL     1     -41.926  56.051 -57.141  1.00  0.00     0.210 HD
ENDBRANCH  24  32
ENDBRANCH   3  23
TORSDOF 7
ENDMDL
MODEL 6
REMARK VINA RESULT:      -7.8      2.170      3.134
REMARK  7 active torsions:
REMARK  status: ('A' for Active; 'I' for Inactive)
REMARK    1  A    between atoms: O_2  and  C_3 
REMARK    2  A    between atoms: C_5  and  C_6 
REMARK    3  A    between atoms: C_6  and  N_7 
REMARK    4  A    between atoms: C_6  and  C_13 
REMARK    5  A    between atoms: C_13  and  N_14 
REMARK       I    between atoms: N_14  and  C_15 
REMARK       I    between atoms: C_15  and  N_16 
REMARK    6  A    between atoms: N_16  and  C_17 
REMARK    7  A    between atoms: C_18  and  O_19 
ROOT
HETATM    1  N   UNL     1     -44.986  57.341 -53.773  1.00  0.00    -0.341 N 
HETATM    2  C   UNL     1     -44.665  58.008 -54.918  1.00  0.00     0.316 C 
HETATM    3  N   UNL     1     -44.517  57.186 -55.988  1.00  0.00    -0.332 N 
HETATM    4  O   UNL     1     -44.539  59.228 -54.953  1.00  0.00    -0.247 OA
HETATM    5  H   UNL     1     -44.966  56.331 -53.838  1.00  0.00     0.164 HD
HETATM    6  H   UNL     1     -44.343  56.207 -55.816  1.00  0.00     0.165 HD
ENDROOT
BRANCH   1   7
HETATM    7  C   UNL     1     -44.812  57.909 -52.439  1.00  0.00     0.162 C 
BRANCH   7   8
HETATM    8  C   UNL     1     -43.404  57.723 -51.778  1.00  0.00     0.238 C 
BRANCH   8   9
HETATM    9  C   UNL     1     -42.778  56.372 -52.090  1.00  0.00    -0.023 A 
HETATM   10  C   UNL     1     -41.843  56.264 -53.134  1.00  0.00     0.046 A 
HETATM   11  C   UNL     1     -41.268  55.037 -53.482  1.00  0.00     0.068 A 
HETATM   12  C   UNL     1     -41.617  53.893 -52.769  1.00  0.00     0.037 A 
HETATM   13  C   UNL     1     -42.535  53.978 -51.722  1.00  0.00     0.003 A 
HETATM   14  C   UNL     1     -43.113  55.203 -51.385  1.00  0.00     0.009 A 
BRANCH  11  15
HETATM   15  O   UNL     1     -40.393  55.099 -54.529  1.00  0.00    -0.356 OA
HETATM   16  C   UNL     1     -40.055  53.868 -55.161  1.00  0.00     0.210 C 
ENDBRANCH  11  15
ENDBRANCH   8   9
BRANCH   8  17
HETATM   17  N   UNL     1     -42.494  58.911 -52.086  1.00  0.00    -0.061 N 
HETATM   18  H   UNL     1     -42.215  58.763 -53.077  1.00  0.00     0.280 HD
HETATM   19  C   UNL     1     -41.205  59.038 -51.330  1.00  0.00     0.236 C 
HETATM   20  C   UNL     1     -41.502  60.041 -50.237  1.00  0.00     0.029 C 
HETATM   21  C   UNL     1     -42.550  60.971 -50.822  1.00  0.00     0.029 C 
HETATM   22  C   UNL     1     -43.147  60.265 -52.029  1.00  0.00     0.236 C 
ENDBRANCH   8  17
ENDBRANCH   7   8
ENDBRANCH   1   7
BRANCH   3  23
HETATM   23  C   UNL     1     -44.038  57.679 -57.273  1.00  0.00     0.149 C 
HETATM   24  C   UNL     1     -42.731  56.981 -57.782  1.00  0.00     0.149 C 
HETATM   25  C   UNL     1     -43.186  55.742 -58.575  1.00  0.00     0.073 C 
HETATM   26  C   UNL     1     -44.523  56.187 -59.081  1.00  0.00    -0.047 A 
HETATM   27  C   UNL     1     -45.000  57.290 -58.360  1.00  0.00    -0.026 A 
HETATM   28  C   UNL     1     -45.273  55.615 -60.094  1.00  0.00     0.008 A 
HETATM   29  C   UNL     1     -46.237  57.847 -58.646  1.00  0.00     0.010 A 
HETATM   30  C   UNL     1     -46.994  57.285 -59.676  1.00  0.00     0.001 A 
HETATM   31  C   UNL     1     -46.517  56.177 -60.394  1.00  0.00     0.001 A 
BRANCH  24  32
HETATM   32  O   UNL     1     -41.824  56.613 -56.745  1.00  0.00    -0.393 OA
HETATM   33  H   UNL     1     -40.943  56.561 -57.161  1.00  0.00     0.210 HD
ENDBRANCH  24  32
ENDBRANCH   3  23
TORSDOF 7
ENDMDL
MODEL 7
REMARK VINA RESULT:      -7.7      3.979      7.352
REMARK  7 active torsions:
REMARK  status: ('A' for Active; 'I' for Inactive)
REMARK    1  A    between atoms: O_2  and  C_3 
REMARK    2  A    between atoms: C_5  and  C_6 
REMARK    3  A    between atoms: C_6  and  N_7 
REMARK    4  A    between atoms: C_6  and  C_13 
REMARK    5  A    between atoms: C_13  and  N_14 
REMARK       I    between atoms: N_14  and  C_15 
REMARK       I    between atoms: C_15  and  N_16 
REMARK    6  A    between atoms: N_16  and  C_17 
REMARK    7  A    between atoms: C_18  and  O_19 
ROOT
HETATM    1  N   UNL     1     -41.510  58.589 -50.908  1.00  0.00    -0.341 N 
HETATM    2  C   UNL     1     -42.376  59.575 -51.279  1.00  0.00     0.316 C 
HETATM    3  N   UNL     1     -43.272  59.888 -50.309  1.00  0.00    -0.332 N 
HETATM    4  O   UNL     1     -42.324  60.115 -52.380  1.00  0.00    -0.247 OA
HETATM    5  H   UNL     1     -41.708  58.148 -50.019  1.00  0.00     0.164 HD
HETATM    6  H   UNL     1     -43.437  59.213 -49.577  1.00  0.00     0.165 HD
ENDROOT
BRANCH   1   7
HETATM    7  C   UNL     1     -40.734  57.803 -51.863  1.00  0.00     0.162 C 
BRANCH   7   8
HETATM    8  C   UNL     1     -41.274  56.371 -52.192  1.00  0.00     0.238 C 
BRANCH   8   9
HETATM    9  C   UNL     1     -41.013  55.369 -51.077  1.00  0.00    -0.023 A 
HETATM   10  C   UNL     1     -40.571  54.074 -51.397  1.00  0.00     0.046 A 
HETATM   11  C   UNL     1     -40.353  53.107 -50.409  1.00  0.00     0.068 A 
HETATM   12  C   UNL     1     -40.564  53.437 -49.073  1.00  0.00     0.037 A 
HETATM   13  C   UNL     1     -40.991  54.720 -48.732  1.00  0.00     0.003 A 
HETATM   14  C   UNL     1     -41.217  55.678 -49.722  1.00  0.00     0.009 A 
BRANCH  11  15
HETATM   15  O   UNL     1     -39.944  51.894 -50.886  1.00  0.00    -0.356 OA
HETATM   16  C   UNL     1     -39.670  51.808 -52.281  1.00  0.00     0.210 C 
ENDBRANCH  11  15
ENDBRANCH   8   9
BRANCH   8  17
HETATM   17  N   UNL     1     -42.734  56.427 -52.644  1.00  0.00    -0.061 N 
HETATM   18  H   UNL     1     -43.193  57.029 -51.931  1.00  0.00     0.280 HD
HETATM   19  C   UNL     1     -43.527  55.154 -52.653  1.00  0.00     0.236 C 
HETATM   20  C   UNL     1     -43.500  54.700 -54.096  1.00  0.00     0.029 C 
HETATM   21  C   UNL     1     -43.425  55.975 -54.916  1.00  0.00     0.029 C 
HETATM   22  C   UNL     1     -42.981  57.084 -53.973  1.00  0.00     0.236 C 
ENDBRANCH   8  17
ENDBRANCH   7   8
ENDBRANCH   1   7
BRANCH   3  23
HETATM   23  C   UNL     1     -44.371  60.814 -50.549  1.00  0.00     0.149 C 
HETATM   24  C   UNL     1     -45.654  60.523 -49.698  1.00  0.00     0.149 C 
HETATM   25  C   UNL     1     -45.473  61.288 -48.374  1.00  0.00     0.073 C 
HETATM   26  C   UNL     1     -44.618  62.437 -48.808  1.00  0.00    -0.047 A 
HETATM   27  C   UNL     1     -44.007  62.181 -50.043  1.00  0.00    -0.026 A 
HETATM   28  C   UNL     1     -44.378  63.616 -48.122  1.00  0.00     0.008 A 
HETATM   29  C   UNL     1     -43.149  63.105 -50.619  1.00  0.00     0.010 A 
HETATM   30  C   UNL     1     -42.912  64.302 -49.939  1.00  0.00     0.001 A 
HETATM   31  C   UNL     1     -43.521  64.555 -48.700  1.00  0.00     0.001 A 
BRANCH  24  32
HETATM   32  O   UNL     1     -45.892  59.139 -49.454  1.00  0.00    -0.393 OA
HETATM   33  H   UNL     1     -45.099  58.667 -49.771  1.00  0.00     0.210 HD
ENDBRANCH  24  32
ENDBRANCH   3  23
TORSDOF 7
ENDMDL
MODEL 8
REMARK VINA RESULT:      -7.6      2.493      8.624
REMARK  7 active torsions:
REMARK  status: ('A' for Active; 'I' for Inactive)
REMARK    1  A    between atoms: O_2  and  C_3 
REMARK    2  A    between atoms: C_5  and  C_6 
REMARK    3  A    between atoms: C_6  and  N_7 
REMARK    4  A    between atoms: C_6  and  C_13 
REMARK    5  A    between atoms: C_13  and  N_14 
REMARK       I    between atoms: N_14  and  C_15 
REMARK       I    between atoms: C_15  and  N_16 
REMARK    6  A    between atoms: N_16  and  C_17 
REMARK    7  A    between atoms: C_18  and  O_19 
ROOT
HETATM    1  N   UNL     1     -45.003  57.275 -56.048  1.00  0.00    -0.341 N 
HETATM    2  C   UNL     1     -43.816  57.246 -55.379  1.00  0.00     0.316 C 
HETATM    3  N   UNL     1     -43.818  56.387 -54.328  1.00  0.00    -0.332 N 
HETATM    4  O   UNL     1     -42.855  57.930 -55.719  1.00  0.00    -0.247 OA
HETATM    5  H   UNL     1     -45.756  56.748 -55.622  1.00  0.00     0.164 HD
HETATM    6  H   UNL     1     -44.709  56.104 -53.947  1.00  0.00     0.165 HD
ENDROOT
BRANCH   1   7
HETATM    7  C   UNL     1     -45.399  58.366 -56.934  1.00  0.00     0.162 C 
BRANCH   7   8
HETATM    8  C   UNL     1     -45.464  58.036 -58.464  1.00  0.00     0.238 C 
BRANCH   8   9
HETATM    9  C   UNL     1     -44.604  58.964 -59.307  1.00  0.00    -0.023 A 
HETATM   10  C   UNL     1     -43.434  59.517 -58.757  1.00  0.00     0.046 A 
HETATM   11  C   UNL     1     -42.630  60.404 -59.481  1.00  0.00     0.068 A 
HETATM   12  C   UNL     1     -42.986  60.740 -60.785  1.00  0.00     0.037 A 
HETATM   13  C   UNL     1     -44.136  60.194 -61.355  1.00  0.00     0.003 A 
HETATM   14  C   UNL     1     -44.940  59.316 -60.625  1.00  0.00     0.009 A 
BRANCH  11  15
HETATM   15  O   UNL     1     -41.541  60.867 -58.798  1.00  0.00    -0.356 OA
HETATM   16  C   UNL     1     -41.628  60.878 -57.377  1.00  0.00     0.210 C 
ENDBRANCH  11  15
ENDBRANCH   8   9
BRANCH   8  17
HETATM   17  N   UNL     1     -45.201  56.551 -58.714  1.00  0.00    -0.061 N 
HETATM   18  H   UNL     1     -45.547  56.086 -57.851  1.00  0.00     0.280 HD
HETATM   19  C   UNL     1     -43.780  56.094 -58.864  1.00  0.00     0.236 C 
HETATM   20  C   UNL     1     -43.570  55.989 -60.358  1.00  0.00     0.029 C 
HETATM   21  C   UNL     1     -44.927  55.620 -60.928  1.00  0.00     0.029 C 
HETATM   22  C   UNL     1     -45.960  55.937 -59.858  1.00  0.00     0.236 C 
ENDBRANCH   8  17
ENDBRANCH   7   8
ENDBRANCH   1   7
BRANCH   3  23
HETATM   23  C   UNL     1     -42.698  56.308 -53.399  1.00  0.00     0.149 C 
HETATM   24  C   UNL     1     -43.084  55.796 -51.970  1.00  0.00     0.149 C 
HETATM   25  C   UNL     1     -42.979  54.260 -52.022  1.00  0.00     0.073 C 
HETATM   26  C   UNL     1     -41.922  54.069 -53.065  1.00  0.00    -0.047 A 
HETATM   27  C   UNL     1     -41.749  55.228 -53.834  1.00  0.00    -0.026 A 
HETATM   28  C   UNL     1     -41.195  52.921 -53.327  1.00  0.00     0.008 A 
HETATM   29  C   UNL     1     -40.837  55.261 -54.877  1.00  0.00     0.010 A 
HETATM   30  C   UNL     1     -40.089  54.111 -55.139  1.00  0.00     0.001 A 
HETATM   31  C   UNL     1     -40.267  52.950 -54.371  1.00  0.00     0.001 A 
BRANCH  24  32
HETATM   32  O   UNL     1     -44.381  56.198 -51.535  1.00  0.00    -0.393 OA
HETATM   33  H   UNL     1     -44.239  56.827 -50.802  1.00  0.00     0.210 HD
ENDBRANCH  24  32
ENDBRANCH   3  23
TORSDOF 7
ENDMDL
MODEL 9
REMARK VINA RESULT:      -7.6      2.547      8.352
REMARK  7 active torsions:
REMARK  status: ('A' for Active; 'I' for Inactive)
REMARK    1  A    between atoms: O_2  and  C_3 
REMARK    2  A    between atoms: C_5  and  C_6 
REMARK    3  A    between atoms: C_6  and  N_7 
REMARK    4  A    between atoms: C_6  and  C_13 
REMARK    5  A    between atoms: C_13  and  N_14 
REMARK       I    between atoms: N_14  and  C_15 
REMARK       I    between atoms: C_15  and  N_16 
REMARK    6  A    between atoms: N_16  and  C_17 
REMARK    7  A    between atoms: C_18  and  O_19 
ROOT
HETATM    1  N   UNL     1     -45.033  57.157 -55.671  1.00  0.00    -0.341 N 
HETATM    2  C   UNL     1     -43.812  57.114 -55.066  1.00  0.00     0.316 C 
HETATM    3  N   UNL     1     -43.767  56.253 -54.018  1.00  0.00    -0.332 N 
HETATM    4  O   UNL     1     -42.863  57.789 -55.455  1.00  0.00    -0.247 OA
HETATM    5  H   UNL     1     -45.767  56.636 -55.207  1.00  0.00     0.164 HD
HETATM    6  H   UNL     1     -44.639  55.977 -53.591  1.00  0.00     0.165 HD
ENDROOT
BRANCH   1   7
HETATM    7  C   UNL     1     -45.463  58.254 -56.533  1.00  0.00     0.162 C 
BRANCH   7   8
HETATM    8  C   UNL     1     -44.642  58.472 -57.849  1.00  0.00     0.238 C 
BRANCH   8   9
HETATM    9  C   UNL     1     -44.917  57.408 -58.901  1.00  0.00    -0.023 A 
HETATM   10  C   UNL     1     -46.220  57.247 -59.402  1.00  0.00     0.046 A 
HETATM   11  C   UNL     1     -46.529  56.258 -60.343  1.00  0.00     0.068 A 
HETATM   12  C   UNL     1     -45.519  55.419 -60.808  1.00  0.00     0.037 A 
HETATM   13  C   UNL     1     -44.216  55.569 -60.333  1.00  0.00     0.003 A 
HETATM   14  C   UNL     1     -43.915  56.550 -59.387  1.00  0.00     0.009 A 
BRANCH  11  15
HETATM   15  O   UNL     1     -47.843  56.221 -60.714  1.00  0.00    -0.356 OA
HETATM   16  C   UNL     1     -48.161  56.711 -62.013  1.00  0.00     0.210 C 
ENDBRANCH  11  15
ENDBRANCH   8   9
BRANCH   8  17
HETATM   17  N   UNL     1     -44.801  59.903 -58.362  1.00  0.00    -0.061 N 
HETATM   18  H   UNL     1     -45.802  60.122 -58.187  1.00  0.00     0.280 HD
HETATM   19  C   UNL     1     -44.591  60.165 -59.824  1.00  0.00     0.236 C 
HETATM   20  C   UNL     1     -43.178  60.698 -59.916  1.00  0.00     0.029 C 
HETATM   21  C   UNL     1     -42.939  61.426 -58.605  1.00  0.00     0.029 C 
HETATM   22  C   UNL     1     -44.007  60.950 -57.632  1.00  0.00     0.236 C 
ENDBRANCH   8  17
ENDBRANCH   7   8
ENDBRANCH   1   7
BRANCH   3  23
HETATM   23  C   UNL     1     -42.601  56.160 -53.150  1.00  0.00     0.149 C 
HETATM   24  C   UNL     1     -42.908  55.603 -51.718  1.00  0.00     0.149 C 
HETATM   25  C   UNL     1     -42.791  54.071 -51.820  1.00  0.00     0.073 C 
HETATM   26  C   UNL     1     -41.787  53.922 -52.920  1.00  0.00    -0.047 A 
HETATM   27  C   UNL     1     -41.664  55.103 -53.663  1.00  0.00    -0.026 A 
HETATM   28  C   UNL     1     -41.062  52.789 -53.252  1.00  0.00     0.008 A 
HETATM   29  C   UNL     1     -40.807  55.176 -54.750  1.00  0.00     0.010 A 
HETATM   30  C   UNL     1     -40.062  54.042 -55.082  1.00  0.00     0.001 A 
HETATM   31  C   UNL     1     -40.189  52.858 -54.340  1.00  0.00     0.001 A 
BRANCH  24  32
HETATM   32  O   UNL     1     -44.185  55.979 -51.207  1.00  0.00    -0.393 OA
HETATM   33  H   UNL     1     -44.474  55.245 -50.632  1.00  0.00     0.210 HD
ENDBRANCH  24  32
ENDBRANCH   3  23
TORSDOF 7
ENDMDL
MODEL 10
REMARK VINA RESULT:      -7.6      3.405      8.256
REMARK  7 active torsions:
REMARK  status: ('A' for Active; 'I' for Inactive)
REMARK    1  A    between atoms: O_2  and  C_3 
REMARK    2  A    between atoms: C_5  and  C_6 
REMARK    3  A    between atoms: C_6  and  N_7 
REMARK    4  A    between atoms: C_6  and  C_13 
REMARK    5  A    between atoms: C_13  and  N_14 
REMARK       I    between atoms: N_14  and  C_15 
REMARK       I    between atoms: C_15  and  N_16 
REMARK    6  A    between atoms: N_16  and  C_17 
REMARK    7  A    between atoms: C_18  and  O_19 
ROOT
HETATM    1  N   UNL     1     -43.632  55.392 -51.851  1.00  0.00    -0.341 N 
HETATM    2  C   UNL     1     -42.274  55.332 -51.946  1.00  0.00     0.316 C 
HETATM    3  N   UNL     1     -41.812  54.077 -52.179  1.00  0.00    -0.332 N 
HETATM    4  O   UNL     1     -41.564  56.327 -51.838  1.00  0.00    -0.247 OA
HETATM    5  H   UNL     1     -44.109  54.498 -51.855  1.00  0.00     0.164 HD
HETATM    6  H   UNL     1     -42.415  53.299 -51.957  1.00  0.00     0.165 HD
ENDROOT
BRANCH   1   7
HETATM    7  C   UNL     1     -44.345  56.502 -51.224  1.00  0.00     0.162 C 
BRANCH   7   8
HETATM    8  C   UNL     1     -44.674  57.728 -52.141  1.00  0.00     0.238 C 
BRANCH   8   9
HETATM    9  C   UNL     1     -44.302  59.059 -51.506  1.00  0.00    -0.023 A 
HETATM   10  C   UNL     1     -42.962  59.317 -51.168  1.00  0.00     0.046 A 
HETATM   11  C   UNL     1     -42.577  60.511 -50.549  1.00  0.00     0.068 A 
HETATM   12  C   UNL     1     -43.540  61.477 -50.271  1.00  0.00     0.037 A 
HETATM   13  C   UNL     1     -44.874  61.247 -50.608  1.00  0.00     0.003 A 
HETATM   14  C   UNL     1     -45.254  60.051 -51.217  1.00  0.00     0.009 A 
BRANCH  11  15
HETATM   15  O   UNL     1     -41.242  60.598 -50.270  1.00  0.00    -0.356 OA
HETATM   16  C   UNL     1     -40.519  59.374 -50.187  1.00  0.00     0.210 C 
ENDBRANCH  11  15
ENDBRANCH   8   9
BRANCH   8  17
HETATM   17  N   UNL     1     -44.101  57.531 -53.544  1.00  0.00    -0.061 N 
HETATM   18  H   UNL     1     -43.357  56.816 -53.413  1.00  0.00     0.280 HD
HETATM   19  C   UNL     1     -43.418  58.691 -54.205  1.00  0.00     0.236 C 
HETATM   20  C   UNL     1     -44.463  59.271 -55.131  1.00  0.00     0.029 C 
HETATM   21  C   UNL     1     -45.322  58.092 -55.554  1.00  0.00     0.029 C 
HETATM   22  C   UNL     1     -45.051  56.969 -54.565  1.00  0.00     0.236 C 
ENDBRANCH   8  17
ENDBRANCH   7   8
ENDBRANCH   1   7
BRANCH   3  23
HETATM   23  C   UNL     1     -40.387  53.771 -52.175  1.00  0.00     0.149 C 
HETATM   24  C   UNL     1     -39.785  53.535 -50.748  1.00  0.00     0.149 C 
HETATM   25  C   UNL     1     -39.974  52.037 -50.445  1.00  0.00     0.073 C 
HETATM   26  C   UNL     1     -39.935  51.448 -51.820  1.00  0.00    -0.047 A 
HETATM   27  C   UNL     1     -40.152  52.426 -52.801  1.00  0.00    -0.026 A 
HETATM   28  C   UNL     1     -39.756  50.118 -52.163  1.00  0.00     0.008 A 
HETATM   29  C   UNL     1     -40.185  52.091 -54.145  1.00  0.00     0.010 A 
HETATM   30  C   UNL     1     -39.991  50.755 -54.500  1.00  0.00     0.001 A 
HETATM   31  C   UNL     1     -39.779  49.775 -53.517  1.00  0.00     0.001 A 
BRANCH  24  32
HETATM   32  O   UNL     1     -40.373  54.335 -49.725  1.00  0.00    -0.393 OA
HETATM   33  H   UNL     1     -39.895  54.119 -48.902  1.00  0.00     0.210 HD
ENDBRANCH  24  32
ENDBRANCH   3  23
TORSDOF 7
ENDMDL
