MODEL 1
REMARK VINA RESULT:      -8.6      0.000      0.000
REMARK  6 active torsions:
REMARK  status: ('A' for Active; 'I' for Inactive)
REMARK    1  A    between atoms: C_2  and  N_3 
REMARK    2  A    between atoms: C_2  and  C_15 
REMARK    3  A    between atoms: C_5  and  C_6 
REMARK       I    between atoms: C_15  and  N_16 
REMARK    4  A    between atoms: N_16  and  C_17 
REMARK    5  A    between atoms: C_20  and  O_21 
REMARK    6  A    between atoms: O_21  and  C_22 
ROOT
HETATM    1  C   UNL     1     -43.387  58.302 -51.397  1.00  0.00     0.253 C 
HETATM    2  N   UNL     1     -43.436  57.184 -50.589  1.00  0.00    -0.325 N 
HETATM    3  O   UNL     1     -42.554  58.535 -52.271  1.00  0.00    -0.271 OA
HETATM    4  H   UNL     1     -44.198  57.089 -49.927  1.00  0.00     0.169 HD
ENDROOT
BRANCH   1   5
HETATM    5  C   UNL     1     -44.545  59.315 -51.211  1.00  0.00     0.276 C 
HETATM    6  C   UNL     1     -45.909  58.658 -51.039  1.00  0.00     0.050 C 
BRANCH   5   7
HETATM    7  N   UNL     1     -44.232  60.279 -50.048  1.00  0.00    -0.049 N 
HETATM    8  H   UNL     1     -44.296  59.673 -49.212  1.00  0.00     0.281 HD
HETATM    9  C   UNL     1     -45.236  61.377 -49.757  1.00  0.00     0.238 C 
HETATM   10  C   UNL     1     -44.607  62.605 -50.415  1.00  0.00     0.041 C 
HETATM   11  C   UNL     1     -43.101  62.377 -50.404  1.00  0.00     0.030 C 
HETATM   12  C   UNL     1     -42.874  60.911 -50.080  1.00  0.00     0.237 C 
BRANCH   9  13
HETATM   13  C   UNL     1     -45.426  61.543 -48.274  1.00  0.00     0.042 A 
HETATM   14  N   UNL     1     -46.448  62.276 -47.691  1.00  0.00    -0.363 N 
HETATM   15  C   UNL     1     -47.506  63.034 -48.329  1.00  0.00     0.155 C 
HETATM   16  C   UNL     1     -46.343  62.203 -46.323  1.00  0.00     0.090 A 
HETATM   17  C   UNL     1     -45.242  61.451 -46.006  1.00  0.00     0.019 A 
HETATM   18  C   UNL     1     -44.664  61.038 -47.223  1.00  0.00     0.028 A 
ENDBRANCH   9  13
ENDBRANCH   5   7
ENDBRANCH   1   5
BRANCH   2  19
HETATM   19  C   UNL     1     -42.539  56.089 -50.593  1.00  0.00     0.035 A 
HETATM   20  C   UNL     1     -41.228  56.146 -50.117  1.00  0.00     0.032 A 
HETATM   21  C   UNL     1     -40.400  55.020 -50.186  1.00  0.00     0.039 A 
HETATM   22  C   UNL     1     -40.874  53.821 -50.717  1.00  0.00     0.076 A 
HETATM   23  C   UNL     1     -42.179  53.756 -51.202  1.00  0.00     0.039 A 
HETATM   24  C   UNL     1     -43.008  54.883 -51.133  1.00  0.00     0.032 A 
BRANCH  22  25
HETATM   25  O   UNL     1     -39.959  52.796 -50.792  1.00  0.00    -0.311 OA
BRANCH  25  26
HETATM   26  C   UNL     1     -39.914  52.048 -51.942  1.00  0.00     0.076 A 
HETATM   27  C   UNL     1     -39.598  50.695 -51.823  1.00  0.00     0.037 A 
HETATM   28  C   UNL     1     -39.593  49.882 -52.955  1.00  0.00     0.003 A 
HETATM   29  C   UNL     1     -39.921  50.420 -54.201  1.00  0.00     0.000 A 
HETATM   30  C   UNL     1     -40.262  51.770 -54.313  1.00  0.00     0.003 A 
HETATM   31  C   UNL     1     -40.268  52.585 -53.182  1.00  0.00     0.037 A 
ENDBRANCH  25  26
ENDBRANCH  22  25
ENDBRANCH   2  19
TORSDOF 6
ENDMDL
MODEL 2
REMARK VINA RESULT:      -8.4      5.900      7.834
REMARK  6 active torsions:
REMARK  status: ('A' for Active; 'I' for Inactive)
REMARK    1  A    between atoms: C_2  and  N_3 
REMARK    2  A    between atoms: C_2  and  C_15 
REMARK    3  A    between atoms: C_5  and  C_6 
REMARK       I    between atoms: C_15  and  N_16 
REMARK    4  A    between atoms: N_16  and  C_17 
REMARK    5  A    between atoms: C_20  and  O_21 
REMARK    6  A    between atoms: O_21  and  C_22 
ROOT
HETATM    1  C   UNL     1     -43.717  57.421 -55.834  1.00  0.00     0.253 C 
HETATM    2  N   UNL     1     -43.619  56.051 -55.696  1.00  0.00    -0.325 N 
HETATM    3  O   UNL     1     -43.071  58.266 -55.215  1.00  0.00    -0.271 OA
HETATM    4  H   UNL     1     -44.182  55.455 -56.292  1.00  0.00     0.169 HD
ENDROOT
BRANCH   1   5
HETATM    5  C   UNL     1     -44.697  57.916 -56.928  1.00  0.00     0.276 C 
HETATM    6  C   UNL     1     -45.488  59.153 -56.522  1.00  0.00     0.050 C 
BRANCH   5   7
HETATM    7  N   UNL     1     -43.948  58.136 -58.258  1.00  0.00    -0.049 N 
HETATM    8  H   UNL     1     -43.024  58.493 -57.956  1.00  0.00     0.281 HD
HETATM    9  C   UNL     1     -44.458  59.227 -59.179  1.00  0.00     0.238 C 
HETATM   10  C   UNL     1     -45.263  58.453 -60.222  1.00  0.00     0.041 C 
HETATM   11  C   UNL     1     -44.644  57.064 -60.302  1.00  0.00     0.030 C 
HETATM   12  C   UNL     1     -43.738  56.909 -59.092  1.00  0.00     0.237 C 
BRANCH   9  13
HETATM   13  C   UNL     1     -43.310  59.994 -59.778  1.00  0.00     0.042 A 
HETATM   14  N   UNL     1     -42.490  60.859 -59.071  1.00  0.00    -0.363 N 
HETATM   15  C   UNL     1     -42.546  61.231 -57.671  1.00  0.00     0.155 C 
HETATM   16  C   UNL     1     -41.532  61.374 -59.911  1.00  0.00     0.090 A 
HETATM   17  C   UNL     1     -41.738  60.874 -61.170  1.00  0.00     0.019 A 
HETATM   18  C   UNL     1     -42.850  60.012 -61.092  1.00  0.00     0.028 A 
ENDBRANCH   9  13
ENDBRANCH   5   7
ENDBRANCH   1   5
BRANCH   2  19
HETATM   19  C   UNL     1     -42.767  55.342 -54.814  1.00  0.00     0.035 A 
HETATM   20  C   UNL     1     -43.194  54.723 -53.638  1.00  0.00     0.032 A 
HETATM   21  C   UNL     1     -42.276  54.067 -52.811  1.00  0.00     0.039 A 
HETATM   22  C   UNL     1     -40.925  54.007 -53.153  1.00  0.00     0.076 A 
HETATM   23  C   UNL     1     -40.489  54.629 -54.322  1.00  0.00     0.039 A 
HETATM   24  C   UNL     1     -41.407  55.285 -55.151  1.00  0.00     0.032 A 
BRANCH  22  25
HETATM   25  O   UNL     1     -40.103  53.389 -52.240  1.00  0.00    -0.311 OA
BRANCH  25  26
HETATM   26  C   UNL     1     -39.875  52.042 -52.379  1.00  0.00     0.076 A 
HETATM   27  C   UNL     1     -39.726  51.287 -51.215  1.00  0.00     0.037 A 
HETATM   28  C   UNL     1     -39.547  49.907 -51.303  1.00  0.00     0.003 A 
HETATM   29  C   UNL     1     -39.536  49.284 -52.552  1.00  0.00     0.000 A 
HETATM   30  C   UNL     1     -39.711  50.039 -53.714  1.00  0.00     0.003 A 
HETATM   31  C   UNL     1     -39.890  51.420 -53.629  1.00  0.00     0.037 A 
ENDBRANCH  25  26
ENDBRANCH  22  25
ENDBRANCH   2  19
TORSDOF 6
ENDMDL
MODEL 3
REMARK VINA RESULT:      -8.4      5.429      7.964
REMARK  6 active torsions:
REMARK  status: ('A' for Active; 'I' for Inactive)
REMARK    1  A    between atoms: C_2  and  N_3 
REMARK    2  A    between atoms: C_2  and  C_15 
REMARK    3  A    between atoms: C_5  and  C_6 
REMARK       I    between atoms: C_15  and  N_16 
REMARK    4  A    between atoms: N_16  and  C_17 
REMARK    5  A    between atoms: C_20  and  O_21 
REMARK    6  A    between atoms: O_21  and  C_22 
ROOT
HETATM    1  C   UNL     1     -44.412  57.949 -55.119  1.00  0.00     0.253 C 
HETATM    2  N   UNL     1     -43.520  56.981 -55.534  1.00  0.00    -0.325 N 
HETATM    3  O   UNL     1     -44.727  58.202 -53.957  1.00  0.00    -0.271 OA
HETATM    4  H   UNL     1     -43.314  56.894 -56.523  1.00  0.00     0.169 HD
ENDROOT
BRANCH   1   5
HETATM    5  C   UNL     1     -45.010  58.836 -56.241  1.00  0.00     0.276 C 
HETATM    6  C   UNL     1     -44.008  59.810 -56.847  1.00  0.00     0.050 C 
BRANCH   5   7
HETATM    7  N   UNL     1     -45.669  57.957 -57.324  1.00  0.00    -0.049 N 
HETATM    8  H   UNL     1     -45.378  56.999 -57.064  1.00  0.00     0.281 HD
HETATM    9  C   UNL     1     -45.165  58.100 -58.746  1.00  0.00     0.238 C 
HETATM   10  C   UNL     1     -46.216  58.995 -59.400  1.00  0.00     0.041 C 
HETATM   11  C   UNL     1     -47.520  58.748 -58.651  1.00  0.00     0.030 C 
HETATM   12  C   UNL     1     -47.166  58.007 -57.373  1.00  0.00     0.237 C 
BRANCH   9  13
HETATM   13  C   UNL     1     -45.053  56.752 -59.407  1.00  0.00     0.042 A 
HETATM   14  N   UNL     1     -43.957  55.912 -59.295  1.00  0.00    -0.363 N 
HETATM   15  C   UNL     1     -42.715  56.122 -58.577  1.00  0.00     0.155 C 
HETATM   16  C   UNL     1     -44.189  54.756 -60.001  1.00  0.00     0.090 A 
HETATM   17  C   UNL     1     -45.419  54.846 -60.597  1.00  0.00     0.019 A 
HETATM   18  C   UNL     1     -45.963  56.094 -60.230  1.00  0.00     0.028 A 
ENDBRANCH   9  13
ENDBRANCH   5   7
ENDBRANCH   1   5
BRANCH   2  19
HETATM   19  C   UNL     1     -42.797  56.080 -54.715  1.00  0.00     0.035 A 
HETATM   20  C   UNL     1     -43.388  55.130 -53.882  1.00  0.00     0.032 A 
HETATM   21  C   UNL     1     -42.596  54.297 -53.084  1.00  0.00     0.039 A 
HETATM   22  C   UNL     1     -41.205  54.394 -53.118  1.00  0.00     0.076 A 
HETATM   23  C   UNL     1     -40.605  55.345 -53.942  1.00  0.00     0.039 A 
HETATM   24  C   UNL     1     -41.398  56.178 -54.741  1.00  0.00     0.032 A 
BRANCH  22  25
HETATM   25  O   UNL     1     -40.526  53.569 -52.250  1.00  0.00    -0.311 OA
BRANCH  25  26
HETATM   26  C   UNL     1     -40.199  52.305 -52.677  1.00  0.00     0.076 A 
HETATM   27  C   UNL     1     -39.786  51.383 -51.716  1.00  0.00     0.037 A 
HETATM   28  C   UNL     1     -39.495  50.073 -52.093  1.00  0.00     0.003 A 
HETATM   29  C   UNL     1     -39.634  49.684 -53.426  1.00  0.00     0.000 A 
HETATM   30  C   UNL     1     -40.073  50.603 -54.382  1.00  0.00     0.003 A 
HETATM   31  C   UNL     1     -40.365  51.915 -54.008  1.00  0.00     0.037 A 
ENDBRANCH  25  26
ENDBRANCH  22  25
ENDBRANCH   2  19
TORSDOF 6
ENDMDL
MODEL 4
REMARK VINA RESULT:      -7.9      5.568      9.169
REMARK  6 active torsions:
REMARK  status: ('A' for Active; 'I' for Inactive)
REMARK    1  A    between atoms: C_2  and  N_3 
REMARK    2  A    between atoms: C_2  and  C_15 
REMARK    3  A    between atoms: C_5  and  C_6 
REMARK       I    between atoms: C_15  and  N_16 
REMARK    4  A    between atoms: N_16  and  C_17 
REMARK    5  A    between atoms: C_20  and  O_21 
REMARK    6  A    between atoms: O_21  and  C_22 
ROOT
HETATM    1  C   UNL     1     -41.270  56.823 -53.599  1.00  0.00     0.253 C 
HETATM    2  N   UNL     1     -42.412  57.206 -54.273  1.00  0.00    -0.325 N 
HETATM    3  O   UNL     1     -40.210  56.457 -54.106  1.00  0.00    -0.271 OA
HETATM    4  H   UNL     1     -43.214  57.523 -53.741  1.00  0.00     0.169 HD
ENDROOT
BRANCH   1   5
HETATM    5  C   UNL     1     -41.332  56.937 -52.054  1.00  0.00     0.276 C 
HETATM    6  C   UNL     1     -42.520  57.749 -51.552  1.00  0.00     0.050 C 
BRANCH   5   7
HETATM    7  N   UNL     1     -41.293  55.536 -51.411  1.00  0.00    -0.049 N 
HETATM    8  H   UNL     1     -40.280  55.348 -51.309  1.00  0.00     0.281 HD
HETATM    9  C   UNL     1     -41.781  54.367 -52.243  1.00  0.00     0.238 C 
HETATM   10  C   UNL     1     -43.195  54.131 -51.715  1.00  0.00     0.041 C 
HETATM   11  C   UNL     1     -43.201  54.607 -50.268  1.00  0.00     0.030 C 
HETATM   12  C   UNL     1     -41.938  55.426 -50.063  1.00  0.00     0.237 C 
BRANCH   9  13
HETATM   13  C   UNL     1     -40.883  53.174 -52.060  1.00  0.00     0.042 A 
HETATM   14  N   UNL     1     -40.227  52.519 -53.091  1.00  0.00    -0.363 N 
HETATM   15  C   UNL     1     -40.263  52.793 -54.514  1.00  0.00     0.155 C 
HETATM   16  C   UNL     1     -39.475  51.490 -52.578  1.00  0.00     0.090 A 
HETATM   17  C   UNL     1     -39.655  51.450 -51.220  1.00  0.00     0.019 A 
HETATM   18  C   UNL     1     -40.536  52.500 -50.892  1.00  0.00     0.028 A 
ENDBRANCH   9  13
ENDBRANCH   5   7
ENDBRANCH   1   5
BRANCH   2  19
HETATM   19  C   UNL     1     -42.600  57.247 -55.675  1.00  0.00     0.035 A 
HETATM   20  C   UNL     1     -42.523  58.409 -56.444  1.00  0.00     0.032 A 
HETATM   21  C   UNL     1     -42.751  58.361 -57.824  1.00  0.00     0.039 A 
HETATM   22  C   UNL     1     -43.045  57.153 -58.455  1.00  0.00     0.076 A 
HETATM   23  C   UNL     1     -43.132  55.988 -57.694  1.00  0.00     0.039 A 
HETATM   24  C   UNL     1     -42.902  56.035 -56.313  1.00  0.00     0.032 A 
BRANCH  22  25
HETATM   25  O   UNL     1     -43.310  57.230 -59.803  1.00  0.00    -0.311 OA
BRANCH  25  26
HETATM   26  C   UNL     1     -44.615  57.117 -60.216  1.00  0.00     0.076 A 
HETATM   27  C   UNL     1     -45.046  55.870 -60.669  1.00  0.00     0.037 A 
HETATM   28  C   UNL     1     -46.376  55.692 -61.047  1.00  0.00     0.003 A 
HETATM   29  C   UNL     1     -47.274  56.756 -60.955  1.00  0.00     0.000 A 
HETATM   30  C   UNL     1     -46.846  57.996 -60.477  1.00  0.00     0.003 A 
HETATM   31  C   UNL     1     -45.516  58.177 -60.098  1.00  0.00     0.037 A 
ENDBRANCH  25  26
ENDBRANCH  22  25
ENDBRANCH   2  19
TORSDOF 6
ENDMDL
MODEL 5
REMARK VINA RESULT:      -7.8      5.673      9.302
REMARK  6 active torsions:
REMARK  status: ('A' for Active; 'I' for Inactive)
REMARK    1  A    between atoms: C_2  and  N_3 
REMARK    2  A    between atoms: C_2  and  C_15 
REMARK    3  A    between atoms: C_5  and  C_6 
REMARK       I    between atoms: C_15  and  N_16 
REMARK    4  A    between atoms: N_16  and  C_17 
REMARK    5  A    between atoms: C_20  and  O_21 
REMARK    6  A    between atoms: O_21  and  C_22 
ROOT
HETATM    1  C   UNL     1     -42.370  57.183 -53.641  1.00  0.00     0.253 C 
HETATM    2  N   UNL     1     -43.429  56.716 -54.393  1.00  0.00    -0.325 N 
HETATM    3  O   UNL     1     -41.383  57.784 -54.063  1.00  0.00    -0.271 OA
HETATM    4  H   UNL     1     -44.206  56.266 -53.923  1.00  0.00     0.169 HD
ENDROOT
BRANCH   1   5
HETATM    5  C   UNL     1     -42.493  56.977 -52.110  1.00  0.00     0.276 C 
HETATM    6  C   UNL     1     -43.916  56.695 -51.645  1.00  0.00     0.050 C 
BRANCH   5   7
HETATM    7  N   UNL     1     -41.517  55.880 -51.637  1.00  0.00    -0.049 N 
HETATM    8  H   UNL     1     -40.888  55.753 -52.450  1.00  0.00     0.281 HD
HETATM    9  C   UNL     1     -42.078  54.490 -51.412  1.00  0.00     0.238 C 
HETATM   10  C   UNL     1     -42.254  54.427 -49.895  1.00  0.00     0.041 C 
HETATM   11  C   UNL     1     -41.213  55.368 -49.301  1.00  0.00     0.030 C 
HETATM   12  C   UNL     1     -40.687  56.227 -50.438  1.00  0.00     0.237 C 
BRANCH   9  13
HETATM   13  C   UNL     1     -41.130  53.444 -51.933  1.00  0.00     0.042 A 
HETATM   14  N   UNL     1     -41.046  53.053 -53.260  1.00  0.00    -0.363 N 
HETATM   15  C   UNL     1     -41.819  53.512 -54.398  1.00  0.00     0.155 C 
HETATM   16  C   UNL     1     -40.067  52.099 -53.398  1.00  0.00     0.090 A 
HETATM   17  C   UNL     1     -39.529  51.842 -52.164  1.00  0.00     0.019 A 
HETATM   18  C   UNL     1     -40.192  52.680 -51.245  1.00  0.00     0.028 A 
ENDBRANCH   9  13
ENDBRANCH   5   7
ENDBRANCH   1   5
BRANCH   2  19
HETATM   19  C   UNL     1     -43.591  56.824 -55.796  1.00  0.00     0.035 A 
HETATM   20  C   UNL     1     -42.942  56.010 -56.726  1.00  0.00     0.032 A 
HETATM   21  C   UNL     1     -43.141  56.206 -58.097  1.00  0.00     0.039 A 
HETATM   22  C   UNL     1     -43.999  57.205 -58.556  1.00  0.00     0.076 A 
HETATM   23  C   UNL     1     -44.645  58.027 -57.635  1.00  0.00     0.039 A 
HETATM   24  C   UNL     1     -44.448  57.831 -56.263  1.00  0.00     0.032 A 
BRANCH  22  25
HETATM   25  O   UNL     1     -44.073  57.348 -59.923  1.00  0.00    -0.311 OA
BRANCH  25  26
HETATM   26  C   UNL     1     -43.594  58.508 -60.481  1.00  0.00     0.076 A 
HETATM   27  C   UNL     1     -44.525  59.458 -60.900  1.00  0.00     0.037 A 
HETATM   28  C   UNL     1     -44.087  60.674 -61.423  1.00  0.00     0.003 A 
HETATM   29  C   UNL     1     -42.719  60.942 -61.511  1.00  0.00     0.000 A 
HETATM   30  C   UNL     1     -41.790  59.998 -61.068  1.00  0.00     0.003 A 
HETATM   31  C   UNL     1     -42.226  58.781 -60.543  1.00  0.00     0.037 A 
ENDBRANCH  25  26
ENDBRANCH  22  25
ENDBRANCH   2  19
TORSDOF 6
ENDMDL
MODEL 6
REMARK VINA RESULT:      -7.8      6.156      8.550
REMARK  6 active torsions:
REMARK  status: ('A' for Active; 'I' for Inactive)
REMARK    1  A    between atoms: C_2  and  N_3 
REMARK    2  A    between atoms: C_2  and  C_15 
REMARK    3  A    between atoms: C_5  and  C_6 
REMARK       I    between atoms: C_15  and  N_16 
REMARK    4  A    between atoms: N_16  and  C_17 
REMARK    5  A    between atoms: C_20  and  O_21 
REMARK    6  A    between atoms: O_21  and  C_22 
ROOT
HETATM    1  C   UNL     1     -42.705  58.836 -56.498  1.00  0.00     0.253 C 
HETATM    2  N   UNL     1     -43.433  57.675 -56.331  1.00  0.00    -0.325 N 
HETATM    3  O   UNL     1     -41.789  59.234 -55.778  1.00  0.00    -0.271 OA
HETATM    4  H   UNL     1     -44.142  57.437 -57.016  1.00  0.00     0.169 HD
ENDROOT
BRANCH   1   5
HETATM    5  C   UNL     1     -43.049  59.668 -57.759  1.00  0.00     0.276 C 
HETATM    6  C   UNL     1     -41.940  59.676 -58.805  1.00  0.00     0.050 C 
BRANCH   5   7
HETATM    7  N   UNL     1     -44.389  59.200 -58.361  1.00  0.00    -0.049 N 
HETATM    8  H   UNL     1     -44.547  58.282 -57.909  1.00  0.00     0.281 HD
HETATM    9  C   UNL     1     -44.417  58.867 -59.840  1.00  0.00     0.238 C 
HETATM   10  C   UNL     1     -45.031  60.119 -60.467  1.00  0.00     0.041 C 
HETATM   11  C   UNL     1     -45.924  60.741 -59.401  1.00  0.00     0.030 C 
HETATM   12  C   UNL     1     -45.567  60.082 -58.080  1.00  0.00     0.237 C 
BRANCH   9  13
HETATM   13  C   UNL     1     -45.234  57.629 -60.090  1.00  0.00     0.042 A 
HETATM   14  N   UNL     1     -44.738  56.336 -60.029  1.00  0.00    -0.363 N 
HETATM   15  C   UNL     1     -43.387  55.889 -59.749  1.00  0.00     0.155 C 
HETATM   16  C   UNL     1     -45.749  55.442 -60.286  1.00  0.00     0.090 A 
HETATM   17  C   UNL     1     -46.898  56.143 -60.544  1.00  0.00     0.019 A 
HETATM   18  C   UNL     1     -46.580  57.511 -60.424  1.00  0.00     0.028 A 
ENDBRANCH   9  13
ENDBRANCH   5   7
ENDBRANCH   1   5
BRANCH   2  19
HETATM   19  C   UNL     1     -43.283  56.716 -55.301  1.00  0.00     0.035 A 
HETATM   20  C   UNL     1     -42.735  55.445 -55.484  1.00  0.00     0.032 A 
HETATM   21  C   UNL     1     -42.651  54.549 -54.412  1.00  0.00     0.039 A 
HETATM   22  C   UNL     1     -43.101  54.914 -53.144  1.00  0.00     0.076 A 
HETATM   23  C   UNL     1     -43.657  56.178 -52.953  1.00  0.00     0.039 A 
HETATM   24  C   UNL     1     -43.740  57.075 -54.025  1.00  0.00     0.032 A 
BRANCH  22  25
HETATM   25  O   UNL     1     -43.026  53.937 -52.178  1.00  0.00    -0.311 OA
BRANCH  25  26
HETATM   26  C   UNL     1     -42.030  54.029 -51.237  1.00  0.00     0.076 A 
HETATM   27  C   UNL     1     -40.798  53.449 -51.539  1.00  0.00     0.037 A 
HETATM   28  C   UNL     1     -39.739  53.563 -50.639  1.00  0.00     0.003 A 
HETATM   29  C   UNL     1     -39.911  54.270 -49.448  1.00  0.00     0.000 A 
HETATM   30  C   UNL     1     -41.138  54.871 -49.160  1.00  0.00     0.003 A 
HETATM   31  C   UNL     1     -42.198  54.759 -50.059  1.00  0.00     0.037 A 
ENDBRANCH  25  26
ENDBRANCH  22  25
ENDBRANCH   2  19
TORSDOF 6
ENDMDL
MODEL 7
REMARK VINA RESULT:      -7.7     17.910     21.419
REMARK  6 active torsions:
REMARK  status: ('A' for Active; 'I' for Inactive)
REMARK    1  A    between atoms: C_2  and  N_3 
REMARK    2  A    between atoms: C_2  and  C_15 
REMARK    3  A    between atoms: C_5  and  C_6 
REMARK       I    between atoms: C_15  and  N_16 
REMARK    4  A    between atoms: N_16  and  C_17 
REMARK    5  A    between atoms: C_20  and  O_21 
REMARK    6  A    between atoms: O_21  and  C_22 
ROOT
HETATM    1  C   UNL     1     -37.894  40.871 -57.237  1.00  0.00     0.253 C 
HETATM    2  N   UNL     1     -36.613  40.861 -56.722  1.00  0.00    -0.325 N 
HETATM    3  O   UNL     1     -38.939  40.952 -56.593  1.00  0.00    -0.271 OA
HETATM    4  H   UNL     1     -35.826  40.827 -57.360  1.00  0.00     0.169 HD
ENDROOT
BRANCH   1   5
HETATM    5  C   UNL     1     -37.994  40.844 -58.783  1.00  0.00     0.276 C 
HETATM    6  C   UNL     1     -37.281  42.007 -59.460  1.00  0.00     0.050 C 
BRANCH   5   7
HETATM    7  N   UNL     1     -37.505  39.487 -59.329  1.00  0.00    -0.049 N 
HETATM    8  H   UNL     1     -36.484  39.515 -59.160  1.00  0.00     0.281 HD
HETATM    9  C   UNL     1     -37.603  39.254 -60.823  1.00  0.00     0.238 C 
HETATM   10  C   UNL     1     -38.865  38.402 -60.961  1.00  0.00     0.041 C 
HETATM   11  C   UNL     1     -39.008  37.631 -59.655  1.00  0.00     0.030 C 
HETATM   12  C   UNL     1     -38.070  38.276 -58.650  1.00  0.00     0.237 C 
BRANCH   9  13
HETATM   13  C   UNL     1     -36.371  38.559 -61.334  1.00  0.00     0.042 A 
HETATM   14  N   UNL     1     -36.173  38.179 -62.653  1.00  0.00    -0.363 N 
HETATM   15  C   UNL     1     -37.061  38.329 -63.788  1.00  0.00     0.155 C 
HETATM   16  C   UNL     1     -34.938  37.592 -62.783  1.00  0.00     0.090 A 
HETATM   17  C   UNL     1     -34.337  37.558 -61.551  1.00  0.00     0.019 A 
HETATM   18  C   UNL     1     -35.230  38.161 -60.642  1.00  0.00     0.028 A 
ENDBRANCH   9  13
ENDBRANCH   5   7
ENDBRANCH   1   5
BRANCH   2  19
HETATM   19  C   UNL     1     -36.243  40.931 -55.357  1.00  0.00     0.035 A 
HETATM   20  C   UNL     1     -36.111  39.822 -54.521  1.00  0.00     0.032 A 
HETATM   21  C   UNL     1     -35.767  39.987 -53.174  1.00  0.00     0.039 A 
HETATM   22  C   UNL     1     -35.538  41.259 -52.650  1.00  0.00     0.076 A 
HETATM   23  C   UNL     1     -35.674  42.374 -53.476  1.00  0.00     0.039 A 
HETATM   24  C   UNL     1     -36.017  42.209 -54.823  1.00  0.00     0.032 A 
BRANCH  22  25
HETATM   25  O   UNL     1     -35.265  41.311 -51.302  1.00  0.00    -0.311 OA
BRANCH  25  26
HETATM   26  C   UNL     1     -34.143  40.666 -50.842  1.00  0.00     0.076 A 
HETATM   27  C   UNL     1     -34.312  39.700 -49.850  1.00  0.00     0.037 A 
HETATM   28  C   UNL     1     -33.211  38.980 -49.389  1.00  0.00     0.003 A 
HETATM   29  C   UNL     1     -31.948  39.216 -49.933  1.00  0.00     0.000 A 
HETATM   30  C   UNL     1     -31.786  40.165 -50.944  1.00  0.00     0.003 A 
HETATM   31  C   UNL     1     -32.886  40.886 -51.408  1.00  0.00     0.037 A 
ENDBRANCH  25  26
ENDBRANCH  22  25
ENDBRANCH   2  19
TORSDOF 6
ENDMDL
MODEL 8
REMARK VINA RESULT:      -7.7      3.324      5.665
REMARK  6 active torsions:
REMARK  status: ('A' for Active; 'I' for Inactive)
REMARK    1  A    between atoms: C_2  and  N_3 
REMARK    2  A    between atoms: C_2  and  C_15 
REMARK    3  A    between atoms: C_5  and  C_6 
REMARK       I    between atoms: C_15  and  N_16 
REMARK    4  A    between atoms: N_16  and  C_17 
REMARK    5  A    between atoms: C_20  and  O_21 
REMARK    6  A    between atoms: O_21  and  C_22 
ROOT
HETATM    1  C   UNL     1     -44.225  57.422 -52.984  1.00  0.00     0.253 C 
HETATM    2  N   UNL     1     -43.528  57.352 -51.794  1.00  0.00    -0.325 N 
HETATM    3  O   UNL     1     -44.343  56.522 -53.815  1.00  0.00    -0.271 OA
HETATM    4  H   UNL     1     -43.535  58.153 -51.173  1.00  0.00     0.169 HD
ENDROOT
BRANCH   1   5
HETATM    5  C   UNL     1     -44.977  58.752 -53.244  1.00  0.00     0.276 C 
HETATM    6  C   UNL     1     -45.324  59.514 -51.971  1.00  0.00     0.050 C 
BRANCH   5   7
HETATM    7  N   UNL     1     -44.184  59.632 -54.231  1.00  0.00    -0.049 N 
HETATM    8  H   UNL     1     -44.630  59.430 -55.143  1.00  0.00     0.281 HD
HETATM    9  C   UNL     1     -42.729  59.282 -54.471  1.00  0.00     0.238 C 
HETATM   10  C   UNL     1     -41.981  60.288 -53.596  1.00  0.00     0.041 C 
HETATM   11  C   UNL     1     -42.876  61.516 -53.488  1.00  0.00     0.030 C 
HETATM   12  C   UNL     1     -44.254  61.108 -53.980  1.00  0.00     0.237 C 
BRANCH   9  13
HETATM   13  C   UNL     1     -42.386  59.410 -55.931  1.00  0.00     0.042 A 
HETATM   14  N   UNL     1     -42.310  58.346 -56.815  1.00  0.00    -0.363 N 
HETATM   15  C   UNL     1     -42.506  56.932 -56.561  1.00  0.00     0.155 C 
HETATM   16  C   UNL     1     -41.998  58.811 -58.070  1.00  0.00     0.090 A 
HETATM   17  C   UNL     1     -41.843  60.172 -58.007  1.00  0.00     0.019 A 
HETATM   18  C   UNL     1     -42.083  60.550 -56.670  1.00  0.00     0.028 A 
ENDBRANCH   9  13
ENDBRANCH   5   7
ENDBRANCH   1   5
BRANCH   2  19
HETATM   19  C   UNL     1     -42.805  56.243 -51.294  1.00  0.00     0.035 A 
HETATM   20  C   UNL     1     -43.316  54.947 -51.204  1.00  0.00     0.032 A 
HETATM   21  C   UNL     1     -42.538  53.915 -50.669  1.00  0.00     0.039 A 
HETATM   22  C   UNL     1     -41.237  54.159 -50.230  1.00  0.00     0.076 A 
HETATM   23  C   UNL     1     -40.720  55.451 -50.309  1.00  0.00     0.039 A 
HETATM   24  C   UNL     1     -41.498  56.484 -50.845  1.00  0.00     0.032 A 
BRANCH  22  25
HETATM   25  O   UNL     1     -40.584  53.086 -49.668  1.00  0.00    -0.311 OA
BRANCH  25  26
HETATM   26  C   UNL     1     -40.273  52.020 -50.475  1.00  0.00     0.076 A 
HETATM   27  C   UNL     1     -39.855  52.293 -51.778  1.00  0.00     0.037 A 
HETATM   28  C   UNL     1     -39.476  51.248 -52.618  1.00  0.00     0.003 A 
HETATM   29  C   UNL     1     -39.500  49.933 -52.149  1.00  0.00     0.000 A 
HETATM   30  C   UNL     1     -39.895  49.665 -50.836  1.00  0.00     0.003 A 
HETATM   31  C   UNL     1     -40.274  50.709 -49.993  1.00  0.00     0.037 A 
ENDBRANCH  25  26
ENDBRANCH  22  25
ENDBRANCH   2  19
TORSDOF 6
ENDMDL
MODEL 9
REMARK VINA RESULT:      -7.6      2.450      4.425
REMARK  6 active torsions:
REMARK  status: ('A' for Active; 'I' for Inactive)
REMARK    1  A    between atoms: C_2  and  N_3 
REMARK    2  A    between atoms: C_2  and  C_15 
REMARK    3  A    between atoms: C_5  and  C_6 
REMARK       I    between atoms: C_15  and  N_16 
REMARK    4  A    between atoms: N_16  and  C_17 
REMARK    5  A    between atoms: C_20  and  O_21 
REMARK    6  A    between atoms: O_21  and  C_22 
ROOT
HETATM    1  C   UNL     1     -44.536  57.795 -52.000  1.00  0.00     0.253 C 
HETATM    2  N   UNL     1     -43.801  57.343 -50.923  1.00  0.00    -0.325 N 
HETATM    3  O   UNL     1     -44.565  57.297 -53.125  1.00  0.00    -0.271 OA
HETATM    4  H   UNL     1     -43.889  57.820 -50.032  1.00  0.00     0.169 HD
ENDROOT
BRANCH   1   5
HETATM    5  C   UNL     1     -45.458  59.009 -51.721  1.00  0.00     0.276 C 
HETATM    6  C   UNL     1     -45.564  59.367 -50.244  1.00  0.00     0.050 C 
BRANCH   5   7
HETATM    7  N   UNL     1     -45.016  60.222 -52.565  1.00  0.00    -0.049 N 
HETATM    8  H   UNL     1     -45.350  59.986 -53.516  1.00  0.00     0.281 HD
HETATM    9  C   UNL     1     -43.529  60.436 -52.763  1.00  0.00     0.238 C 
HETATM   10  C   UNL     1     -43.196  61.528 -51.747  1.00  0.00     0.041 C 
HETATM   11  C   UNL     1     -44.469  62.342 -51.557  1.00  0.00     0.030 C 
HETATM   12  C   UNL     1     -45.607  61.539 -52.162  1.00  0.00     0.237 C 
BRANCH   9  13
HETATM   13  C   UNL     1     -43.236  60.848 -54.180  1.00  0.00     0.042 A 
HETATM   14  N   UNL     1     -42.546  60.070 -55.097  1.00  0.00    -0.363 N 
HETATM   15  C   UNL     1     -41.954  58.759 -54.919  1.00  0.00     0.155 C 
HETATM   16  C   UNL     1     -42.474  60.731 -56.299  1.00  0.00     0.090 A 
HETATM   17  C   UNL     1     -43.087  61.950 -56.168  1.00  0.00     0.019 A 
HETATM   18  C   UNL     1     -43.564  62.028 -54.843  1.00  0.00     0.028 A 
ENDBRANCH   9  13
ENDBRANCH   5   7
ENDBRANCH   1   5
BRANCH   2  19
HETATM   19  C   UNL     1     -42.929  56.228 -50.893  1.00  0.00     0.035 A 
HETATM   20  C   UNL     1     -43.351  54.899 -50.946  1.00  0.00     0.032 A 
HETATM   21  C   UNL     1     -42.419  53.857 -50.883  1.00  0.00     0.039 A 
HETATM   22  C   UNL     1     -41.055  54.129 -50.781  1.00  0.00     0.076 A 
HETATM   23  C   UNL     1     -40.624  55.453 -50.720  1.00  0.00     0.039 A 
HETATM   24  C   UNL     1     -41.556  56.496 -50.784  1.00  0.00     0.032 A 
BRANCH  22  25
HETATM   25  O   UNL     1     -40.233  53.031 -50.666  1.00  0.00    -0.311 OA
BRANCH  25  26
HETATM   26  C   UNL     1     -40.048  52.240 -51.774  1.00  0.00     0.076 A 
HETATM   27  C   UNL     1     -39.718  50.901 -51.566  1.00  0.00     0.037 A 
HETATM   28  C   UNL     1     -39.573  50.046 -52.657  1.00  0.00     0.003 A 
HETATM   29  C   UNL     1     -39.775  50.528 -53.952  1.00  0.00     0.000 A 
HETATM   30  C   UNL     1     -40.131  51.863 -54.155  1.00  0.00     0.003 A 
HETATM   31  C   UNL     1     -40.277  52.720 -53.065  1.00  0.00     0.037 A 
ENDBRANCH  25  26
ENDBRANCH  22  25
ENDBRANCH   2  19
TORSDOF 6
ENDMDL
MODEL 10
REMARK VINA RESULT:      -7.5      6.671      8.630
REMARK  6 active torsions:
REMARK  status: ('A' for Active; 'I' for Inactive)
REMARK    1  A    between atoms: C_2  and  N_3 
REMARK    2  A    between atoms: C_2  and  C_15 
REMARK    3  A    between atoms: C_5  and  C_6 
REMARK       I    between atoms: C_15  and  N_16 
REMARK    4  A    between atoms: N_16  and  C_17 
REMARK    5  A    between atoms: C_20  and  O_21 
REMARK    6  A    between atoms: O_21  and  C_22 
ROOT
HETATM    1  C   UNL     1     -42.845  56.801 -57.836  1.00  0.00     0.253 C 
HETATM    2  N   UNL     1     -42.081  56.785 -56.686  1.00  0.00    -0.325 N 
HETATM    3  O   UNL     1     -43.883  56.169 -58.032  1.00  0.00    -0.271 OA
HETATM    4  H   UNL     1     -41.262  57.380 -56.631  1.00  0.00     0.169 HD
ENDROOT
BRANCH   1   5
HETATM    5  C   UNL     1     -42.362  57.766 -58.948  1.00  0.00     0.276 C 
HETATM    6  C   UNL     1     -42.055  57.069 -60.267  1.00  0.00     0.050 C 
BRANCH   5   7
HETATM    7  N   UNL     1     -43.375  58.913 -59.138  1.00  0.00    -0.049 N 
HETATM    8  H   UNL     1     -44.239  58.544 -58.704  1.00  0.00     0.281 HD
HETATM    9  C   UNL     1     -43.809  59.239 -60.553  1.00  0.00     0.238 C 
HETATM   10  C   UNL     1     -42.963  60.463 -60.903  1.00  0.00     0.041 C 
HETATM   11  C   UNL     1     -42.667  61.173 -59.589  1.00  0.00     0.030 C 
HETATM   12  C   UNL     1     -43.018  60.207 -58.471  1.00  0.00     0.237 C 
BRANCH   9  13
HETATM   13  C   UNL     1     -45.287  59.518 -60.604  1.00  0.00     0.042 A 
HETATM   14  N   UNL     1     -46.272  58.547 -60.510  1.00  0.00    -0.363 N 
HETATM   15  C   UNL     1     -46.128  57.111 -60.370  1.00  0.00     0.155 C 
HETATM   16  C   UNL     1     -47.510  59.140 -60.569  1.00  0.00     0.090 A 
HETATM   17  C   UNL     1     -47.342  60.491 -60.730  1.00  0.00     0.019 A 
HETATM   18  C   UNL     1     -45.953  60.731 -60.754  1.00  0.00     0.028 A 
ENDBRANCH   9  13
ENDBRANCH   5   7
ENDBRANCH   1   5
BRANCH   2  19
HETATM   19  C   UNL     1     -42.328  56.039 -55.509  1.00  0.00     0.035 A 
HETATM   20  C   UNL     1     -42.917  56.561 -54.356  1.00  0.00     0.032 A 
HETATM   21  C   UNL     1     -43.098  55.756 -53.226  1.00  0.00     0.039 A 
HETATM   22  C   UNL     1     -42.706  54.417 -53.237  1.00  0.00     0.076 A 
HETATM   23  C   UNL     1     -42.110  53.888 -54.381  1.00  0.00     0.039 A 
HETATM   24  C   UNL     1     -41.930  54.694 -55.512  1.00  0.00     0.032 A 
BRANCH  22  25
HETATM   25  O   UNL     1     -42.876  53.735 -52.054  1.00  0.00    -0.311 OA
BRANCH  25  26
HETATM   26  C   UNL     1     -41.928  53.892 -51.073  1.00  0.00     0.076 A 
HETATM   27  C   UNL     1     -40.677  53.313 -51.281  1.00  0.00     0.037 A 
HETATM   28  C   UNL     1     -39.665  53.490 -50.339  1.00  0.00     0.003 A 
HETATM   29  C   UNL     1     -39.902  54.260 -49.199  1.00  0.00     0.000 A 
HETATM   30  C   UNL     1     -41.148  54.860 -49.005  1.00  0.00     0.003 A 
HETATM   31  C   UNL     1     -42.162  54.684 -49.947  1.00  0.00     0.037 A 
ENDBRANCH  25  26
ENDBRANCH  22  25
ENDBRANCH   2  19
TORSDOF 6
ENDMDL
