MODEL 1
REMARK VINA RESULT:      -7.6      0.000      0.000
REMARK  6 active torsions:
REMARK  status: ('A' for Active; 'I' for Inactive)
REMARK    1  A    between atoms: C_2  and  O_3 
REMARK    2  A    between atoms: O_3  and  C_4 
REMARK    3  A    between atoms: C_8  and  C_9 
REMARK    4  A    between atoms: C_9  and  N_10 
REMARK       I    between atoms: N_10  and  C_11 
REMARK       I    between atoms: C_11  and  N_12 
REMARK    5  A    between atoms: N_12  and  C_13 
REMARK    6  A    between atoms: C_14  and  C_15 
ROOT
HETATM    1  N   UNL     1     -43.379  56.778 -52.495  1.00  0.00    -0.339 N 
HETATM    2  C   UNL     1     -42.960  55.470 -52.493  1.00  0.00     0.316 C 
HETATM    3  N   UNL     1     -42.150  55.200 -51.415  1.00  0.00    -0.338 N 
HETATM    4  O   UNL     1     -43.287  54.646 -53.338  1.00  0.00    -0.247 OA
HETATM    5  H   UNL     1     -43.411  57.231 -51.594  1.00  0.00     0.164 HD
HETATM    6  H   UNL     1     -41.644  55.986 -51.033  1.00  0.00     0.164 HD
ENDROOT
BRANCH   1   7
HETATM    7  C   UNL     1     -44.321  57.252 -53.486  1.00  0.00     0.163 C 
BRANCH   7   8
HETATM    8  C   UNL     1     -43.629  57.756 -54.725  1.00  0.00    -0.035 A 
HETATM    9  C   UNL     1     -43.156  59.069 -54.804  1.00  0.00     0.028 A 
HETATM   10  C   UNL     1     -42.537  59.488 -55.969  1.00  0.00     0.120 A 
HETATM   11  N   UNL     1     -42.372  58.705 -57.056  1.00  0.00    -0.237 NA
HETATM   12  C   UNL     1     -42.850  57.451 -56.976  1.00  0.00     0.165 A 
HETATM   13  C   UNL     1     -43.458  56.930 -55.841  1.00  0.00     0.066 A 
BRANCH  12  14
HETATM   14  O   UNL     1     -42.727  56.587 -58.041  1.00  0.00    -0.324 OA
BRANCH  14  15
HETATM   15  C   UNL     1     -43.564  56.766 -59.199  1.00  0.00     0.058 C 
HETATM   16  C   UNL     1     -42.857  57.536 -60.324  1.00  0.00     0.045 C 
HETATM   17  C   UNL     1     -44.939  57.363 -58.859  1.00  0.00     0.045 C 
HETATM   18  C   UNL     1     -43.800  55.328 -59.704  1.00  0.00     0.045 C 
ENDBRANCH  14  15
ENDBRANCH  12  14
ENDBRANCH   7   8
ENDBRANCH   1   7
BRANCH   3  19
HETATM   19  C   UNL     1     -41.646  53.884 -51.151  1.00  0.00     0.095 A 
HETATM   20  C   UNL     1     -40.248  53.470 -51.566  1.00  0.00     0.043 A 
HETATM   21  C   UNL     1     -40.581  53.700 -50.111  1.00  0.00     0.037 A 
BRANCH  20  22
HETATM   22  C   UNL     1     -39.989  52.063 -52.054  1.00  0.00    -0.052 A 
HETATM   23  C   UNL     1     -39.775  51.004 -51.157  1.00  0.00     0.007 A 
HETATM   24  C   UNL     1     -39.533  49.704 -51.608  1.00  0.00     0.001 A 
HETATM   25  C   UNL     1     -39.508  49.434 -52.974  1.00  0.00     0.000 A 
HETATM   26  C   UNL     1     -39.729  50.463 -53.884  1.00  0.00     0.001 A 
HETATM   27  C   UNL     1     -39.971  51.760 -53.426  1.00  0.00     0.007 A 
ENDBRANCH  20  22
ENDBRANCH   3  19
TORSDOF 6
ENDMDL
MODEL 2
REMARK VINA RESULT:      -7.5      4.405      6.749
REMARK  6 active torsions:
REMARK  status: ('A' for Active; 'I' for Inactive)
REMARK    1  A    between atoms: C_2  and  O_3 
REMARK    2  A    between atoms: O_3  and  C_4 
REMARK    3  A    between atoms: C_8  and  C_9 
REMARK    4  A    between atoms: C_9  and  N_10 
REMARK       I    between atoms: N_10  and  C_11 
REMARK       I    between atoms: C_11  and  N_12 
REMARK    5  A    between atoms: N_12  and  C_13 
REMARK    6  A    between atoms: C_14  and  C_15 
ROOT
HETATM    1  N   UNL     1     -44.227  56.951 -52.094  1.00  0.00    -0.339 N 
HETATM    2  C   UNL     1     -43.693  55.808 -51.552  1.00  0.00     0.316 C 
HETATM    3  N   UNL     1     -42.698  55.288 -52.347  1.00  0.00    -0.338 N 
HETATM    4  O   UNL     1     -44.047  55.327 -50.483  1.00  0.00    -0.247 OA
HETATM    5  H   UNL     1     -43.621  57.470 -52.710  1.00  0.00     0.164 HD
HETATM    6  H   UNL     1     -42.759  55.506 -53.331  1.00  0.00     0.164 HD
ENDROOT
BRANCH   1   7
HETATM    7  C   UNL     1     -45.221  57.717 -51.373  1.00  0.00     0.163 C 
BRANCH   7   8
HETATM    8  C   UNL     1     -44.689  59.055 -50.931  1.00  0.00    -0.035 A 
HETATM    9  C   UNL     1     -43.359  59.416 -51.167  1.00  0.00     0.028 A 
HETATM   10  C   UNL     1     -42.915  60.653 -50.731  1.00  0.00     0.120 A 
HETATM   11  N   UNL     1     -43.689  61.539 -50.070  1.00  0.00    -0.237 NA
HETATM   12  C   UNL     1     -44.960  61.172 -49.831  1.00  0.00     0.165 A 
HETATM   13  C   UNL     1     -45.505  59.966 -50.254  1.00  0.00     0.066 A 
BRANCH  12  14
HETATM   14  O   UNL     1     -45.816  62.015 -49.159  1.00  0.00    -0.324 OA
BRANCH  14  15
HETATM   15  C   UNL     1     -45.624  62.245 -47.750  1.00  0.00     0.058 C 
HETATM   16  C   UNL     1     -44.955  63.596 -47.460  1.00  0.00     0.045 C 
HETATM   17  C   UNL     1     -44.914  61.079 -47.044  1.00  0.00     0.045 C 
HETATM   18  C   UNL     1     -47.060  62.313 -47.193  1.00  0.00     0.045 C 
ENDBRANCH  14  15
ENDBRANCH  12  14
ENDBRANCH   7   8
ENDBRANCH   1   7
BRANCH   3  19
HETATM   19  C   UNL     1     -41.936  54.137 -51.959  1.00  0.00     0.095 A 
HETATM   20  C   UNL     1     -40.628  53.784 -52.639  1.00  0.00     0.043 A 
HETATM   21  C   UNL     1     -40.639  54.327 -51.230  1.00  0.00     0.037 A 
BRANCH  20  22
HETATM   22  C   UNL     1     -40.264  52.335 -52.872  1.00  0.00    -0.052 A 
HETATM   23  C   UNL     1     -40.372  51.748 -54.144  1.00  0.00     0.007 A 
HETATM   24  C   UNL     1     -40.037  50.408 -54.359  1.00  0.00     0.001 A 
HETATM   25  C   UNL     1     -39.579  49.627 -53.302  1.00  0.00     0.000 A 
HETATM   26  C   UNL     1     -39.451  50.187 -52.035  1.00  0.00     0.001 A 
HETATM   27  C   UNL     1     -39.786  51.527 -51.827  1.00  0.00     0.007 A 
ENDBRANCH  20  22
ENDBRANCH   3  19
TORSDOF 6
ENDMDL
MODEL 3
REMARK VINA RESULT:      -7.5      5.164      7.573
REMARK  6 active torsions:
REMARK  status: ('A' for Active; 'I' for Inactive)
REMARK    1  A    between atoms: C_2  and  O_3 
REMARK    2  A    between atoms: O_3  and  C_4 
REMARK    3  A    between atoms: C_8  and  C_9 
REMARK    4  A    between atoms: C_9  and  N_10 
REMARK       I    between atoms: N_10  and  C_11 
REMARK       I    between atoms: C_11  and  N_12 
REMARK    5  A    between atoms: N_12  and  C_13 
REMARK    6  A    between atoms: C_14  and  C_15 
ROOT
HETATM    1  N   UNL     1     -42.347  59.110 -50.711  1.00  0.00    -0.339 N 
HETATM    2  C   UNL     1     -41.696  58.317 -51.624  1.00  0.00     0.316 C 
HETATM    3  N   UNL     1     -42.178  57.029 -51.611  1.00  0.00    -0.338 N 
HETATM    4  O   UNL     1     -40.811  58.718 -52.370  1.00  0.00    -0.247 OA
HETATM    5  H   UNL     1     -43.283  58.824 -50.469  1.00  0.00     0.164 HD
HETATM    6  H   UNL     1     -42.588  56.719 -50.742  1.00  0.00     0.164 HD
ENDROOT
BRANCH   1   7
HETATM    7  C   UNL     1     -42.066  60.527 -50.627  1.00  0.00     0.163 C 
BRANCH   7   8
HETATM    8  C   UNL     1     -43.223  61.298 -50.048  1.00  0.00    -0.035 A 
HETATM    9  C   UNL     1     -43.334  62.678 -50.236  1.00  0.00     0.028 A 
HETATM   10  C   UNL     1     -44.410  63.344 -49.673  1.00  0.00     0.120 A 
HETATM   11  N   UNL     1     -45.363  62.741 -48.932  1.00  0.00    -0.237 NA
HETATM   12  C   UNL     1     -45.233  61.417 -48.741  1.00  0.00     0.165 A 
HETATM   13  C   UNL     1     -44.206  60.658 -49.288  1.00  0.00     0.066 A 
BRANCH  12  14
HETATM   14  O   UNL     1     -46.159  60.724 -47.994  1.00  0.00    -0.324 OA
BRANCH  14  15
HETATM   15  C   UNL     1     -46.133  60.830 -46.558  1.00  0.00     0.058 C 
HETATM   16  C   UNL     1     -47.128  61.871 -46.026  1.00  0.00     0.045 C 
HETATM   17  C   UNL     1     -44.717  61.036 -45.997  1.00  0.00     0.045 C 
HETATM   18  C   UNL     1     -46.618  59.445 -46.083  1.00  0.00     0.045 C 
ENDBRANCH  14  15
ENDBRANCH  12  14
ENDBRANCH   7   8
ENDBRANCH   1   7
BRANCH   3  19
HETATM   19  C   UNL     1     -41.710  56.031 -52.528  1.00  0.00     0.095 A 
HETATM   20  C   UNL     1     -42.202  54.599 -52.463  1.00  0.00     0.043 A 
HETATM   21  C   UNL     1     -42.638  55.511 -53.584  1.00  0.00     0.037 A 
BRANCH  20  22
HETATM   22  C   UNL     1     -41.254  53.459 -52.760  1.00  0.00    -0.052 A 
HETATM   23  C   UNL     1     -40.394  52.946 -51.775  1.00  0.00     0.007 A 
HETATM   24  C   UNL     1     -39.516  51.894 -52.051  1.00  0.00     0.001 A 
HETATM   25  C   UNL     1     -39.487  51.326 -53.322  1.00  0.00     0.000 A 
HETATM   26  C   UNL     1     -40.337  51.808 -54.312  1.00  0.00     0.001 A 
HETATM   27  C   UNL     1     -41.213  52.859 -54.030  1.00  0.00     0.007 A 
ENDBRANCH  20  22
ENDBRANCH   3  19
TORSDOF 6
ENDMDL
MODEL 4
REMARK VINA RESULT:      -7.5      2.501      4.535
REMARK  6 active torsions:
REMARK  status: ('A' for Active; 'I' for Inactive)
REMARK    1  A    between atoms: C_2  and  O_3 
REMARK    2  A    between atoms: O_3  and  C_4 
REMARK    3  A    between atoms: C_8  and  C_9 
REMARK    4  A    between atoms: C_9  and  N_10 
REMARK       I    between atoms: N_10  and  C_11 
REMARK       I    between atoms: C_11  and  N_12 
REMARK    5  A    between atoms: N_12  and  C_13 
REMARK    6  A    between atoms: C_14  and  C_15 
ROOT
HETATM    1  N   UNL     1     -42.080  56.728 -56.808  1.00  0.00    -0.339 N 
HETATM    2  C   UNL     1     -42.434  55.747 -55.914  1.00  0.00     0.316 C 
HETATM    3  N   UNL     1     -41.399  54.869 -55.690  1.00  0.00    -0.338 N 
HETATM    4  O   UNL     1     -43.529  55.679 -55.371  1.00  0.00    -0.247 OA
HETATM    5  H   UNL     1     -41.095  56.937 -56.864  1.00  0.00     0.164 HD
HETATM    6  H   UNL     1     -40.728  54.775 -56.439  1.00  0.00     0.164 HD
ENDROOT
BRANCH   1   7
HETATM    7  C   UNL     1     -42.987  57.814 -57.112  1.00  0.00     0.163 C 
BRANCH   7   8
HETATM    8  C   UNL     1     -42.867  58.942 -56.121  1.00  0.00    -0.035 A 
HETATM    9  C   UNL     1     -43.613  60.115 -56.271  1.00  0.00     0.028 A 
HETATM   10  C   UNL     1     -43.459  61.128 -55.340  1.00  0.00     0.120 A 
HETATM   11  N   UNL     1     -42.612  61.062 -54.291  1.00  0.00    -0.237 NA
HETATM   12  C   UNL     1     -41.885  59.938 -54.170  1.00  0.00     0.165 A 
HETATM   13  C   UNL     1     -41.991  58.857 -55.035  1.00  0.00     0.066 A 
BRANCH  12  14
HETATM   14  O   UNL     1     -40.995  59.790 -53.131  1.00  0.00    -0.324 OA
BRANCH  14  15
HETATM   15  C   UNL     1     -41.409  59.104 -51.934  1.00  0.00     0.058 C 
HETATM   16  C   UNL     1     -41.445  57.579 -52.112  1.00  0.00     0.045 C 
HETATM   17  C   UNL     1     -42.721  59.654 -51.351  1.00  0.00     0.045 C 
HETATM   18  C   UNL     1     -40.289  59.424 -50.924  1.00  0.00     0.045 C 
ENDBRANCH  14  15
ENDBRANCH  12  14
ENDBRANCH   7   8
ENDBRANCH   1   7
BRANCH   3  19
HETATM   19  C   UNL     1     -41.499  53.801 -54.739  1.00  0.00     0.095 A 
HETATM   20  C   UNL     1     -40.379  53.497 -53.764  1.00  0.00     0.043 A 
HETATM   21  C   UNL     1     -41.665  54.126 -53.284  1.00  0.00     0.037 A 
BRANCH  20  22
HETATM   22  C   UNL     1     -40.068  52.066 -53.390  1.00  0.00    -0.052 A 
HETATM   23  C   UNL     1     -39.994  51.054 -54.362  1.00  0.00     0.007 A 
HETATM   24  C   UNL     1     -39.709  49.731 -54.016  1.00  0.00     0.001 A 
HETATM   25  C   UNL     1     -39.484  49.392 -52.684  1.00  0.00     0.000 A 
HETATM   26  C   UNL     1     -39.540  50.377 -51.703  1.00  0.00     0.001 A 
HETATM   27  C   UNL     1     -39.824  51.698 -52.056  1.00  0.00     0.007 A 
ENDBRANCH  20  22
ENDBRANCH   3  19
TORSDOF 6
ENDMDL
MODEL 5
REMARK VINA RESULT:      -7.5      1.123      1.715
REMARK  6 active torsions:
REMARK  status: ('A' for Active; 'I' for Inactive)
REMARK    1  A    between atoms: C_2  and  O_3 
REMARK    2  A    between atoms: O_3  and  C_4 
REMARK    3  A    between atoms: C_8  and  C_9 
REMARK    4  A    between atoms: C_9  and  N_10 
REMARK       I    between atoms: N_10  and  C_11 
REMARK       I    between atoms: C_11  and  N_12 
REMARK    5  A    between atoms: N_12  and  C_13 
REMARK    6  A    between atoms: C_14  and  C_15 
ROOT
HETATM    1  N   UNL     1     -44.104  56.714 -53.340  1.00  0.00    -0.339 N 
HETATM    2  C   UNL     1     -43.502  55.481 -53.278  1.00  0.00     0.316 C 
HETATM    3  N   UNL     1     -42.729  55.351 -52.148  1.00  0.00    -0.338 N 
HETATM    4  O   UNL     1     -43.656  54.602 -54.117  1.00  0.00    -0.247 OA
HETATM    5  H   UNL     1     -44.254  57.174 -52.455  1.00  0.00     0.164 HD
HETATM    6  H   UNL     1     -42.364  56.209 -51.761  1.00  0.00     0.164 HD
ENDROOT
BRANCH   1   7
HETATM    7  C   UNL     1     -45.042  57.028 -54.396  1.00  0.00     0.163 C 
BRANCH   7   8
HETATM    8  C   UNL     1     -44.476  58.023 -55.375  1.00  0.00    -0.035 A 
HETATM    9  C   UNL     1     -44.840  59.372 -55.322  1.00  0.00     0.028 A 
HETATM   10  C   UNL     1     -44.302  60.246 -56.252  1.00  0.00     0.120 A 
HETATM   11  N   UNL     1     -43.449  59.872 -57.228  1.00  0.00    -0.237 NA
HETATM   12  C   UNL     1     -43.124  58.569 -57.282  1.00  0.00     0.165 A 
HETATM   13  C   UNL     1     -43.588  57.623 -56.377  1.00  0.00     0.066 A 
BRANCH  12  14
HETATM   14  O   UNL     1     -42.263  58.102 -58.249  1.00  0.00    -0.324 OA
BRANCH  14  15
HETATM   15  C   UNL     1     -42.795  57.624 -59.500  1.00  0.00     0.058 C 
HETATM   16  C   UNL     1     -44.238  58.086 -59.742  1.00  0.00     0.045 C 
HETATM   17  C   UNL     1     -42.630  56.107 -59.681  1.00  0.00     0.045 C 
HETATM   18  C   UNL     1     -41.908  58.312 -60.558  1.00  0.00     0.045 C 
ENDBRANCH  14  15
ENDBRANCH  12  14
ENDBRANCH   7   8
ENDBRANCH   1   7
BRANCH   3  19
HETATM   19  C   UNL     1     -42.058  54.126 -51.821  1.00  0.00     0.095 A 
HETATM   20  C   UNL     1     -40.664  53.823 -52.331  1.00  0.00     0.043 A 
HETATM   21  C   UNL     1     -40.893  54.158 -50.877  1.00  0.00     0.037 A 
BRANCH  20  22
HETATM   22  C   UNL     1     -40.291  52.409 -52.717  1.00  0.00    -0.052 A 
HETATM   23  C   UNL     1     -40.440  51.945 -54.035  1.00  0.00     0.007 A 
HETATM   24  C   UNL     1     -40.097  50.638 -54.390  1.00  0.00     0.001 A 
HETATM   25  C   UNL     1     -39.589  49.766 -53.432  1.00  0.00     0.000 A 
HETATM   26  C   UNL     1     -39.420  50.203 -52.122  1.00  0.00     0.001 A 
HETATM   27  C   UNL     1     -39.764  51.512 -51.773  1.00  0.00     0.007 A 
ENDBRANCH  20  22
ENDBRANCH   3  19
TORSDOF 6
ENDMDL
MODEL 6
REMARK VINA RESULT:      -7.5      4.976      7.373
REMARK  6 active torsions:
REMARK  status: ('A' for Active; 'I' for Inactive)
REMARK    1  A    between atoms: C_2  and  O_3 
REMARK    2  A    between atoms: O_3  and  C_4 
REMARK    3  A    between atoms: C_8  and  C_9 
REMARK    4  A    between atoms: C_9  and  N_10 
REMARK       I    between atoms: N_10  and  C_11 
REMARK       I    between atoms: C_11  and  N_12 
REMARK    5  A    between atoms: N_12  and  C_13 
REMARK    6  A    between atoms: C_14  and  C_15 
ROOT
HETATM    1  N   UNL     1     -41.676  58.723 -50.240  1.00  0.00    -0.339 N 
HETATM    2  C   UNL     1     -41.771  57.529 -50.912  1.00  0.00     0.316 C 
HETATM    3  N   UNL     1     -41.437  56.466 -50.106  1.00  0.00    -0.338 N 
HETATM    4  O   UNL     1     -42.130  57.427 -52.078  1.00  0.00    -0.247 OA
HETATM    5  H   UNL     1     -41.785  58.674 -49.239  1.00  0.00     0.164 HD
HETATM    6  H   UNL     1     -40.805  56.670 -49.344  1.00  0.00     0.164 HD
ENDROOT
BRANCH   1   7
HETATM    7  C   UNL     1     -42.079  59.961 -50.870  1.00  0.00     0.163 C 
BRANCH   7   8
HETATM    8  C   UNL     1     -43.475  60.366 -50.477  1.00  0.00    -0.035 A 
HETATM    9  C   UNL     1     -44.591  59.812 -51.111  1.00  0.00     0.028 A 
HETATM   10  C   UNL     1     -45.854  60.226 -50.721  1.00  0.00     0.120 A 
HETATM   11  N   UNL     1     -46.080  61.154 -49.768  1.00  0.00    -0.237 NA
HETATM   12  C   UNL     1     -44.999  61.695 -49.182  1.00  0.00     0.165 A 
HETATM   13  C   UNL     1     -43.694  61.324 -49.483  1.00  0.00     0.066 A 
BRANCH  12  14
HETATM   14  O   UNL     1     -45.139  62.652 -48.202  1.00  0.00    -0.324 OA
BRANCH  14  15
HETATM   15  C   UNL     1     -45.574  62.260 -46.886  1.00  0.00     0.058 C 
HETATM   16  C   UNL     1     -44.839  61.016 -46.368  1.00  0.00     0.045 C 
HETATM   17  C   UNL     1     -47.101  62.124 -46.775  1.00  0.00     0.045 C 
HETATM   18  C   UNL     1     -45.153  63.447 -45.996  1.00  0.00     0.045 C 
ENDBRANCH  14  15
ENDBRANCH  12  14
ENDBRANCH   7   8
ENDBRANCH   1   7
BRANCH   3  19
HETATM   19  C   UNL     1     -41.530  55.109 -50.557  1.00  0.00     0.095 A 
HETATM   20  C   UNL     1     -40.296  54.249 -50.751  1.00  0.00     0.043 A 
HETATM   21  C   UNL     1     -41.236  53.994 -49.597  1.00  0.00     0.037 A 
BRANCH  20  22
HETATM   22  C   UNL     1     -40.237  53.259 -51.892  1.00  0.00    -0.052 A 
HETATM   23  C   UNL     1     -40.714  53.586 -53.172  1.00  0.00     0.007 A 
HETATM   24  C   UNL     1     -40.660  52.669 -54.226  1.00  0.00     0.001 A 
HETATM   25  C   UNL     1     -40.119  51.403 -54.021  1.00  0.00     0.000 A 
HETATM   26  C   UNL     1     -39.628  51.058 -52.765  1.00  0.00     0.001 A 
HETATM   27  C   UNL     1     -39.684  51.979 -51.716  1.00  0.00     0.007 A 
ENDBRANCH  20  22
ENDBRANCH   3  19
TORSDOF 6
ENDMDL
MODEL 7
REMARK VINA RESULT:      -7.3      2.527      3.696
REMARK  6 active torsions:
REMARK  status: ('A' for Active; 'I' for Inactive)
REMARK    1  A    between atoms: C_2  and  O_3 
REMARK    2  A    between atoms: O_3  and  C_4 
REMARK    3  A    between atoms: C_8  and  C_9 
REMARK    4  A    between atoms: C_9  and  N_10 
REMARK       I    between atoms: N_10  and  C_11 
REMARK       I    between atoms: C_11  and  N_12 
REMARK    5  A    between atoms: N_12  and  C_13 
REMARK    6  A    between atoms: C_14  and  C_15 
ROOT
HETATM    1  N   UNL     1     -43.483  56.154 -56.510  1.00  0.00    -0.339 N 
HETATM    2  C   UNL     1     -43.197  55.596 -55.289  1.00  0.00     0.316 C 
HETATM    3  N   UNL     1     -42.342  54.525 -55.409  1.00  0.00    -0.338 N 
HETATM    4  O   UNL     1     -43.634  56.016 -54.225  1.00  0.00    -0.247 OA
HETATM    5  H   UNL     1     -42.787  56.022 -57.228  1.00  0.00     0.164 HD
HETATM    6  H   UNL     1     -42.365  54.038 -56.294  1.00  0.00     0.164 HD
ENDROOT
BRANCH   1   7
HETATM    7  C   UNL     1     -44.285  57.355 -56.606  1.00  0.00     0.163 C 
BRANCH   7   8
HETATM    8  C   UNL     1     -44.226  57.964 -57.982  1.00  0.00    -0.035 A 
HETATM    9  C   UNL     1     -45.264  57.775 -58.899  1.00  0.00     0.028 A 
HETATM   10  C   UNL     1     -45.158  58.345 -60.156  1.00  0.00     0.120 A 
HETATM   11  N   UNL     1     -44.096  59.070 -60.565  1.00  0.00    -0.237 NA
HETATM   12  C   UNL     1     -43.094  59.227 -59.682  1.00  0.00     0.165 A 
HETATM   13  C   UNL     1     -43.122  58.718 -58.389  1.00  0.00     0.066 A 
BRANCH  12  14
HETATM   14  O   UNL     1     -41.971  59.948 -60.019  1.00  0.00    -0.324 OA
BRANCH  14  15
HETATM   15  C   UNL     1     -41.882  61.336 -59.644  1.00  0.00     0.058 C 
HETATM   16  C   UNL     1     -41.029  61.554 -58.387  1.00  0.00     0.045 C 
HETATM   17  C   UNL     1     -43.255  62.019 -59.542  1.00  0.00     0.045 C 
HETATM   18  C   UNL     1     -41.134  61.985 -60.827  1.00  0.00     0.045 C 
ENDBRANCH  14  15
ENDBRANCH  12  14
ENDBRANCH   7   8
ENDBRANCH   1   7
BRANCH   3  19
HETATM   19  C   UNL     1     -41.837  53.821 -54.267  1.00  0.00     0.095 A 
HETATM   20  C   UNL     1     -40.408  53.318 -54.212  1.00  0.00     0.043 A 
HETATM   21  C   UNL     1     -40.841  54.495 -53.371  1.00  0.00     0.037 A 
BRANCH  20  22
HETATM   22  C   UNL     1     -40.096  52.001 -53.538  1.00  0.00    -0.052 A 
HETATM   23  C   UNL     1     -40.058  50.798 -54.263  1.00  0.00     0.007 A 
HETATM   24  C   UNL     1     -39.771  49.580 -53.640  1.00  0.00     0.001 A 
HETATM   25  C   UNL     1     -39.508  49.542 -52.274  1.00  0.00     0.000 A 
HETATM   26  C   UNL     1     -39.526  50.721 -51.534  1.00  0.00     0.001 A 
HETATM   27  C   UNL     1     -39.813  51.935 -52.163  1.00  0.00     0.007 A 
ENDBRANCH  20  22
ENDBRANCH   3  19
TORSDOF 6
ENDMDL
MODEL 8
REMARK VINA RESULT:      -7.3      1.388      2.217
REMARK  6 active torsions:
REMARK  status: ('A' for Active; 'I' for Inactive)
REMARK    1  A    between atoms: C_2  and  O_3 
REMARK    2  A    between atoms: O_3  and  C_4 
REMARK    3  A    between atoms: C_8  and  C_9 
REMARK    4  A    between atoms: C_9  and  N_10 
REMARK       I    between atoms: N_10  and  C_11 
REMARK       I    between atoms: C_11  and  N_12 
REMARK    5  A    between atoms: N_12  and  C_13 
REMARK    6  A    between atoms: C_14  and  C_15 
ROOT
HETATM    1  N   UNL     1     -43.218  56.932 -50.896  1.00  0.00    -0.339 N 
HETATM    2  C   UNL     1     -42.949  55.618 -51.187  1.00  0.00     0.316 C 
HETATM    3  N   UNL     1     -41.794  55.190 -50.575  1.00  0.00    -0.338 N 
HETATM    4  O   UNL     1     -43.663  54.913 -51.889  1.00  0.00    -0.247 OA
HETATM    5  H   UNL     1     -42.838  57.277 -50.027  1.00  0.00     0.164 HD
HETATM    6  H   UNL     1     -41.110  55.904 -50.371  1.00  0.00     0.164 HD
ENDROOT
BRANCH   1   7
HETATM    7  C   UNL     1     -44.439  57.558 -51.356  1.00  0.00     0.163 C 
BRANCH   7   8
HETATM    8  C   UNL     1     -44.224  58.358 -52.613  1.00  0.00    -0.035 A 
HETATM    9  C   UNL     1     -43.919  59.721 -52.555  1.00  0.00     0.028 A 
HETATM   10  C   UNL     1     -43.741  60.416 -53.740  1.00  0.00     0.120 A 
HETATM   11  N   UNL     1     -43.861  59.860 -54.963  1.00  0.00    -0.237 NA
HETATM   12  C   UNL     1     -44.176  58.554 -55.005  1.00  0.00     0.165 A 
HETATM   13  C   UNL     1     -44.344  57.766 -53.873  1.00  0.00     0.066 A 
BRANCH  12  14
HETATM   14  O   UNL     1     -44.321  57.908 -56.212  1.00  0.00    -0.324 OA
BRANCH  14  15
HETATM   15  C   UNL     1     -43.149  57.500 -56.943  1.00  0.00     0.058 C 
HETATM   16  C   UNL     1     -42.265  56.531 -56.146  1.00  0.00     0.045 C 
HETATM   17  C   UNL     1     -42.352  58.686 -57.509  1.00  0.00     0.045 C 
HETATM   18  C   UNL     1     -43.722  56.718 -58.143  1.00  0.00     0.045 C 
ENDBRANCH  14  15
ENDBRANCH  12  14
ENDBRANCH   7   8
ENDBRANCH   1   7
BRANCH   3  19
HETATM   19  C   UNL     1     -41.341  53.833 -50.667  1.00  0.00     0.095 A 
HETATM   20  C   UNL     1     -40.049  53.472 -51.373  1.00  0.00     0.043 A 
HETATM   21  C   UNL     1     -40.147  53.402 -49.868  1.00  0.00     0.037 A 
BRANCH  20  22
HETATM   22  C   UNL     1     -39.954  52.191 -52.170  1.00  0.00    -0.052 A 
HETATM   23  C   UNL     1     -40.188  52.172 -53.556  1.00  0.00     0.007 A 
HETATM   24  C   UNL     1     -40.103  50.988 -54.293  1.00  0.00     0.001 A 
HETATM   25  C   UNL     1     -39.773  49.794 -53.657  1.00  0.00     0.000 A 
HETATM   26  C   UNL     1     -39.525  49.787 -52.288  1.00  0.00     0.001 A 
HETATM   27  C   UNL     1     -39.611  50.975 -51.557  1.00  0.00     0.007 A 
ENDBRANCH  20  22
ENDBRANCH   3  19
TORSDOF 6
ENDMDL
MODEL 9
REMARK VINA RESULT:      -7.3      2.655      4.065
REMARK  6 active torsions:
REMARK  status: ('A' for Active; 'I' for Inactive)
REMARK    1  A    between atoms: C_2  and  O_3 
REMARK    2  A    between atoms: O_3  and  C_4 
REMARK    3  A    between atoms: C_8  and  C_9 
REMARK    4  A    between atoms: C_9  and  N_10 
REMARK       I    between atoms: N_10  and  C_11 
REMARK       I    between atoms: C_11  and  N_12 
REMARK    5  A    between atoms: N_12  and  C_13 
REMARK    6  A    between atoms: C_14  and  C_15 
ROOT
HETATM    1  N   UNL     1     -42.264  56.238 -57.379  1.00  0.00    -0.339 N 
HETATM    2  C   UNL     1     -42.421  55.548 -56.202  1.00  0.00     0.316 C 
HETATM    3  N   UNL     1     -41.346  54.729 -55.947  1.00  0.00    -0.338 N 
HETATM    4  O   UNL     1     -43.391  55.668 -55.463  1.00  0.00    -0.247 OA
HETATM    5  H   UNL     1     -41.313  56.390 -57.675  1.00  0.00     0.164 HD
HETATM    6  H   UNL     1     -40.830  54.413 -56.756  1.00  0.00     0.164 HD
ENDROOT
BRANCH   1   7
HETATM    7  C   UNL     1     -43.233  57.232 -57.789  1.00  0.00     0.163 C 
BRANCH   7   8
HETATM    8  C   UNL     1     -44.136  56.721 -58.880  1.00  0.00    -0.035 A 
HETATM    9  C   UNL     1     -43.823  55.559 -59.591  1.00  0.00     0.028 A 
HETATM   10  C   UNL     1     -44.680  55.137 -60.593  1.00  0.00     0.120 A 
HETATM   11  N   UNL     1     -45.806  55.793 -60.944  1.00  0.00    -0.237 NA
HETATM   12  C   UNL     1     -46.085  56.921 -60.269  1.00  0.00     0.165 A 
HETATM   13  C   UNL     1     -45.303  57.408 -59.229  1.00  0.00     0.066 A 
BRANCH  12  14
HETATM   14  O   UNL     1     -47.212  57.653 -60.566  1.00  0.00    -0.324 OA
BRANCH  14  15
HETATM   15  C   UNL     1     -47.211  59.077 -60.345  1.00  0.00     0.058 C 
HETATM   16  C   UNL     1     -45.980  59.766 -60.951  1.00  0.00     0.045 C 
HETATM   17  C   UNL     1     -47.424  59.454 -58.870  1.00  0.00     0.045 C 
HETATM   18  C   UNL     1     -48.446  59.568 -61.127  1.00  0.00     0.045 C 
ENDBRANCH  14  15
ENDBRANCH  12  14
ENDBRANCH   7   8
ENDBRANCH   1   7
BRANCH   3  19
HETATM   19  C   UNL     1     -41.241  53.962 -54.741  1.00  0.00     0.095 A 
HETATM   20  C   UNL     1     -39.907  53.445 -54.241  1.00  0.00     0.043 A 
HETATM   21  C   UNL     1     -40.605  54.580 -53.531  1.00  0.00     0.037 A 
BRANCH  20  22
HETATM   22  C   UNL     1     -39.823  52.091 -53.572  1.00  0.00    -0.052 A 
HETATM   23  C   UNL     1     -39.638  51.970 -52.185  1.00  0.00     0.007 A 
HETATM   24  C   UNL     1     -39.559  50.719 -51.567  1.00  0.00     0.001 A 
HETATM   25  C   UNL     1     -39.670  49.558 -52.327  1.00  0.00     0.000 A 
HETATM   26  C   UNL     1     -39.866  49.650 -53.702  1.00  0.00     0.001 A 
HETATM   27  C   UNL     1     -39.946  50.904 -54.313  1.00  0.00     0.007 A 
ENDBRANCH  20  22
ENDBRANCH   3  19
TORSDOF 6
ENDMDL
MODEL 10
REMARK VINA RESULT:      -7.2      2.545      3.308
REMARK  6 active torsions:
REMARK  status: ('A' for Active; 'I' for Inactive)
REMARK    1  A    between atoms: C_2  and  O_3 
REMARK    2  A    between atoms: O_3  and  C_4 
REMARK    3  A    between atoms: C_8  and  C_9 
REMARK    4  A    between atoms: C_9  and  N_10 
REMARK       I    between atoms: N_10  and  C_11 
REMARK       I    between atoms: C_11  and  N_12 
REMARK    5  A    between atoms: N_12  and  C_13 
REMARK    6  A    between atoms: C_14  and  C_15 
ROOT
HETATM    1  N   UNL     1     -42.352  55.656 -56.955  1.00  0.00    -0.339 N 
HETATM    2  C   UNL     1     -42.510  55.074 -55.721  1.00  0.00     0.316 C 
HETATM    3  N   UNL     1     -41.479  54.210 -55.434  1.00  0.00    -0.338 N 
HETATM    4  O   UNL     1     -43.443  55.314 -54.966  1.00  0.00    -0.247 OA
HETATM    5  H   UNL     1     -41.404  55.723 -57.292  1.00  0.00     0.164 HD
HETATM    6  H   UNL     1     -41.012  53.799 -56.229  1.00  0.00     0.164 HD
ENDROOT
BRANCH   1   7
HETATM    7  C   UNL     1     -43.271  56.675 -57.416  1.00  0.00     0.163 C 
BRANCH   7   8
HETATM    8  C   UNL     1     -42.727  58.063 -57.204  1.00  0.00    -0.035 A 
HETATM    9  C   UNL     1     -42.848  58.703 -55.967  1.00  0.00     0.028 A 
HETATM   10  C   UNL     1     -42.342  59.984 -55.825  1.00  0.00     0.120 A 
HETATM   11  N   UNL     1     -41.746  60.671 -56.822  1.00  0.00    -0.237 NA
HETATM   12  C   UNL     1     -41.655  60.053 -58.013  1.00  0.00     0.165 A 
HETATM   13  C   UNL     1     -42.106  58.759 -58.244  1.00  0.00     0.066 A 
BRANCH  12  14
HETATM   14  O   UNL     1     -41.065  60.684 -59.085  1.00  0.00    -0.324 OA
BRANCH  14  15
HETATM   15  C   UNL     1     -41.844  61.587 -59.892  1.00  0.00     0.058 C 
HETATM   16  C   UNL     1     -41.105  62.899 -60.190  1.00  0.00     0.045 C 
HETATM   17  C   UNL     1     -43.255  61.827 -59.332  1.00  0.00     0.045 C 
HETATM   18  C   UNL     1     -42.004  60.834 -61.229  1.00  0.00     0.045 C 
ENDBRANCH  14  15
ENDBRANCH  12  14
ENDBRANCH   7   8
ENDBRANCH   1   7
BRANCH   3  19
HETATM   19  C   UNL     1     -41.379  53.536 -54.172  1.00  0.00     0.095 A 
HETATM   20  C   UNL     1     -40.038  53.144 -53.585  1.00  0.00     0.043 A 
HETATM   21  C   UNL     1     -40.837  54.276 -52.986  1.00  0.00     0.037 A 
BRANCH  20  22
HETATM   22  C   UNL     1     -39.898  51.848 -52.818  1.00  0.00    -0.052 A 
HETATM   23  C   UNL     1     -39.942  51.819 -51.414  1.00  0.00     0.007 A 
HETATM   24  C   UNL     1     -39.811  50.622 -50.706  1.00  0.00     0.001 A 
HETATM   25  C   UNL     1     -39.639  49.422 -51.391  1.00  0.00     0.000 A 
HETATM   26  C   UNL     1     -39.605  49.421 -52.782  1.00  0.00     0.001 A 
HETATM   27  C   UNL     1     -39.737  50.621 -53.485  1.00  0.00     0.007 A 
ENDBRANCH  20  22
ENDBRANCH   3  19
TORSDOF 6
ENDMDL
