MODEL 1
REMARK VINA RESULT:      -7.5      0.000      0.000
REMARK  5 active torsions:
REMARK  status: ('A' for Active; 'I' for Inactive)
REMARK    1  A    between atoms: C_4  and  C_5 
REMARK       I    between atoms: C_5  and  N_6 
REMARK    2  A    between atoms: N_6  and  C_7 
REMARK    3  A    between atoms: C_7  and  C_8 
REMARK    4  A    between atoms: C_8  and  C_9 
REMARK    5  A    between atoms: C_18  and  O_19 
ROOT
HETATM    1  C   UNL     1     -41.599  54.352 -53.698  1.00  0.00     0.254 C 
HETATM    2  N   UNL     1     -42.739  54.730 -53.030  1.00  0.00    -0.356 N 
HETATM    3  O   UNL     1     -41.186  54.955 -54.684  1.00  0.00    -0.268 OA
HETATM    4  H   UNL     1     -42.925  54.267 -52.142  1.00  0.00     0.162 HD
ENDROOT
BRANCH   2   5
HETATM    5  C   UNL     1     -43.454  55.946 -53.363  1.00  0.00     0.136 C 
BRANCH   5   6
HETATM    6  C   UNL     1     -43.486  56.988 -52.207  1.00  0.00    -0.004 C 
HETATM    7  C   UNL     1     -44.620  57.998 -52.496  1.00  0.00     0.021 C 
HETATM    8  C   UNL     1     -43.863  56.241 -50.905  1.00  0.00     0.021 C 
BRANCH   6   9
HETATM    9  C   UNL     1     -42.160  57.767 -52.108  1.00  0.00    -0.046 A 
HETATM   10  C   UNL     1     -41.473  58.158 -53.269  1.00  0.00     0.027 A 
HETATM   11  C   UNL     1     -40.277  58.854 -53.158  1.00  0.00     0.116 A 
HETATM   12  N   UNL     1     -39.714  59.197 -51.984  1.00  0.00    -0.273 NA
HETATM   13  C   UNL     1     -40.384  58.833 -50.874  1.00  0.00     0.116 A 
HETATM   14  C   UNL     1     -41.583  58.131 -50.883  1.00  0.00     0.027 A 
ENDBRANCH   6   9
ENDBRANCH   5   6
ENDBRANCH   2   5
BRANCH   1  15
HETATM   15  C   UNL     1     -40.855  53.164 -53.165  1.00  0.00     0.065 A 
HETATM   16  C   UNL     1     -40.591  52.120 -54.070  1.00  0.00     0.026 A 
HETATM   17  C   UNL     1     -39.905  50.964 -53.670  1.00  0.00    -0.061 A 
HETATM   18  C   UNL     1     -39.609  49.869 -54.650  1.00  0.00     0.048 C 
HETATM   19  C   UNL     1     -39.470  50.858 -52.346  1.00  0.00     0.009 A 
HETATM   20  C   UNL     1     -39.719  51.886 -51.434  1.00  0.00     0.038 A 
HETATM   21  C   UNL     1     -40.404  53.035 -51.842  1.00  0.00     0.081 A 
BRANCH  21  22
HETATM   22  O   UNL     1     -40.617  54.030 -50.922  1.00  0.00    -0.360 OA
HETATM   23  H   UNL     1     -41.218  54.692 -51.307  1.00  0.00     0.217 HD
ENDBRANCH  21  22
ENDBRANCH   1  15
TORSDOF 5
ENDMDL
MODEL 2
REMARK VINA RESULT:      -7.3      3.088      4.214
REMARK  5 active torsions:
REMARK  status: ('A' for Active; 'I' for Inactive)
REMARK    1  A    between atoms: C_4  and  C_5 
REMARK       I    between atoms: C_5  and  N_6 
REMARK    2  A    between atoms: N_6  and  C_7 
REMARK    3  A    between atoms: C_7  and  C_8 
REMARK    4  A    between atoms: C_8  and  C_9 
REMARK    5  A    between atoms: C_18  and  O_19 
ROOT
HETATM    1  C   UNL     1     -40.825  54.379 -53.080  1.00  0.00     0.254 C 
HETATM    2  N   UNL     1     -40.884  54.709 -54.412  1.00  0.00    -0.356 N 
HETATM    3  O   UNL     1     -41.151  55.164 -52.193  1.00  0.00    -0.268 OA
HETATM    4  H   UNL     1     -40.737  53.954 -55.079  1.00  0.00     0.162 HD
ENDROOT
BRANCH   2   5
HETATM    5  C   UNL     1     -41.464  55.958 -54.866  1.00  0.00     0.136 C 
BRANCH   5   6
HETATM    6  C   UNL     1     -42.862  55.791 -55.530  1.00  0.00    -0.004 C 
HETATM    7  C   UNL     1     -43.229  54.290 -55.516  1.00  0.00     0.021 C 
HETATM    8  C   UNL     1     -43.899  56.521 -54.643  1.00  0.00     0.021 C 
BRANCH   6   9
HETATM    9  C   UNL     1     -42.856  56.273 -56.994  1.00  0.00    -0.046 A 
HETATM   10  C   UNL     1     -43.235  55.407 -58.032  1.00  0.00     0.027 A 
HETATM   11  C   UNL     1     -43.218  55.860 -59.345  1.00  0.00     0.116 A 
HETATM   12  N   UNL     1     -42.859  57.107 -59.705  1.00  0.00    -0.273 NA
HETATM   13  C   UNL     1     -42.511  57.938 -58.703  1.00  0.00     0.116 A 
HETATM   14  C   UNL     1     -42.493  57.576 -57.362  1.00  0.00     0.027 A 
ENDBRANCH   6   9
ENDBRANCH   5   6
ENDBRANCH   2   5
BRANCH   1  15
HETATM   15  C   UNL     1     -40.352  52.998 -52.737  1.00  0.00     0.065 A 
HETATM   16  C   UNL     1     -40.273  52.072 -53.792  1.00  0.00     0.026 A 
HETATM   17  C   UNL     1     -39.847  50.754 -53.575  1.00  0.00    -0.061 A 
HETATM   18  C   UNL     1     -39.745  49.782 -54.713  1.00  0.00     0.048 C 
HETATM   19  C   UNL     1     -39.485  50.362 -52.283  1.00  0.00     0.009 A 
HETATM   20  C   UNL     1     -39.551  51.269 -51.223  1.00  0.00     0.038 A 
HETATM   21  C   UNL     1     -39.979  52.581 -51.449  1.00  0.00     0.081 A 
BRANCH  21  22
HETATM   22  O   UNL     1     -40.017  53.448 -50.386  1.00  0.00    -0.360 OA
HETATM   23  H   UNL     1     -40.596  54.197 -50.611  1.00  0.00     0.217 HD
ENDBRANCH  21  22
ENDBRANCH   1  15
TORSDOF 5
ENDMDL
MODEL 3
REMARK VINA RESULT:      -7.2      0.863      2.018
REMARK  5 active torsions:
REMARK  status: ('A' for Active; 'I' for Inactive)
REMARK    1  A    between atoms: C_4  and  C_5 
REMARK       I    between atoms: C_5  and  N_6 
REMARK    2  A    between atoms: N_6  and  C_7 
REMARK    3  A    between atoms: C_7  and  C_8 
REMARK    4  A    between atoms: C_8  and  C_9 
REMARK    5  A    between atoms: C_18  and  O_19 
ROOT
HETATM    1  C   UNL     1     -41.291  54.440 -51.362  1.00  0.00     0.254 C 
HETATM    2  N   UNL     1     -42.572  54.799 -51.707  1.00  0.00    -0.356 N 
HETATM    3  O   UNL     1     -40.648  55.041 -50.506  1.00  0.00    -0.268 OA
HETATM    4  H   UNL     1     -43.080  54.160 -52.316  1.00  0.00     0.162 HD
ENDROOT
BRANCH   2   5
HETATM    5  C   UNL     1     -43.299  55.826 -50.986  1.00  0.00     0.136 C 
BRANCH   5   6
HETATM    6  C   UNL     1     -43.446  57.159 -51.778  1.00  0.00    -0.004 C 
HETATM    7  C   UNL     1     -43.905  56.820 -53.214  1.00  0.00     0.021 C 
HETATM    8  C   UNL     1     -44.581  57.978 -51.119  1.00  0.00     0.021 C 
BRANCH   6   9
HETATM    9  C   UNL     1     -42.108  57.917 -51.864  1.00  0.00    -0.046 A 
HETATM   10  C   UNL     1     -41.419  58.014 -53.084  1.00  0.00     0.027 A 
HETATM   11  C   UNL     1     -40.213  58.699 -53.140  1.00  0.00     0.116 A 
HETATM   12  N   UNL     1     -39.640  59.298 -52.079  1.00  0.00    -0.273 NA
HETATM   13  C   UNL     1     -40.312  59.215 -50.914  1.00  0.00     0.116 A 
HETATM   14  C   UNL     1     -41.521  58.550 -50.759  1.00  0.00     0.027 A 
ENDBRANCH   6   9
ENDBRANCH   5   6
ENDBRANCH   2   5
BRANCH   1  15
HETATM   15  C   UNL     1     -40.696  53.260 -52.071  1.00  0.00     0.065 A 
HETATM   16  C   UNL     1     -40.281  52.180 -51.272  1.00  0.00     0.026 A 
HETATM   17  C   UNL     1     -39.709  51.032 -51.838  1.00  0.00    -0.061 A 
HETATM   18  C   UNL     1     -39.292  49.877 -50.977  1.00  0.00     0.048 C 
HETATM   19  C   UNL     1     -39.561  50.962 -53.226  1.00  0.00     0.009 A 
HETATM   20  C   UNL     1     -39.972  52.022 -54.037  1.00  0.00     0.038 A 
HETATM   21  C   UNL     1     -40.540  53.164 -53.463  1.00  0.00     0.081 A 
BRANCH  21  22
HETATM   22  O   UNL     1     -40.946  54.178 -54.292  1.00  0.00    -0.360 OA
HETATM   23  H   UNL     1     -41.530  54.778 -53.795  1.00  0.00     0.217 HD
ENDBRANCH  21  22
ENDBRANCH   1  15
TORSDOF 5
ENDMDL
MODEL 4
REMARK VINA RESULT:      -7.2      2.172      2.946
REMARK  5 active torsions:
REMARK  status: ('A' for Active; 'I' for Inactive)
REMARK    1  A    between atoms: C_4  and  C_5 
REMARK       I    between atoms: C_5  and  N_6 
REMARK    2  A    between atoms: N_6  and  C_7 
REMARK    3  A    between atoms: C_7  and  C_8 
REMARK    4  A    between atoms: C_8  and  C_9 
REMARK    5  A    between atoms: C_18  and  O_19 
ROOT
HETATM    1  C   UNL     1     -40.544  54.069 -52.394  1.00  0.00     0.254 C 
HETATM    2  N   UNL     1     -40.773  54.547 -53.662  1.00  0.00    -0.356 N 
HETATM    3  O   UNL     1     -40.610  54.787 -51.400  1.00  0.00    -0.268 OA
HETATM    4  H   UNL     1     -40.842  53.856 -54.407  1.00  0.00     0.162 HD
ENDROOT
BRANCH   2   5
HETATM    5  C   UNL     1     -41.243  55.898 -53.898  1.00  0.00     0.136 C 
BRANCH   5   6
HETATM    6  C   UNL     1     -42.756  55.979 -54.255  1.00  0.00    -0.004 C 
HETATM    7  C   UNL     1     -42.911  56.874 -55.506  1.00  0.00     0.021 C 
HETATM    8  C   UNL     1     -43.227  54.559 -54.651  1.00  0.00     0.021 C 
BRANCH   6   9
HETATM    9  C   UNL     1     -43.576  56.604 -53.109  1.00  0.00    -0.046 A 
HETATM   10  C   UNL     1     -43.608  55.999 -51.842  1.00  0.00     0.027 A 
HETATM   11  C   UNL     1     -44.357  56.575 -50.825  1.00  0.00     0.116 A 
HETATM   12  N   UNL     1     -45.071  57.708 -50.967  1.00  0.00    -0.273 NA
HETATM   13  C   UNL     1     -45.025  58.292 -52.181  1.00  0.00     0.116 A 
HETATM   14  C   UNL     1     -44.308  57.789 -53.259  1.00  0.00     0.027 A 
ENDBRANCH   6   9
ENDBRANCH   5   6
ENDBRANCH   2   5
BRANCH   1  15
HETATM   15  C   UNL     1     -40.215  52.612 -52.260  1.00  0.00     0.065 A 
HETATM   16  C   UNL     1     -40.023  51.891 -53.452  1.00  0.00     0.026 A 
HETATM   17  C   UNL     1     -39.717  50.522 -53.435  1.00  0.00    -0.061 A 
HETATM   18  C   UNL     1     -39.492  49.769 -54.712  1.00  0.00     0.048 C 
HETATM   19  C   UNL     1     -39.591  49.871 -52.204  1.00  0.00     0.009 A 
HETATM   20  C   UNL     1     -39.772  50.572 -51.010  1.00  0.00     0.038 A 
HETATM   21  C   UNL     1     -40.079  51.936 -51.037  1.00  0.00     0.081 A 
BRANCH  21  22
HETATM   22  O   UNL     1     -40.234  52.595 -49.844  1.00  0.00    -0.360 OA
HETATM   23  H   UNL     1     -41.171  52.555 -49.581  1.00  0.00     0.217 HD
ENDBRANCH  21  22
ENDBRANCH   1  15
TORSDOF 5
ENDMDL
MODEL 5
REMARK VINA RESULT:      -7.2      4.060      6.677
REMARK  5 active torsions:
REMARK  status: ('A' for Active; 'I' for Inactive)
REMARK    1  A    between atoms: C_4  and  C_5 
REMARK       I    between atoms: C_5  and  N_6 
REMARK    2  A    between atoms: N_6  and  C_7 
REMARK    3  A    between atoms: C_7  and  C_8 
REMARK    4  A    between atoms: C_8  and  C_9 
REMARK    5  A    between atoms: C_18  and  O_19 
ROOT
HETATM    1  C   UNL     1     -42.145  56.804 -56.289  1.00  0.00     0.254 C 
HETATM    2  N   UNL     1     -41.520  55.649 -55.883  1.00  0.00    -0.356 N 
HETATM    3  O   UNL     1     -42.277  57.774 -55.548  1.00  0.00    -0.268 OA
HETATM    4  H   UNL     1     -41.325  54.956 -56.603  1.00  0.00     0.162 HD
ENDROOT
BRANCH   2   5
HETATM    5  C   UNL     1     -40.855  55.550 -54.599  1.00  0.00     0.136 C 
BRANCH   5   6
HETATM    6  C   UNL     1     -41.643  54.710 -53.551  1.00  0.00    -0.004 C 
HETATM    7  C   UNL     1     -41.876  55.589 -52.301  1.00  0.00     0.021 C 
HETATM    8  C   UNL     1     -43.034  54.391 -54.149  1.00  0.00     0.021 C 
BRANCH   6   9
HETATM    9  C   UNL     1     -40.855  53.457 -53.121  1.00  0.00    -0.046 A 
HETATM   10  C   UNL     1     -40.435  52.515 -54.074  1.00  0.00     0.027 A 
HETATM   11  C   UNL     1     -39.730  51.391 -53.665  1.00  0.00     0.116 A 
HETATM   12  N   UNL     1     -39.406  51.133 -52.384  1.00  0.00    -0.273 NA
HETATM   13  C   UNL     1     -39.799  52.047 -51.475  1.00  0.00     0.116 A 
HETATM   14  C   UNL     1     -40.510  53.199 -51.787  1.00  0.00     0.027 A 
ENDBRANCH   6   9
ENDBRANCH   5   6
ENDBRANCH   2   5
BRANCH   1  15
HETATM   15  C   UNL     1     -42.660  56.845 -57.697  1.00  0.00     0.065 A 
HETATM   16  C   UNL     1     -43.353  55.710 -58.154  1.00  0.00     0.026 A 
HETATM   17  C   UNL     1     -43.870  55.648 -59.457  1.00  0.00    -0.061 A 
HETATM   18  C   UNL     1     -44.628  54.443 -59.925  1.00  0.00     0.048 C 
HETATM   19  C   UNL     1     -43.697  56.744 -60.308  1.00  0.00     0.009 A 
HETATM   20  C   UNL     1     -43.017  57.881 -59.869  1.00  0.00     0.038 A 
HETATM   21  C   UNL     1     -42.503  57.934 -58.570  1.00  0.00     0.081 A 
BRANCH  21  22
HETATM   22  O   UNL     1     -41.853  59.074 -58.169  1.00  0.00    -0.360 OA
HETATM   23  H   UNL     1     -42.475  59.822 -58.209  1.00  0.00     0.217 HD
ENDBRANCH  21  22
ENDBRANCH   1  15
TORSDOF 5
ENDMDL
MODEL 6
REMARK VINA RESULT:      -7.0      4.127      7.134
REMARK  5 active torsions:
REMARK  status: ('A' for Active; 'I' for Inactive)
REMARK    1  A    between atoms: C_4  and  C_5 
REMARK       I    between atoms: C_5  and  N_6 
REMARK    2  A    between atoms: N_6  and  C_7 
REMARK    3  A    between atoms: C_7  and  C_8 
REMARK    4  A    between atoms: C_8  and  C_9 
REMARK    5  A    between atoms: C_18  and  O_19 
ROOT
HETATM    1  C   UNL     1     -42.418  56.884 -56.390  1.00  0.00     0.254 C 
HETATM    2  N   UNL     1     -41.614  55.804 -56.112  1.00  0.00    -0.356 N 
HETATM    3  O   UNL     1     -42.870  57.609 -55.508  1.00  0.00    -0.268 OA
HETATM    4  H   UNL     1     -41.167  55.349 -56.906  1.00  0.00     0.162 HD
ENDROOT
BRANCH   2   5
HETATM    5  C   UNL     1     -41.137  55.530 -54.771  1.00  0.00     0.136 C 
BRANCH   5   6
HETATM    6  C   UNL     1     -41.943  54.418 -54.037  1.00  0.00    -0.004 C 
HETATM    7  C   UNL     1     -42.771  55.082 -52.914  1.00  0.00     0.021 C 
HETATM    8  C   UNL     1     -42.948  53.815 -55.047  1.00  0.00     0.021 C 
BRANCH   6   9
HETATM    9  C   UNL     1     -41.011  53.372 -53.396  1.00  0.00    -0.046 A 
HETATM   10  C   UNL     1     -40.708  53.429 -52.026  1.00  0.00     0.027 A 
HETATM   11  C   UNL     1     -39.863  52.479 -51.469  1.00  0.00     0.116 A 
HETATM   12  N   UNL     1     -39.298  51.475 -52.166  1.00  0.00    -0.273 NA
HETATM   13  C   UNL     1     -39.603  51.416 -53.477  1.00  0.00     0.116 A 
HETATM   14  C   UNL     1     -40.435  52.321 -54.124  1.00  0.00     0.027 A 
ENDBRANCH   6   9
ENDBRANCH   5   6
ENDBRANCH   2   5
BRANCH   1  15
HETATM   15  C   UNL     1     -42.719  57.160 -57.832  1.00  0.00     0.065 A 
HETATM   16  C   UNL     1     -42.266  58.385 -58.354  1.00  0.00     0.026 A 
HETATM   17  C   UNL     1     -42.501  58.740 -59.690  1.00  0.00    -0.061 A 
HETATM   18  C   UNL     1     -41.992  60.039 -60.240  1.00  0.00     0.048 C 
HETATM   19  C   UNL     1     -43.192  57.850 -60.517  1.00  0.00     0.009 A 
HETATM   20  C   UNL     1     -43.645  56.627 -60.018  1.00  0.00     0.038 A 
HETATM   21  C   UNL     1     -43.407  56.282 -58.685  1.00  0.00     0.081 A 
BRANCH  21  22
HETATM   22  O   UNL     1     -43.854  55.065 -58.234  1.00  0.00    -0.360 OA
HETATM   23  H   UNL     1     -43.417  54.360 -58.744  1.00  0.00     0.217 HD
ENDBRANCH  21  22
ENDBRANCH   1  15
TORSDOF 5
ENDMDL
MODEL 7
REMARK VINA RESULT:      -6.8      1.739      2.692
REMARK  5 active torsions:
REMARK  status: ('A' for Active; 'I' for Inactive)
REMARK    1  A    between atoms: C_4  and  C_5 
REMARK       I    between atoms: C_5  and  N_6 
REMARK    2  A    between atoms: N_6  and  C_7 
REMARK    3  A    between atoms: C_7  and  C_8 
REMARK    4  A    between atoms: C_8  and  C_9 
REMARK    5  A    between atoms: C_18  and  O_19 
ROOT
HETATM    1  C   UNL     1     -41.624  54.411 -53.368  1.00  0.00     0.254 C 
HETATM    2  N   UNL     1     -41.311  55.586 -52.728  1.00  0.00    -0.356 N 
HETATM    3  O   UNL     1     -42.463  54.354 -54.262  1.00  0.00    -0.268 OA
HETATM    4  H   UNL     1     -40.504  55.569 -52.106  1.00  0.00     0.162 HD
ENDROOT
BRANCH   2   5
HETATM    5  C   UNL     1     -41.852  56.860 -53.159  1.00  0.00     0.136 C 
BRANCH   5   6
HETATM    6  C   UNL     1     -41.645  58.007 -52.126  1.00  0.00    -0.004 C 
HETATM    7  C   UNL     1     -40.838  57.445 -50.933  1.00  0.00     0.021 C 
HETATM    8  C   UNL     1     -40.771  59.095 -52.794  1.00  0.00     0.021 C 
BRANCH   6   9
HETATM    9  C   UNL     1     -42.990  58.538 -51.593  1.00  0.00    -0.046 A 
HETATM   10  C   UNL     1     -44.130  57.718 -51.587  1.00  0.00     0.027 A 
HETATM   11  C   UNL     1     -45.333  58.218 -51.106  1.00  0.00     0.116 A 
HETATM   12  N   UNL     1     -45.489  59.467 -50.626  1.00  0.00    -0.273 NA
HETATM   13  C   UNL     1     -44.389  60.244 -50.621  1.00  0.00     0.116 A 
HETATM   14  C   UNL     1     -43.144  59.835 -51.084  1.00  0.00     0.027 A 
ENDBRANCH   6   9
ENDBRANCH   5   6
ENDBRANCH   2   5
BRANCH   1  15
HETATM   15  C   UNL     1     -40.884  53.179 -52.939  1.00  0.00     0.065 A 
HETATM   16  C   UNL     1     -40.632  52.211 -53.928  1.00  0.00     0.026 A 
HETATM   17  C   UNL     1     -39.951  51.023 -53.628  1.00  0.00    -0.061 A 
HETATM   18  C   UNL     1     -39.668  50.009 -54.696  1.00  0.00     0.048 C 
HETATM   19  C   UNL     1     -39.508  50.807 -52.320  1.00  0.00     0.009 A 
HETATM   20  C   UNL     1     -39.744  51.759 -51.326  1.00  0.00     0.038 A 
HETATM   21  C   UNL     1     -40.425  52.940 -51.634  1.00  0.00     0.081 A 
BRANCH  21  22
HETATM   22  O   UNL     1     -40.625  53.859 -50.635  1.00  0.00    -0.360 OA
HETATM   23  H   UNL     1     -40.226  53.524 -49.813  1.00  0.00     0.217 HD
ENDBRANCH  21  22
ENDBRANCH   1  15
TORSDOF 5
ENDMDL
MODEL 8
REMARK VINA RESULT:      -6.8      2.228      7.165
REMARK  5 active torsions:
REMARK  status: ('A' for Active; 'I' for Inactive)
REMARK    1  A    between atoms: C_4  and  C_5 
REMARK       I    between atoms: C_5  and  N_6 
REMARK    2  A    between atoms: N_6  and  C_7 
REMARK    3  A    between atoms: C_7  and  C_8 
REMARK    4  A    between atoms: C_8  and  C_9 
REMARK    5  A    between atoms: C_18  and  O_19 
ROOT
HETATM    1  C   UNL     1     -43.401  55.899 -52.091  1.00  0.00     0.254 C 
HETATM    2  N   UNL     1     -42.953  54.907 -52.929  1.00  0.00    -0.356 N 
HETATM    3  O   UNL     1     -43.458  55.754 -50.873  1.00  0.00    -0.268 OA
HETATM    4  H   UNL     1     -42.801  55.162 -53.903  1.00  0.00     0.162 HD
ENDROOT
BRANCH   2   5
HETATM    5  C   UNL     1     -42.388  53.672 -52.420  1.00  0.00     0.136 C 
BRANCH   5   6
HETATM    6  C   UNL     1     -40.843  53.577 -52.587  1.00  0.00    -0.004 C 
HETATM    7  C   UNL     1     -40.426  54.490 -53.762  1.00  0.00     0.021 C 
HETATM    8  C   UNL     1     -40.192  54.156 -51.308  1.00  0.00     0.021 C 
BRANCH   6   9
HETATM    9  C   UNL     1     -40.395  52.139 -52.910  1.00  0.00    -0.046 A 
HETATM   10  C   UNL     1     -39.873  51.311 -51.903  1.00  0.00     0.027 A 
HETATM   11  C   UNL     1     -39.471  50.019 -52.215  1.00  0.00     0.116 A 
HETATM   12  N   UNL     1     -39.552  49.485 -53.449  1.00  0.00    -0.273 NA
HETATM   13  C   UNL     1     -40.068  50.279 -54.408  1.00  0.00     0.116 A 
HETATM   14  C   UNL     1     -40.493  51.584 -54.193  1.00  0.00     0.027 A 
ENDBRANCH   6   9
ENDBRANCH   5   6
ENDBRANCH   2   5
BRANCH   1  15
HETATM   15  C   UNL     1     -43.816  57.194 -52.724  1.00  0.00     0.065 A 
HETATM   16  C   UNL     1     -43.323  58.375 -52.139  1.00  0.00     0.026 A 
HETATM   17  C   UNL     1     -43.656  59.636 -52.653  1.00  0.00    -0.061 A 
HETATM   18  C   UNL     1     -43.105  60.886 -52.035  1.00  0.00     0.048 C 
HETATM   19  C   UNL     1     -44.486  59.714 -53.775  1.00  0.00     0.009 A 
HETATM   20  C   UNL     1     -44.980  58.553 -54.372  1.00  0.00     0.038 A 
HETATM   21  C   UNL     1     -44.645  57.299 -53.852  1.00  0.00     0.081 A 
BRANCH  21  22
HETATM   22  O   UNL     1     -45.137  56.180 -54.475  1.00  0.00    -0.360 OA
HETATM   23  H   UNL     1     -44.394  55.674 -54.848  1.00  0.00     0.217 HD
ENDBRANCH  21  22
ENDBRANCH   1  15
TORSDOF 5
ENDMDL
MODEL 9
REMARK VINA RESULT:      -6.7      2.134      3.417
REMARK  5 active torsions:
REMARK  status: ('A' for Active; 'I' for Inactive)
REMARK    1  A    between atoms: C_4  and  C_5 
REMARK       I    between atoms: C_5  and  N_6 
REMARK    2  A    between atoms: N_6  and  C_7 
REMARK    3  A    between atoms: C_7  and  C_8 
REMARK    4  A    between atoms: C_8  and  C_9 
REMARK    5  A    between atoms: C_18  and  O_19 
ROOT
HETATM    1  C   UNL     1     -40.843  53.847 -51.914  1.00  0.00     0.254 C 
HETATM    2  N   UNL     1     -41.714  54.213 -52.912  1.00  0.00    -0.356 N 
HETATM    3  O   UNL     1     -40.449  54.639 -51.063  1.00  0.00    -0.268 OA
HETATM    4  H   UNL     1     -42.100  53.463 -53.483  1.00  0.00     0.162 HD
ENDROOT
BRANCH   2   5
HETATM    5  C   UNL     1     -42.331  55.524 -52.946  1.00  0.00     0.136 C 
BRANCH   5   6
HETATM    6  C   UNL     1     -41.821  56.425 -54.109  1.00  0.00    -0.004 C 
HETATM    7  C   UNL     1     -40.981  57.572 -53.501  1.00  0.00     0.021 C 
HETATM    8  C   UNL     1     -40.867  55.576 -54.983  1.00  0.00     0.021 C 
BRANCH   6   9
HETATM    9  C   UNL     1     -42.989  57.047 -54.898  1.00  0.00    -0.046 A 
HETATM   10  C   UNL     1     -42.813  57.461 -56.229  1.00  0.00     0.027 A 
HETATM   11  C   UNL     1     -43.876  58.023 -56.920  1.00  0.00     0.116 A 
HETATM   12  N   UNL     1     -45.104  58.202 -56.395  1.00  0.00    -0.273 NA
HETATM   13  C   UNL     1     -45.272  57.790 -55.123  1.00  0.00     0.116 A 
HETATM   14  C   UNL     1     -44.268  57.220 -54.350  1.00  0.00     0.027 A 
ENDBRANCH   6   9
ENDBRANCH   5   6
ENDBRANCH   2   5
BRANCH   1  15
HETATM   15  C   UNL     1     -40.391  52.417 -51.891  1.00  0.00     0.065 A 
HETATM   16  C   UNL     1     -40.147  51.807 -53.135  1.00  0.00     0.026 A 
HETATM   17  C   UNL     1     -39.726  50.472 -53.222  1.00  0.00    -0.061 A 
HETATM   18  C   UNL     1     -39.447  49.840 -54.552  1.00  0.00     0.048 C 
HETATM   19  C   UNL     1     -39.535  49.743 -52.044  1.00  0.00     0.009 A 
HETATM   20  C   UNL     1     -39.766  50.334 -50.800  1.00  0.00     0.038 A 
HETATM   21  C   UNL     1     -40.188  51.665 -50.723  1.00  0.00     0.081 A 
BRANCH  21  22
HETATM   22  O   UNL     1     -40.391  52.216 -49.483  1.00  0.00    -0.360 OA
HETATM   23  H   UNL     1     -41.348  52.321 -49.337  1.00  0.00     0.217 HD
ENDBRANCH  21  22
ENDBRANCH   1  15
TORSDOF 5
ENDMDL
MODEL 10
REMARK VINA RESULT:      -6.7      1.730      2.365
REMARK  5 active torsions:
REMARK  status: ('A' for Active; 'I' for Inactive)
REMARK    1  A    between atoms: C_4  and  C_5 
REMARK       I    between atoms: C_5  and  N_6 
REMARK    2  A    between atoms: N_6  and  C_7 
REMARK    3  A    between atoms: C_7  and  C_8 
REMARK    4  A    between atoms: C_8  and  C_9 
REMARK    5  A    between atoms: C_18  and  O_19 
ROOT
HETATM    1  C   UNL     1     -40.940  53.781 -52.020  1.00  0.00     0.254 C 
HETATM    2  N   UNL     1     -41.867  54.078 -52.991  1.00  0.00    -0.356 N 
HETATM    3  O   UNL     1     -40.543  54.618 -51.214  1.00  0.00    -0.268 OA
HETATM    4  H   UNL     1     -42.246  53.294 -53.519  1.00  0.00     0.162 HD
ENDROOT
BRANCH   2   5
HETATM    5  C   UNL     1     -42.538  55.362 -53.041  1.00  0.00     0.136 C 
BRANCH   5   6
HETATM    6  C   UNL     1     -42.205  56.191 -54.316  1.00  0.00    -0.004 C 
HETATM    7  C   UNL     1     -40.865  55.678 -54.891  1.00  0.00     0.021 C 
HETATM    8  C   UNL     1     -43.296  55.894 -55.373  1.00  0.00     0.021 C 
BRANCH   6   9
HETATM    9  C   UNL     1     -42.052  57.690 -53.994  1.00  0.00    -0.046 A 
HETATM   10  C   UNL     1     -42.237  58.658 -54.995  1.00  0.00     0.027 A 
HETATM   11  C   UNL     1     -42.089  60.003 -54.685  1.00  0.00     0.116 A 
HETATM   12  N   UNL     1     -41.777  60.461 -53.457  1.00  0.00    -0.273 NA
HETATM   13  C   UNL     1     -41.615  59.529 -52.498  1.00  0.00     0.116 A 
HETATM   14  C   UNL     1     -41.738  58.162 -52.712  1.00  0.00     0.027 A 
ENDBRANCH   6   9
ENDBRANCH   5   6
ENDBRANCH   2   5
BRANCH   1  15
HETATM   15  C   UNL     1     -40.429  52.372 -51.970  1.00  0.00     0.065 A 
HETATM   16  C   UNL     1     -40.179  51.742 -53.202  1.00  0.00     0.026 A 
HETATM   17  C   UNL     1     -39.704  50.424 -53.262  1.00  0.00    -0.061 A 
HETATM   18  C   UNL     1     -39.419  49.770 -54.581  1.00  0.00     0.048 C 
HETATM   19  C   UNL     1     -39.467  49.733 -52.070  1.00  0.00     0.009 A 
HETATM   20  C   UNL     1     -39.704  50.344 -50.838  1.00  0.00     0.038 A 
HETATM   21  C   UNL     1     -40.179  51.658 -50.787  1.00  0.00     0.081 A 
BRANCH  21  22
HETATM   22  O   UNL     1     -40.386  52.231 -49.558  1.00  0.00    -0.360 OA
HETATM   23  H   UNL     1     -39.885  53.065 -49.509  1.00  0.00     0.217 HD
ENDBRANCH  21  22
ENDBRANCH   1  15
TORSDOF 5
ENDMDL
