MODEL 1
REMARK VINA RESULT:      -8.2      0.000      0.000
REMARK  4 active torsions:
REMARK  status: ('A' for Active; 'I' for Inactive)
REMARK    1  A    between atoms: C_7  and  N_8 
REMARK       I    between atoms: N_8  and  C_9 
REMARK    2  A    between atoms: C_9  and  C_10 
REMARK    3  A    between atoms: C_10  and  C_11 
REMARK    4  A    between atoms: C_14  and  O_15 
ROOT
HETATM    1  N   UNL     1     -41.354  55.628 -55.574  1.00  0.00    -0.326 N 
HETATM    2  C   UNL     1     -42.624  56.122 -55.822  1.00  0.00     0.226 C 
HETATM    3  O   UNL     1     -43.640  55.843 -55.192  1.00  0.00    -0.273 OA
HETATM    4  H   UNL     1     -40.605  55.968 -56.164  1.00  0.00     0.169 HD
ENDROOT
BRANCH   1   5
HETATM    5  C   UNL     1     -40.994  54.710 -54.563  1.00  0.00     0.053 A 
HETATM    6  C   UNL     1     -40.927  54.997 -53.205  1.00  0.00     0.146 A 
HETATM    7  N   UNL     1     -40.578  54.097 -52.248  1.00  0.00    -0.258 NA
HETATM    8  C   UNL     1     -40.280  52.846 -52.632  1.00  0.00     0.066 A 
HETATM    9  C   UNL     1     -40.319  52.447 -53.983  1.00  0.00    -0.005 A 
HETATM   10  C   UNL     1     -39.923  51.906 -51.676  1.00  0.00     0.032 A 
HETATM   11  C   UNL     1     -40.006  51.120 -54.335  1.00  0.00     0.014 A 
HETATM   12  C   UNL     1     -40.676  53.405 -54.946  1.00  0.00     0.044 A 
HETATM   13  C   UNL     1     -39.655  50.195 -53.354  1.00  0.00     0.001 A 
HETATM   14  C   UNL     1     -39.611  50.589 -52.022  1.00  0.00     0.002 A 
ENDBRANCH   1   5
BRANCH   2  15
HETATM   15  C   UNL     1     -42.674  57.088 -56.997  1.00  0.00     0.141 C 
BRANCH  15  16
HETATM   16  C   UNL     1     -43.542  56.635 -58.148  1.00  0.00    -0.049 A 
HETATM   17  C   UNL     1     -44.607  57.447 -58.573  1.00  0.00     0.010 A 
HETATM   18  C   UNL     1     -45.388  57.084 -59.674  1.00  0.00     0.037 A 
HETATM   19  C   UNL     1     -45.100  55.910 -60.359  1.00  0.00     0.065 A 
HETATM   20  C   UNL     1     -44.046  55.098 -59.964  1.00  0.00     0.037 A 
HETATM   21  C   UNL     1     -43.261  55.465 -58.869  1.00  0.00     0.010 A 
BRANCH  19  22
HETATM   22  O   UNL     1     -45.831  55.521 -61.442  1.00  0.00    -0.361 OA
HETATM   23  H   UNL     1     -45.743  54.560 -61.549  1.00  0.00     0.217 HD
ENDBRANCH  19  22
ENDBRANCH  15  16
ENDBRANCH   2  15
TORSDOF 4
ENDMDL
MODEL 2
REMARK VINA RESULT:      -8.1      2.372      7.866
REMARK  4 active torsions:
REMARK  status: ('A' for Active; 'I' for Inactive)
REMARK    1  A    between atoms: C_7  and  N_8 
REMARK       I    between atoms: N_8  and  C_9 
REMARK    2  A    between atoms: C_9  and  C_10 
REMARK    3  A    between atoms: C_10  and  C_11 
REMARK    4  A    between atoms: C_14  and  O_15 
ROOT
HETATM    1  N   UNL     1     -42.108  55.419 -54.541  1.00  0.00    -0.326 N 
HETATM    2  C   UNL     1     -40.850  54.944 -54.211  1.00  0.00     0.226 C 
HETATM    3  O   UNL     1     -39.843  55.030 -54.909  1.00  0.00    -0.273 OA
HETATM    4  H   UNL     1     -42.841  55.296 -53.852  1.00  0.00     0.169 HD
ENDROOT
BRANCH   1   5
HETATM    5  C   UNL     1     -42.470  56.079 -55.736  1.00  0.00     0.053 A 
HETATM    6  C   UNL     1     -42.426  57.452 -55.939  1.00  0.00     0.146 A 
HETATM    7  N   UNL     1     -42.778  58.067 -57.099  1.00  0.00    -0.258 NA
HETATM    8  C   UNL     1     -43.193  57.303 -58.121  1.00  0.00     0.066 A 
HETATM    9  C   UNL     1     -43.272  55.899 -58.024  1.00  0.00    -0.005 A 
HETATM   10  C   UNL     1     -43.556  57.903 -59.319  1.00  0.00     0.032 A 
HETATM   11  C   UNL     1     -43.706  55.140 -59.127  1.00  0.00     0.014 A 
HETATM   12  C   UNL     1     -42.908  55.298 -56.807  1.00  0.00     0.044 A 
HETATM   13  C   UNL     1     -44.060  55.768 -60.319  1.00  0.00     0.001 A 
HETATM   14  C   UNL     1     -43.988  57.153 -60.415  1.00  0.00     0.002 A 
ENDBRANCH   1   5
BRANCH   2  15
HETATM   15  C   UNL     1     -40.800  54.269 -52.848  1.00  0.00     0.141 C 
BRANCH  15  16
HETATM   16  C   UNL     1     -40.348  52.827 -52.876  1.00  0.00    -0.049 A 
HETATM   17  C   UNL     1     -39.853  52.234 -51.702  1.00  0.00     0.010 A 
HETATM   18  C   UNL     1     -39.486  50.886 -51.681  1.00  0.00     0.037 A 
HETATM   19  C   UNL     1     -39.621  50.123 -52.835  1.00  0.00     0.065 A 
HETATM   20  C   UNL     1     -40.119  50.684 -54.003  1.00  0.00     0.037 A 
HETATM   21  C   UNL     1     -40.493  52.030 -54.021  1.00  0.00     0.010 A 
BRANCH  19  22
HETATM   22  O   UNL     1     -39.283  48.802 -52.859  1.00  0.00    -0.361 OA
HETATM   23  H   UNL     1     -38.658  48.627 -52.137  1.00  0.00     0.217 HD
ENDBRANCH  19  22
ENDBRANCH  15  16
ENDBRANCH   2  15
TORSDOF 4
ENDMDL
MODEL 3
REMARK VINA RESULT:      -7.6      3.639      7.938
REMARK  4 active torsions:
REMARK  status: ('A' for Active; 'I' for Inactive)
REMARK    1  A    between atoms: C_7  and  N_8 
REMARK       I    between atoms: N_8  and  C_9 
REMARK    2  A    between atoms: C_9  and  C_10 
REMARK    3  A    between atoms: C_10  and  C_11 
REMARK    4  A    between atoms: C_14  and  O_15 
ROOT
HETATM    1  N   UNL     1     -40.725  55.628 -54.251  1.00  0.00    -0.326 N 
HETATM    2  C   UNL     1     -41.358  54.401 -54.370  1.00  0.00     0.226 C 
HETATM    3  O   UNL     1     -42.539  54.176 -54.126  1.00  0.00    -0.273 OA
HETATM    4  H   UNL     1     -39.747  55.667 -54.511  1.00  0.00     0.169 HD
ENDROOT
BRANCH   1   5
HETATM    5  C   UNL     1     -41.314  56.837 -53.822  1.00  0.00     0.053 A 
HETATM    6  C   UNL     1     -42.207  57.602 -54.562  1.00  0.00     0.146 A 
HETATM    7  N   UNL     1     -42.762  58.764 -54.129  1.00  0.00    -0.258 NA
HETATM    8  C   UNL     1     -42.434  59.207 -52.906  1.00  0.00     0.066 A 
HETATM    9  C   UNL     1     -41.540  58.508 -52.070  1.00  0.00    -0.005 A 
HETATM   10  C   UNL     1     -42.989  60.390 -52.436  1.00  0.00     0.032 A 
HETATM   11  C   UNL     1     -41.234  59.009 -50.790  1.00  0.00     0.014 A 
HETATM   12  C   UNL     1     -40.979  57.314 -52.553  1.00  0.00     0.044 A 
HETATM   13  C   UNL     1     -41.808  60.197 -50.343  1.00  0.00     0.001 A 
HETATM   14  C   UNL     1     -42.686  60.890 -51.168  1.00  0.00     0.002 A 
ENDBRANCH   1   5
BRANCH   2  15
HETATM   15  C   UNL     1     -40.433  53.291 -54.849  1.00  0.00     0.141 C 
BRANCH  15  16
HETATM   16  C   UNL     1     -40.175  52.204 -53.831  1.00  0.00    -0.049 A 
HETATM   17  C   UNL     1     -40.044  50.872 -54.260  1.00  0.00     0.010 A 
HETATM   18  C   UNL     1     -39.744  49.854 -53.351  1.00  0.00     0.037 A 
HETATM   19  C   UNL     1     -39.565  50.167 -52.009  1.00  0.00     0.065 A 
HETATM   20  C   UNL     1     -39.678  51.477 -51.564  1.00  0.00     0.037 A 
HETATM   21  C   UNL     1     -39.971  52.496 -52.474  1.00  0.00     0.010 A 
BRANCH  19  22
HETATM   22  O   UNL     1     -39.264  49.208 -51.089  1.00  0.00    -0.361 OA
HETATM   23  H   UNL     1     -39.907  48.485 -51.169  1.00  0.00     0.217 HD
ENDBRANCH  19  22
ENDBRANCH  15  16
ENDBRANCH   2  15
TORSDOF 4
ENDMDL
MODEL 4
REMARK VINA RESULT:      -7.6      4.417      6.099
REMARK  4 active torsions:
REMARK  status: ('A' for Active; 'I' for Inactive)
REMARK    1  A    between atoms: C_7  and  N_8 
REMARK       I    between atoms: N_8  and  C_9 
REMARK    2  A    between atoms: C_9  and  C_10 
REMARK    3  A    between atoms: C_10  and  C_11 
REMARK    4  A    between atoms: C_14  and  O_15 
ROOT
HETATM    1  N   UNL     1     -41.344  55.437 -52.213  1.00  0.00    -0.326 N 
HETATM    2  C   UNL     1     -42.547  55.840 -52.766  1.00  0.00     0.226 C 
HETATM    3  O   UNL     1     -43.407  55.100 -53.236  1.00  0.00    -0.273 OA
HETATM    4  H   UNL     1     -40.742  56.163 -51.842  1.00  0.00     0.169 HD
ENDROOT
BRANCH   1   5
HETATM    5  C   UNL     1     -40.878  54.110 -52.093  1.00  0.00     0.053 A 
HETATM    6  C   UNL     1     -40.559  53.476 -50.899  1.00  0.00     0.146 A 
HETATM    7  N   UNL     1     -40.112  52.196 -50.807  1.00  0.00    -0.258 NA
HETATM    8  C   UNL     1     -39.971  51.490 -51.939  1.00  0.00     0.066 A 
HETATM    9  C   UNL     1     -40.270  52.035 -53.204  1.00  0.00    -0.005 A 
HETATM   10  C   UNL     1     -39.520  50.179 -51.875  1.00  0.00     0.032 A 
HETATM   11  C   UNL     1     -40.114  51.251 -54.363  1.00  0.00     0.014 A 
HETATM   12  C   UNL     1     -40.721  53.363 -53.263  1.00  0.00     0.044 A 
HETATM   13  C   UNL     1     -39.662  49.936 -54.269  1.00  0.00     0.001 A 
HETATM   14  C   UNL     1     -39.362  49.399 -53.023  1.00  0.00     0.002 A 
ENDBRANCH   1   5
BRANCH   2  15
HETATM   15  C   UNL     1     -42.740  57.350 -52.752  1.00  0.00     0.141 C 
BRANCH  15  16
HETATM   16  C   UNL     1     -41.577  58.128 -52.181  1.00  0.00    -0.049 A 
HETATM   17  C   UNL     1     -41.600  58.515 -50.830  1.00  0.00     0.010 A 
HETATM   18  C   UNL     1     -40.513  59.181 -50.258  1.00  0.00     0.037 A 
HETATM   19  C   UNL     1     -39.393  59.454 -51.035  1.00  0.00     0.065 A 
HETATM   20  C   UNL     1     -39.343  59.070 -52.368  1.00  0.00     0.037 A 
HETATM   21  C   UNL     1     -40.427  58.398 -52.938  1.00  0.00     0.010 A 
BRANCH  19  22
HETATM   22  O   UNL     1     -38.306  60.093 -50.517  1.00  0.00    -0.361 OA
HETATM   23  H   UNL     1     -37.633  59.431 -50.291  1.00  0.00     0.217 HD
ENDBRANCH  19  22
ENDBRANCH  15  16
ENDBRANCH   2  15
TORSDOF 4
ENDMDL
MODEL 5
REMARK VINA RESULT:      -7.5      4.310      6.411
REMARK  4 active torsions:
REMARK  status: ('A' for Active; 'I' for Inactive)
REMARK    1  A    between atoms: C_7  and  N_8 
REMARK       I    between atoms: N_8  and  C_9 
REMARK    2  A    between atoms: C_9  and  C_10 
REMARK    3  A    between atoms: C_10  and  C_11 
REMARK    4  A    between atoms: C_14  and  O_15 
ROOT
HETATM    1  N   UNL     1     -40.955  55.542 -53.274  1.00  0.00    -0.326 N 
HETATM    2  C   UNL     1     -42.185  56.090 -52.949  1.00  0.00     0.226 C 
HETATM    3  O   UNL     1     -43.201  55.462 -52.668  1.00  0.00    -0.273 OA
HETATM    4  H   UNL     1     -40.198  56.188 -53.460  1.00  0.00     0.169 HD
ENDROOT
BRANCH   1   5
HETATM    5  C   UNL     1     -40.644  54.166 -53.350  1.00  0.00     0.053 A 
HETATM    6  C   UNL     1     -40.526  53.435 -54.525  1.00  0.00     0.146 A 
HETATM    7  N   UNL     1     -40.226  52.110 -54.576  1.00  0.00    -0.258 NA
HETATM    8  C   UNL     1     -40.024  51.461 -53.419  1.00  0.00     0.066 A 
HETATM    9  C   UNL     1     -40.116  52.108 -52.171  1.00  0.00    -0.005 A 
HETATM   10  C   UNL     1     -39.712  50.108 -53.442  1.00  0.00     0.032 A 
HETATM   11  C   UNL     1     -39.887  51.384 -50.984  1.00  0.00     0.014 A 
HETATM   12  C   UNL     1     -40.436  53.475 -52.155  1.00  0.00     0.044 A 
HETATM   13  C   UNL     1     -39.571  50.028 -51.036  1.00  0.00     0.001 A 
HETATM   14  C   UNL     1     -39.486  49.388 -52.267  1.00  0.00     0.002 A 
ENDBRANCH   1   5
BRANCH   2  15
HETATM   15  C   UNL     1     -42.188  57.613 -52.968  1.00  0.00     0.141 C 
BRANCH  15  16
HETATM   16  C   UNL     1     -41.095  58.254 -52.144  1.00  0.00    -0.049 A 
HETATM   17  C   UNL     1     -39.879  58.600 -52.756  1.00  0.00     0.010 A 
HETATM   18  C   UNL     1     -38.874  59.250 -52.035  1.00  0.00     0.037 A 
HETATM   19  C   UNL     1     -39.088  59.566 -50.698  1.00  0.00     0.065 A 
HETATM   20  C   UNL     1     -40.286  59.245 -50.075  1.00  0.00     0.037 A 
HETATM   21  C   UNL     1     -41.293  58.601 -50.799  1.00  0.00     0.010 A 
BRANCH  19  22
HETATM   22  O   UNL     1     -38.139  60.207 -49.958  1.00  0.00    -0.361 OA
HETATM   23  H   UNL     1     -38.505  61.051 -49.646  1.00  0.00     0.217 HD
ENDBRANCH  19  22
ENDBRANCH  15  16
ENDBRANCH   2  15
TORSDOF 4
ENDMDL
MODEL 6
REMARK VINA RESULT:      -7.5      2.109      3.197
REMARK  4 active torsions:
REMARK  status: ('A' for Active; 'I' for Inactive)
REMARK    1  A    between atoms: C_7  and  N_8 
REMARK       I    between atoms: N_8  and  C_9 
REMARK    2  A    between atoms: C_9  and  C_10 
REMARK    3  A    between atoms: C_10  and  C_11 
REMARK    4  A    between atoms: C_14  and  O_15 
ROOT
HETATM    1  N   UNL     1     -41.484  55.022 -55.795  1.00  0.00    -0.326 N 
HETATM    2  C   UNL     1     -42.757  55.529 -55.989  1.00  0.00     0.226 C 
HETATM    3  O   UNL     1     -43.707  55.401 -55.221  1.00  0.00    -0.273 OA
HETATM    4  H   UNL     1     -40.793  55.229 -56.506  1.00  0.00     0.169 HD
ENDROOT
BRANCH   1   5
HETATM    5  C   UNL     1     -41.043  54.259 -54.691  1.00  0.00     0.053 A 
HETATM    6  C   UNL     1     -40.873  54.741 -53.399  1.00  0.00     0.146 A 
HETATM    7  N   UNL     1     -40.448  53.988 -52.351  1.00  0.00    -0.258 NA
HETATM    8  C   UNL     1     -40.177  52.692 -52.569  1.00  0.00     0.066 A 
HETATM    9  C   UNL     1     -40.319  52.100 -53.840  1.00  0.00    -0.005 A 
HETATM   10  C   UNL     1     -39.744  51.898 -51.515  1.00  0.00     0.032 A 
HETATM   11  C   UNL     1     -40.030  50.733 -54.016  1.00  0.00     0.014 A 
HETATM   12  C   UNL     1     -40.753  52.910 -54.902  1.00  0.00     0.044 A 
HETATM   13  C   UNL     1     -39.601  49.959 -52.940  1.00  0.00     0.001 A 
HETATM   14  C   UNL     1     -39.456  50.543 -51.687  1.00  0.00     0.002 A 
ENDBRANCH   1   5
BRANCH   2  15
HETATM   15  C   UNL     1     -42.906  56.300 -57.293  1.00  0.00     0.141 C 
BRANCH  15  16
HETATM   16  C   UNL     1     -42.451  57.740 -57.229  1.00  0.00    -0.049 A 
HETATM   17  C   UNL     1     -42.101  58.408 -58.414  1.00  0.00     0.010 A 
HETATM   18  C   UNL     1     -41.737  59.757 -58.394  1.00  0.00     0.037 A 
HETATM   19  C   UNL     1     -41.731  60.445 -57.186  1.00  0.00     0.065 A 
HETATM   20  C   UNL     1     -42.084  59.808 -56.004  1.00  0.00     0.037 A 
HETATM   21  C   UNL     1     -42.455  58.462 -56.026  1.00  0.00     0.010 A 
BRANCH  19  22
HETATM   22  O   UNL     1     -41.390  61.763 -57.120  1.00  0.00    -0.361 OA
HETATM   23  H   UNL     1     -40.609  61.856 -56.550  1.00  0.00     0.217 HD
ENDBRANCH  19  22
ENDBRANCH  15  16
ENDBRANCH   2  15
TORSDOF 4
ENDMDL
MODEL 7
REMARK VINA RESULT:      -7.4      2.577      8.123
REMARK  4 active torsions:
REMARK  status: ('A' for Active; 'I' for Inactive)
REMARK    1  A    between atoms: C_7  and  N_8 
REMARK       I    between atoms: N_8  and  C_9 
REMARK    2  A    between atoms: C_9  and  C_10 
REMARK    3  A    between atoms: C_10  and  C_11 
REMARK    4  A    between atoms: C_14  and  O_15 
ROOT
HETATM    1  N   UNL     1     -42.289  55.266 -55.006  1.00  0.00    -0.326 N 
HETATM    2  C   UNL     1     -41.076  54.874 -54.465  1.00  0.00     0.226 C 
HETATM    3  O   UNL     1     -39.974  55.028 -54.984  1.00  0.00    -0.273 OA
HETATM    4  H   UNL     1     -43.117  55.094 -54.450  1.00  0.00     0.169 HD
ENDROOT
BRANCH   1   5
HETATM    5  C   UNL     1     -42.486  55.904 -56.250  1.00  0.00     0.053 A 
HETATM    6  C   UNL     1     -42.959  55.288 -57.402  1.00  0.00     0.146 A 
HETATM    7  N   UNL     1     -43.141  55.922 -58.590  1.00  0.00    -0.258 NA
HETATM    8  C   UNL     1     -42.851  57.230 -58.662  1.00  0.00     0.066 A 
HETATM    9  C   UNL     1     -42.368  57.953 -57.554  1.00  0.00    -0.005 A 
HETATM   10  C   UNL     1     -43.031  57.903 -59.863  1.00  0.00     0.032 A 
HETATM   11  C   UNL     1     -42.086  59.327 -57.677  1.00  0.00     0.014 A 
HETATM   12  C   UNL     1     -42.184  57.264 -56.343  1.00  0.00     0.044 A 
HETATM   13  C   UNL     1     -42.280  59.979 -58.893  1.00  0.00     0.001 A 
HETATM   14  C   UNL     1     -42.751  59.266 -59.989  1.00  0.00     0.002 A 
ENDBRANCH   1   5
BRANCH   2  15
HETATM   15  C   UNL     1     -41.213  54.199 -53.107  1.00  0.00     0.141 C 
BRANCH  15  16
HETATM   16  C   UNL     1     -40.708  52.776 -53.058  1.00  0.00    -0.049 A 
HETATM   17  C   UNL     1     -40.852  51.951 -54.187  1.00  0.00     0.010 A 
HETATM   18  C   UNL     1     -40.341  50.651 -54.192  1.00  0.00     0.037 A 
HETATM   19  C   UNL     1     -39.674  50.173 -53.069  1.00  0.00     0.065 A 
HETATM   20  C   UNL     1     -39.510  50.974 -51.947  1.00  0.00     0.037 A 
HETATM   21  C   UNL     1     -40.015  52.276 -51.945  1.00  0.00     0.010 A 
BRANCH  19  22
HETATM   22  O   UNL     1     -39.152  48.915 -53.033  1.00  0.00    -0.361 OA
HETATM   23  H   UNL     1     -38.734  48.775 -52.168  1.00  0.00     0.217 HD
ENDBRANCH  19  22
ENDBRANCH  15  16
ENDBRANCH   2  15
TORSDOF 4
ENDMDL
MODEL 8
REMARK VINA RESULT:      -7.4      1.145      2.048
REMARK  4 active torsions:
REMARK  status: ('A' for Active; 'I' for Inactive)
REMARK    1  A    between atoms: C_7  and  N_8 
REMARK       I    between atoms: N_8  and  C_9 
REMARK    2  A    between atoms: C_9  and  C_10 
REMARK    3  A    between atoms: C_10  and  C_11 
REMARK    4  A    between atoms: C_14  and  O_15 
ROOT
HETATM    1  N   UNL     1     -41.362  55.769 -55.755  1.00  0.00    -0.326 N 
HETATM    2  C   UNL     1     -42.614  56.299 -56.020  1.00  0.00     0.226 C 
HETATM    3  O   UNL     1     -43.635  56.087 -55.373  1.00  0.00    -0.273 OA
HETATM    4  H   UNL     1     -40.604  56.054 -56.364  1.00  0.00     0.169 HD
ENDROOT
BRANCH   1   5
HETATM    5  C   UNL     1     -41.030  54.884 -54.707  1.00  0.00     0.053 A 
HETATM    6  C   UNL     1     -40.525  53.600 -54.870  1.00  0.00     0.146 A 
HETATM    7  N   UNL     1     -40.211  52.764 -53.845  1.00  0.00    -0.258 NA
HETATM    8  C   UNL     1     -40.396  53.202 -52.590  1.00  0.00     0.066 A 
HETATM    9  C   UNL     1     -40.899  54.489 -52.311  1.00  0.00    -0.005 A 
HETATM   10  C   UNL     1     -40.081  52.371 -51.524  1.00  0.00     0.032 A 
HETATM   11  C   UNL     1     -41.067  54.906 -50.977  1.00  0.00     0.014 A 
HETATM   12  C   UNL     1     -41.220  55.323 -53.395  1.00  0.00     0.044 A 
HETATM   13  C   UNL     1     -40.739  54.052 -49.925  1.00  0.00     0.001 A 
HETATM   14  C   UNL     1     -40.247  52.781 -50.199  1.00  0.00     0.002 A 
ENDBRANCH   1   5
BRANCH   2  15
HETATM   15  C   UNL     1     -42.635  57.214 -57.236  1.00  0.00     0.141 C 
BRANCH  15  16
HETATM   16  C   UNL     1     -43.477  56.712 -58.387  1.00  0.00    -0.049 A 
HETATM   17  C   UNL     1     -44.256  57.621 -59.122  1.00  0.00     0.010 A 
HETATM   18  C   UNL     1     -44.996  57.197 -60.229  1.00  0.00     0.037 A 
HETATM   19  C   UNL     1     -44.951  55.860 -60.610  1.00  0.00     0.065 A 
HETATM   20  C   UNL     1     -44.179  54.947 -59.905  1.00  0.00     0.037 A 
HETATM   21  C   UNL     1     -43.434  55.373 -58.803  1.00  0.00     0.010 A 
BRANCH  19  22
HETATM   22  O   UNL     1     -45.650  55.404 -61.687  1.00  0.00    -0.361 OA
HETATM   23  H   UNL     1     -45.831  54.458 -61.564  1.00  0.00     0.217 HD
ENDBRANCH  19  22
ENDBRANCH  15  16
ENDBRANCH   2  15
TORSDOF 4
ENDMDL
MODEL 9
REMARK VINA RESULT:      -7.4      4.026      7.783
REMARK  4 active torsions:
REMARK  status: ('A' for Active; 'I' for Inactive)
REMARK    1  A    between atoms: C_7  and  N_8 
REMARK       I    between atoms: N_8  and  C_9 
REMARK    2  A    between atoms: C_9  and  C_10 
REMARK    3  A    between atoms: C_10  and  C_11 
REMARK    4  A    between atoms: C_14  and  O_15 
ROOT
HETATM    1  N   UNL     1     -40.908  55.345 -51.686  1.00  0.00    -0.326 N 
HETATM    2  C   UNL     1     -41.197  54.194 -50.973  1.00  0.00     0.226 C 
HETATM    3  O   UNL     1     -42.279  53.916 -50.464  1.00  0.00    -0.273 OA
HETATM    4  H   UNL     1     -39.974  55.427 -52.069  1.00  0.00     0.169 HD
ENDROOT
BRANCH   1   5
HETATM    5  C   UNL     1     -41.794  56.412 -51.952  1.00  0.00     0.053 A 
HETATM    6  C   UNL     1     -41.947  57.545 -51.163  1.00  0.00     0.146 A 
HETATM    7  N   UNL     1     -42.806  58.561 -51.438  1.00  0.00    -0.258 NA
HETATM    8  C   UNL     1     -43.557  58.473 -52.547  1.00  0.00     0.066 A 
HETATM    9  C   UNL     1     -43.479  57.369 -53.420  1.00  0.00    -0.005 A 
HETATM   10  C   UNL     1     -44.441  59.497 -52.855  1.00  0.00     0.032 A 
HETATM   11  C   UNL     1     -44.283  57.327 -54.575  1.00  0.00     0.014 A 
HETATM   12  C   UNL     1     -42.586  56.334 -53.100  1.00  0.00     0.044 A 
HETATM   13  C   UNL     1     -45.159  58.372 -54.863  1.00  0.00     0.001 A 
HETATM   14  C   UNL     1     -45.241  59.458 -54.000  1.00  0.00     0.002 A 
ENDBRANCH   1   5
BRANCH   2  15
HETATM   15  C   UNL     1     -40.012  53.245 -50.856  1.00  0.00     0.141 C 
BRANCH  15  16
HETATM   16  C   UNL     1     -39.924  52.210 -51.955  1.00  0.00    -0.049 A 
HETATM   17  C   UNL     1     -39.593  50.884 -51.630  1.00  0.00     0.010 A 
HETATM   18  C   UNL     1     -39.564  49.893 -52.615  1.00  0.00     0.037 A 
HETATM   19  C   UNL     1     -39.877  50.225 -53.928  1.00  0.00     0.065 A 
HETATM   20  C   UNL     1     -40.218  51.526 -54.270  1.00  0.00     0.037 A 
HETATM   21  C   UNL     1     -40.254  52.515 -53.284  1.00  0.00     0.010 A 
BRANCH  19  22
HETATM   22  O   UNL     1     -39.870  49.289 -54.919  1.00  0.00    -0.361 OA
HETATM   23  H   UNL     1     -38.970  48.934 -55.007  1.00  0.00     0.217 HD
ENDBRANCH  19  22
ENDBRANCH  15  16
ENDBRANCH   2  15
TORSDOF 4
ENDMDL
MODEL 10
REMARK VINA RESULT:      -7.3      1.744      2.197
REMARK  4 active torsions:
REMARK  status: ('A' for Active; 'I' for Inactive)
REMARK    1  A    between atoms: C_7  and  N_8 
REMARK       I    between atoms: N_8  and  C_9 
REMARK    2  A    between atoms: C_9  and  C_10 
REMARK    3  A    between atoms: C_10  and  C_11 
REMARK    4  A    between atoms: C_14  and  O_15 
ROOT
HETATM    1  N   UNL     1     -41.074  55.196 -55.215  1.00  0.00    -0.326 N 
HETATM    2  C   UNL     1     -42.287  55.311 -55.873  1.00  0.00     0.226 C 
HETATM    3  O   UNL     1     -43.258  54.575 -55.725  1.00  0.00    -0.273 OA
HETATM    4  H   UNL     1     -40.370  55.894 -55.423  1.00  0.00     0.169 HD
ENDROOT
BRANCH   1   5
HETATM    5  C   UNL     1     -40.725  54.212 -54.264  1.00  0.00     0.053 A 
HETATM    6  C   UNL     1     -40.594  54.427 -52.898  1.00  0.00     0.146 A 
HETATM    7  N   UNL     1     -40.258  53.465 -52.000  1.00  0.00    -0.258 NA
HETATM    8  C   UNL     1     -40.039  52.221 -52.455  1.00  0.00     0.066 A 
HETATM    9  C   UNL     1     -40.149  51.892 -53.821  1.00  0.00    -0.005 A 
HETATM   10  C   UNL     1     -39.698  51.217 -51.559  1.00  0.00     0.032 A 
HETATM   11  C   UNL     1     -39.918  50.571 -54.248  1.00  0.00     0.014 A 
HETATM   12  C   UNL     1     -40.490  52.914 -54.722  1.00  0.00     0.044 A 
HETATM   13  C   UNL     1     -39.580  49.581 -53.326  1.00  0.00     0.001 A 
HETATM   14  C   UNL     1     -39.467  49.905 -51.979  1.00  0.00     0.002 A 
ENDBRANCH   1   5
BRANCH   2  15
HETATM   15  C   UNL     1     -42.334  56.479 -56.848  1.00  0.00     0.141 C 
BRANCH  15  16
HETATM   16  C   UNL     1     -43.686  57.144 -56.970  1.00  0.00    -0.049 A 
HETATM   17  C   UNL     1     -44.244  57.786 -55.851  1.00  0.00     0.010 A 
HETATM   18  C   UNL     1     -45.463  58.462 -55.949  1.00  0.00     0.037 A 
HETATM   19  C   UNL     1     -46.124  58.506 -57.171  1.00  0.00     0.065 A 
HETATM   20  C   UNL     1     -45.585  57.890 -58.292  1.00  0.00     0.037 A 
HETATM   21  C   UNL     1     -44.363  57.220 -58.196  1.00  0.00     0.010 A 
BRANCH  19  22
HETATM   22  O   UNL     1     -47.311  59.161 -57.315  1.00  0.00    -0.361 OA
HETATM   23  H   UNL     1     -47.962  58.763 -56.714  1.00  0.00     0.217 HD
ENDBRANCH  19  22
ENDBRANCH  15  16
ENDBRANCH   2  15
TORSDOF 4
ENDMDL
