MODEL 1
REMARK VINA RESULT:      -7.5      0.000      0.000
REMARK  5 active torsions:
REMARK  status: ('A' for Active; 'I' for Inactive)
REMARK    1  A    between atoms: C_2  and  O_3 
REMARK    2  A    between atoms: O_3  and  C_4 
REMARK    3  A    between atoms: C_6  and  C_7 
REMARK    4  A    between atoms: C_11  and  N_12 
REMARK       I    between atoms: N_12  and  C_13 
REMARK       I    between atoms: C_13  and  N_14 
REMARK    5  A    between atoms: N_14  and  C_15 
ROOT
HETATM    1  N   UNL     1     -43.747  55.120 -53.351  1.00  0.00    -0.308 N 
HETATM    2  C   UNL     1     -43.740  56.353 -53.964  1.00  0.00     0.325 C 
HETATM    3  N   UNL     1     -42.516  56.920 -54.187  1.00  0.00    -0.305 N 
HETATM    4  O   UNL     1     -44.828  56.876 -54.185  1.00  0.00    -0.247 OA
HETATM    5  H   UNL     1     -44.660  54.941 -52.940  1.00  0.00     0.170 HD
HETATM    6  H   UNL     1     -41.701  56.354 -54.031  1.00  0.00     0.171 HD
ENDROOT
BRANCH   1   7
HETATM    7  C   UNL     1     -42.689  54.245 -53.039  1.00  0.00     0.051 C 
HETATM    8  C   UNL     1     -42.290  54.071 -51.702  1.00  0.00     0.077 C 
HETATM    9  C   UNL     1     -41.145  53.297 -51.426  1.00  0.00     0.055 C 
HETATM   10  C   UNL     1     -40.444  52.675 -52.457  1.00  0.00     0.069 C 
HETATM   11  C   UNL     1     -40.927  52.731 -53.757  1.00  0.00     0.039 C 
HETATM   12  C   UNL     1     -42.046  53.511 -54.047  1.00  0.00     0.033 C 
BRANCH   8  13
HETATM   13  C   UNL     1     -42.975  54.776 -50.560  1.00  0.00     0.419 C 
HETATM   14  F   UNL     1     -44.277  54.407 -50.403  1.00  0.00    -0.166 F 
HETATM   15  F   UNL     1     -42.372  54.530 -49.365  1.00  0.00    -0.166 F 
HETATM   16  F   UNL     1     -42.990  56.133 -50.699  1.00  0.00    -0.166 F 
ENDBRANCH   8  13
BRANCH  10  17
HETATM   17  O   UNL     1     -39.295  51.962 -52.263  1.00  0.00    -0.351 OA
BRANCH  17  18
HETATM   18  C   UNL     1     -39.481  50.546 -52.372  1.00  0.00     0.171 C 
HETATM   19  C   UNL     1     -39.563  49.974 -50.968  1.00  0.00     0.034 C 
ENDBRANCH  17  18
ENDBRANCH  10  17
ENDBRANCH   1   7
BRANCH   3  20
HETATM   20  C   UNL     1     -42.246  58.210 -54.607  1.00  0.00     0.086 A 
HETATM   21  C   UNL     1     -42.188  58.840 -55.884  1.00  0.00     0.079 A 
HETATM   22  C   UNL     1     -42.460  58.297 -57.237  1.00  0.00     0.075 C 
HETATM   23  N   UNL     1     -41.896  60.146 -55.771  1.00  0.00    -0.177 NA
HETATM   24  N   UNL     1     -41.780  60.346 -54.456  1.00  0.00    -0.280 N 
HETATM   25  H   UNL     1     -41.555  61.283 -54.137  1.00  0.00     0.189 HD
HETATM   26  C   UNL     1     -42.000  59.228 -53.704  1.00  0.00     0.052 A 
HETATM   27  C   UNL     1     -41.912  59.255 -52.224  1.00  0.00     0.072 C 
ENDBRANCH   3  20
TORSDOF 5
ENDMDL
MODEL 2
REMARK VINA RESULT:      -7.5      0.508      1.880
REMARK  5 active torsions:
REMARK  status: ('A' for Active; 'I' for Inactive)
REMARK    1  A    between atoms: C_2  and  O_3 
REMARK    2  A    between atoms: O_3  and  C_4 
REMARK    3  A    between atoms: C_6  and  C_7 
REMARK    4  A    between atoms: C_11  and  N_12 
REMARK       I    between atoms: N_12  and  C_13 
REMARK       I    between atoms: C_13  and  N_14 
REMARK    5  A    between atoms: N_14  and  C_15 
ROOT
HETATM    1  N   UNL     1     -43.719  55.046 -53.360  1.00  0.00    -0.308 N 
HETATM    2  C   UNL     1     -43.751  56.192 -54.124  1.00  0.00     0.325 C 
HETATM    3  N   UNL     1     -42.545  56.678 -54.549  1.00  0.00    -0.305 N 
HETATM    4  O   UNL     1     -44.843  56.727 -54.290  1.00  0.00    -0.247 OA
HETATM    5  H   UNL     1     -44.584  54.956 -52.833  1.00  0.00     0.170 HD
HETATM    6  H   UNL     1     -41.733  56.104 -54.412  1.00  0.00     0.171 HD
ENDROOT
BRANCH   1   7
HETATM    7  C   UNL     1     -42.656  54.176 -53.056  1.00  0.00     0.051 C 
HETATM    8  C   UNL     1     -42.245  54.005 -51.722  1.00  0.00     0.077 C 
HETATM    9  C   UNL     1     -41.095  53.235 -51.455  1.00  0.00     0.055 C 
HETATM   10  C   UNL     1     -40.400  52.614 -52.490  1.00  0.00     0.069 C 
HETATM   11  C   UNL     1     -40.895  52.667 -53.786  1.00  0.00     0.039 C 
HETATM   12  C   UNL     1     -42.019  53.443 -54.068  1.00  0.00     0.033 C 
BRANCH   8  13
HETATM   13  C   UNL     1     -42.923  54.710 -50.576  1.00  0.00     0.419 C 
HETATM   14  F   UNL     1     -42.342  54.457 -49.369  1.00  0.00    -0.166 F 
HETATM   15  F   UNL     1     -42.907  56.063 -50.719  1.00  0.00    -0.166 F 
HETATM   16  F   UNL     1     -44.234  54.364 -50.433  1.00  0.00    -0.166 F 
ENDBRANCH   8  13
BRANCH  10  17
HETATM   17  O   UNL     1     -39.248  51.906 -52.305  1.00  0.00    -0.351 OA
BRANCH  17  18
HETATM   18  C   UNL     1     -39.433  50.488 -52.392  1.00  0.00     0.171 C 
HETATM   19  C   UNL     1     -39.522  49.939 -50.979  1.00  0.00     0.034 C 
ENDBRANCH  17  18
ENDBRANCH  10  17
ENDBRANCH   1   7
BRANCH   3  20
HETATM   20  C   UNL     1     -42.292  57.894 -55.158  1.00  0.00     0.086 A 
HETATM   21  C   UNL     1     -41.864  59.167 -54.680  1.00  0.00     0.079 A 
HETATM   22  C   UNL     1     -41.488  59.603 -53.313  1.00  0.00     0.075 C 
HETATM   23  N   UNL     1     -41.744  60.050 -55.684  1.00  0.00    -0.177 NA
HETATM   24  N   UNL     1     -42.078  59.357 -56.776  1.00  0.00    -0.280 N 
HETATM   25  H   UNL     1     -42.058  59.840 -57.668  1.00  0.00     0.189 HD
HETATM   26  C   UNL     1     -42.395  58.053 -56.527  1.00  0.00     0.052 A 
HETATM   27  C   UNL     1     -42.794  57.128 -57.616  1.00  0.00     0.072 C 
ENDBRANCH   3  20
TORSDOF 5
ENDMDL
MODEL 3
REMARK VINA RESULT:      -7.3      2.283      2.549
REMARK  5 active torsions:
REMARK  status: ('A' for Active; 'I' for Inactive)
REMARK    1  A    between atoms: C_2  and  O_3 
REMARK    2  A    between atoms: O_3  and  C_4 
REMARK    3  A    between atoms: C_6  and  C_7 
REMARK    4  A    between atoms: C_11  and  N_12 
REMARK       I    between atoms: N_12  and  C_13 
REMARK       I    between atoms: C_13  and  N_14 
REMARK    5  A    between atoms: N_14  and  C_15 
ROOT
HETATM    1  N   UNL     1     -43.669  55.402 -51.153  1.00  0.00    -0.308 N 
HETATM    2  C   UNL     1     -44.014  56.729 -51.287  1.00  0.00     0.325 C 
HETATM    3  N   UNL     1     -43.233  57.485 -52.116  1.00  0.00    -0.305 N 
HETATM    4  O   UNL     1     -44.938  57.142 -50.592  1.00  0.00    -0.247 OA
HETATM    5  H   UNL     1     -44.075  55.022 -50.301  1.00  0.00     0.170 HD
HETATM    6  H   UNL     1     -42.557  57.009 -52.686  1.00  0.00     0.171 HD
ENDROOT
BRANCH   1   7
HETATM    7  C   UNL     1     -42.725  54.626 -51.850  1.00  0.00     0.051 C 
HETATM    8  C   UNL     1     -41.475  54.348 -51.269  1.00  0.00     0.077 C 
HETATM    9  C   UNL     1     -40.497  53.684 -52.036  1.00  0.00     0.055 C 
HETATM   10  C   UNL     1     -40.776  53.270 -53.337  1.00  0.00     0.069 C 
HETATM   11  C   UNL     1     -42.057  53.418 -53.851  1.00  0.00     0.039 C 
HETATM   12  C   UNL     1     -43.028  54.092 -53.111  1.00  0.00     0.033 C 
BRANCH   8  13
HETATM   13  C   UNL     1     -41.103  54.833 -49.892  1.00  0.00     0.419 C 
HETATM   14  F   UNL     1     -41.170  56.187 -49.762  1.00  0.00    -0.166 F 
HETATM   15  F   UNL     1     -41.919  54.327 -48.928  1.00  0.00    -0.166 F 
HETATM   16  F   UNL     1     -39.835  54.490 -49.526  1.00  0.00    -0.166 F 
ENDBRANCH   8  13
BRANCH  10  17
HETATM   17  O   UNL     1     -39.855  52.677 -54.153  1.00  0.00    -0.351 OA
BRANCH  17  18
HETATM   18  C   UNL     1     -39.364  51.432 -53.643  1.00  0.00     0.171 C 
HETATM   19  C   UNL     1     -40.099  50.310 -54.356  1.00  0.00     0.034 C 
ENDBRANCH  17  18
ENDBRANCH  10  17
ENDBRANCH   1   7
BRANCH   3  20
HETATM   20  C   UNL     1     -43.251  58.859 -52.273  1.00  0.00     0.086 A 
HETATM   21  C   UNL     1     -44.033  59.751 -53.063  1.00  0.00     0.079 A 
HETATM   22  C   UNL     1     -45.168  59.482 -53.978  1.00  0.00     0.075 C 
HETATM   23  N   UNL     1     -43.676  61.029 -52.853  1.00  0.00    -0.177 NA
HETATM   24  N   UNL     1     -42.698  60.954 -51.946  1.00  0.00    -0.280 N 
HETATM   25  H   UNL     1     -42.271  61.822 -51.637  1.00  0.00     0.189 HD
HETATM   26  C   UNL     1     -42.413  59.681 -51.544  1.00  0.00     0.052 A 
HETATM   27  C   UNL     1     -41.354  59.400 -50.545  1.00  0.00     0.072 C 
ENDBRANCH   3  20
TORSDOF 5
ENDMDL
MODEL 4
REMARK VINA RESULT:      -7.2      2.490      3.369
REMARK  5 active torsions:
REMARK  status: ('A' for Active; 'I' for Inactive)
REMARK    1  A    between atoms: C_2  and  O_3 
REMARK    2  A    between atoms: O_3  and  C_4 
REMARK    3  A    between atoms: C_6  and  C_7 
REMARK    4  A    between atoms: C_11  and  N_12 
REMARK       I    between atoms: N_12  and  C_13 
REMARK       I    between atoms: C_13  and  N_14 
REMARK    5  A    between atoms: N_14  and  C_15 
ROOT
HETATM    1  N   UNL     1     -43.671  55.093 -53.536  1.00  0.00    -0.308 N 
HETATM    2  C   UNL     1     -44.000  56.429 -53.588  1.00  0.00     0.325 C 
HETATM    3  N   UNL     1     -43.235  57.279 -52.837  1.00  0.00    -0.305 N 
HETATM    4  O   UNL     1     -44.997  56.737 -54.234  1.00  0.00    -0.247 OA
HETATM    5  H   UNL     1     -44.461  54.528 -53.838  1.00  0.00     0.170 HD
HETATM    6  H   UNL     1     -42.401  56.910 -52.416  1.00  0.00     0.171 HD
ENDROOT
BRANCH   1   7
HETATM    7  C   UNL     1     -42.567  54.442 -52.953  1.00  0.00     0.051 C 
HETATM    8  C   UNL     1     -41.430  54.155 -53.729  1.00  0.00     0.077 C 
HETATM    9  C   UNL     1     -40.393  53.386 -53.162  1.00  0.00     0.055 C 
HETATM   10  C   UNL     1     -40.472  52.953 -51.841  1.00  0.00     0.069 C 
HETATM   11  C   UNL     1     -41.528  53.363 -51.039  1.00  0.00     0.039 C 
HETATM   12  C   UNL     1     -42.571  54.106 -51.592  1.00  0.00     0.033 C 
BRANCH   8  13
HETATM   13  C   UNL     1     -41.327  54.543 -55.181  1.00  0.00     0.419 C 
HETATM   14  F   UNL     1     -42.423  54.193 -55.911  1.00  0.00    -0.166 F 
HETATM   15  F   UNL     1     -41.184  55.886 -55.348  1.00  0.00    -0.166 F 
HETATM   16  F   UNL     1     -40.264  53.972 -55.816  1.00  0.00    -0.166 F 
ENDBRANCH   8  13
BRANCH  10  17
HETATM   17  O   UNL     1     -39.532  52.156 -51.252  1.00  0.00    -0.351 OA
BRANCH  17  18
HETATM   18  C   UNL     1     -39.485  50.834 -51.801  1.00  0.00     0.171 C 
HETATM   19  C   UNL     1     -39.827  49.853 -50.695  1.00  0.00     0.034 C 
ENDBRANCH  17  18
ENDBRANCH  10  17
ENDBRANCH   1   7
BRANCH   3  20
HETATM   20  C   UNL     1     -43.469  58.616 -52.572  1.00  0.00     0.086 A 
HETATM   21  C   UNL     1     -44.419  59.310 -51.767  1.00  0.00     0.079 A 
HETATM   22  C   UNL     1     -45.483  58.792 -50.873  1.00  0.00     0.075 C 
HETATM   23  N   UNL     1     -44.228  60.638 -51.824  1.00  0.00    -0.177 NA
HETATM   24  N   UNL     1     -43.178  60.787 -52.636  1.00  0.00    -0.280 N 
HETATM   25  H   UNL     1     -42.856  61.730 -52.825  1.00  0.00     0.189 HD
HETATM   26  C   UNL     1     -42.666  59.609 -53.099  1.00  0.00     0.052 A 
HETATM   27  C   UNL     1     -41.501  59.575 -54.016  1.00  0.00     0.072 C 
ENDBRANCH   3  20
TORSDOF 5
ENDMDL
MODEL 5
REMARK VINA RESULT:      -7.1      2.706      3.231
REMARK  5 active torsions:
REMARK  status: ('A' for Active; 'I' for Inactive)
REMARK    1  A    between atoms: C_2  and  O_3 
REMARK    2  A    between atoms: O_3  and  C_4 
REMARK    3  A    between atoms: C_6  and  C_7 
REMARK    4  A    between atoms: C_11  and  N_12 
REMARK       I    between atoms: N_12  and  C_13 
REMARK       I    between atoms: C_13  and  N_14 
REMARK    5  A    between atoms: N_14  and  C_15 
ROOT
HETATM    1  N   UNL     1     -43.622  55.160 -51.648  1.00  0.00    -0.308 N 
HETATM    2  C   UNL     1     -43.874  56.510 -51.552  1.00  0.00     0.325 C 
HETATM    3  N   UNL     1     -42.852  57.351 -51.895  1.00  0.00    -0.305 N 
HETATM    4  O   UNL     1     -44.961  56.847 -51.091  1.00  0.00    -0.247 OA
HETATM    5  H   UNL     1     -44.286  54.641 -51.079  1.00  0.00     0.170 HD
HETATM    6  H   UNL     1     -42.041  56.950 -52.332  1.00  0.00     0.171 HD
ENDROOT
BRANCH   1   7
HETATM    7  C   UNL     1     -42.523  54.469 -52.194  1.00  0.00     0.051 C 
HETATM    8  C   UNL     1     -42.463  54.223 -53.577  1.00  0.00     0.077 C 
HETATM    9  C   UNL     1     -41.425  53.415 -54.082  1.00  0.00     0.055 C 
HETATM   10  C   UNL     1     -40.447  52.903 -53.233  1.00  0.00     0.069 C 
HETATM   11  C   UNL     1     -40.431  53.269 -51.894  1.00  0.00     0.039 C 
HETATM   12  C   UNL     1     -41.463  54.050 -51.377  1.00  0.00     0.033 C 
BRANCH   8  13
HETATM   13  C   UNL     1     -43.533  54.698 -54.526  1.00  0.00     0.419 C 
HETATM   14  F   UNL     1     -43.408  54.182 -55.781  1.00  0.00    -0.166 F 
HETATM   15  F   UNL     1     -44.782  54.358 -54.107  1.00  0.00    -0.166 F 
HETATM   16  F   UNL     1     -43.547  56.052 -54.684  1.00  0.00    -0.166 F 
ENDBRANCH   8  13
BRANCH  10  17
HETATM   17  O   UNL     1     -39.451  52.066 -53.649  1.00  0.00    -0.351 OA
BRANCH  17  18
HETATM   18  C   UNL     1     -39.648  50.706 -53.247  1.00  0.00     0.171 C 
HETATM   19  C   UNL     1     -39.913  49.882 -54.495  1.00  0.00     0.034 C 
ENDBRANCH  17  18
ENDBRANCH  10  17
ENDBRANCH   1   7
BRANCH   3  20
HETATM   20  C   UNL     1     -42.786  58.720 -51.710  1.00  0.00     0.086 A 
HETATM   21  C   UNL     1     -43.577  59.816 -52.163  1.00  0.00     0.079 A 
HETATM   22  C   UNL     1     -44.816  59.836 -52.978  1.00  0.00     0.075 C 
HETATM   23  N   UNL     1     -43.109  60.983 -51.691  1.00  0.00    -0.177 NA
HETATM   24  N   UNL     1     -42.052  60.641 -50.950  1.00  0.00    -0.280 N 
HETATM   25  H   UNL     1     -41.534  61.383 -50.491  1.00  0.00     0.189 HD
HETATM   26  C   UNL     1     -41.820  59.296 -50.905  1.00  0.00     0.052 A 
HETATM   27  C   UNL     1     -40.689  58.726 -50.135  1.00  0.00     0.072 C 
ENDBRANCH   3  20
TORSDOF 5
ENDMDL
MODEL 6
REMARK VINA RESULT:      -6.9      2.304      3.136
REMARK  5 active torsions:
REMARK  status: ('A' for Active; 'I' for Inactive)
REMARK    1  A    between atoms: C_2  and  O_3 
REMARK    2  A    between atoms: O_3  and  C_4 
REMARK    3  A    between atoms: C_6  and  C_7 
REMARK    4  A    between atoms: C_11  and  N_12 
REMARK       I    between atoms: N_12  and  C_13 
REMARK       I    between atoms: C_13  and  N_14 
REMARK    5  A    between atoms: N_14  and  C_15 
ROOT
HETATM    1  N   UNL     1     -40.956  56.985 -54.010  1.00  0.00    -0.308 N 
HETATM    2  C   UNL     1     -41.937  57.677 -54.685  1.00  0.00     0.325 C 
HETATM    3  N   UNL     1     -42.897  56.928 -55.308  1.00  0.00    -0.305 N 
HETATM    4  O   UNL     1     -41.825  58.898 -54.743  1.00  0.00    -0.247 OA
HETATM    5  H   UNL     1     -40.142  57.580 -53.875  1.00  0.00     0.170 HD
HETATM    6  H   UNL     1     -42.920  55.942 -55.118  1.00  0.00     0.171 HD
ENDROOT
BRANCH   1   7
HETATM    7  C   UNL     1     -40.843  55.615 -53.708  1.00  0.00     0.051 C 
HETATM    8  C   UNL     1     -41.201  55.144 -52.432  1.00  0.00     0.077 C 
HETATM    9  C   UNL     1     -40.954  53.794 -52.109  1.00  0.00     0.055 C 
HETATM   10  C   UNL     1     -40.403  52.928 -53.051  1.00  0.00     0.069 C 
HETATM   11  C   UNL     1     -40.188  53.365 -54.351  1.00  0.00     0.039 C 
HETATM   12  C   UNL     1     -40.408  54.702 -54.679  1.00  0.00     0.033 C 
BRANCH   8  13
HETATM   13  C   UNL     1     -41.737  56.055 -51.359  1.00  0.00     0.419 C 
HETATM   14  F   UNL     1     -41.971  55.417 -50.178  1.00  0.00    -0.166 F 
HETATM   15  F   UNL     1     -40.879  57.071 -51.068  1.00  0.00    -0.166 F 
HETATM   16  F   UNL     1     -42.917  56.648 -51.698  1.00  0.00    -0.166 F 
ENDBRANCH   8  13
BRANCH  10  17
HETATM   17  O   UNL     1     -40.084  51.628 -52.782  1.00  0.00    -0.351 OA
BRANCH  17  18
HETATM   18  C   UNL     1     -39.333  51.001 -53.829  1.00  0.00     0.171 C 
HETATM   19  C   UNL     1     -40.138  49.819 -54.341  1.00  0.00     0.034 C 
ENDBRANCH  17  18
ENDBRANCH  10  17
ENDBRANCH   1   7
BRANCH   3  20
HETATM   20  C   UNL     1     -43.866  57.363 -56.194  1.00  0.00     0.086 A 
HETATM   21  C   UNL     1     -44.929  58.309 -56.107  1.00  0.00     0.079 A 
HETATM   22  C   UNL     1     -45.325  59.211 -54.998  1.00  0.00     0.075 C 
HETATM   23  N   UNL     1     -45.601  58.395 -57.266  1.00  0.00    -0.177 NA
HETATM   24  N   UNL     1     -44.979  57.533 -58.074  1.00  0.00    -0.280 N 
HETATM   25  H   UNL     1     -45.331  57.433 -59.021  1.00  0.00     0.189 HD
HETATM   26  C   UNL     1     -43.918  56.900 -57.495  1.00  0.00     0.052 A 
HETATM   27  C   UNL     1     -43.106  55.904 -58.237  1.00  0.00     0.072 C 
ENDBRANCH   3  20
TORSDOF 5
ENDMDL
MODEL 7
REMARK VINA RESULT:      -6.8      1.078      1.439
REMARK  5 active torsions:
REMARK  status: ('A' for Active; 'I' for Inactive)
REMARK    1  A    between atoms: C_2  and  O_3 
REMARK    2  A    between atoms: O_3  and  C_4 
REMARK    3  A    between atoms: C_6  and  C_7 
REMARK    4  A    between atoms: C_11  and  N_12 
REMARK       I    between atoms: N_12  and  C_13 
REMARK       I    between atoms: C_13  and  N_14 
REMARK    5  A    between atoms: N_14  and  C_15 
ROOT
HETATM    1  N   UNL     1     -44.144  55.972 -53.882  1.00  0.00    -0.308 N 
HETATM    2  C   UNL     1     -44.054  57.123 -54.633  1.00  0.00     0.325 C 
HETATM    3  N   UNL     1     -42.797  57.526 -54.990  1.00  0.00    -0.305 N 
HETATM    4  O   UNL     1     -45.096  57.735 -54.850  1.00  0.00    -0.247 OA
HETATM    5  H   UNL     1     -45.040  55.939 -53.401  1.00  0.00     0.170 HD
HETATM    6  H   UNL     1     -42.036  56.895 -54.817  1.00  0.00     0.171 HD
ENDROOT
BRANCH   1   7
HETATM    7  C   UNL     1     -43.161  55.026 -53.533  1.00  0.00     0.051 C 
HETATM    8  C   UNL     1     -42.617  55.023 -52.235  1.00  0.00     0.077 C 
HETATM    9  C   UNL     1     -41.543  54.158 -51.948  1.00  0.00     0.055 C 
HETATM   10  C   UNL     1     -41.053  53.287 -52.919  1.00  0.00     0.069 C 
HETATM   11  C   UNL     1     -41.689  53.194 -54.150  1.00  0.00     0.039 C 
HETATM   12  C   UNL     1     -42.739  54.058 -54.455  1.00  0.00     0.033 C 
BRANCH   8  13
HETATM   13  C   UNL     1     -43.067  55.991 -51.172  1.00  0.00     0.419 C 
HETATM   14  F   UNL     1     -42.851  57.294 -51.504  1.00  0.00    -0.166 F 
HETATM   15  F   UNL     1     -44.399  55.890 -50.912  1.00  0.00    -0.166 F 
HETATM   16  F   UNL     1     -42.437  55.806 -49.977  1.00  0.00    -0.166 F 
ENDBRANCH   8  13
BRANCH  10  17
HETATM   17  O   UNL     1     -39.978  52.468 -52.724  1.00  0.00    -0.351 OA
BRANCH  17  18
HETATM   18  C   UNL     1     -39.817  52.058 -51.361  1.00  0.00     0.171 C 
HETATM   19  C   UNL     1     -39.557  50.563 -51.348  1.00  0.00     0.034 C 
ENDBRANCH  17  18
ENDBRANCH  10  17
ENDBRANCH   1   7
BRANCH   3  20
HETATM   20  C   UNL     1     -42.428  58.726 -55.571  1.00  0.00     0.086 A 
HETATM   21  C   UNL     1     -42.127  59.124 -56.906  1.00  0.00     0.079 A 
HETATM   22  C   UNL     1     -42.164  58.351 -58.171  1.00  0.00     0.075 C 
HETATM   23  N   UNL     1     -41.831  60.432 -56.969  1.00  0.00    -0.177 NA
HETATM   24  N   UNL     1     -41.948  60.860 -55.709  1.00  0.00    -0.280 N 
HETATM   25  H   UNL     1     -41.762  61.840 -55.522  1.00  0.00     0.189 HD
HETATM   26  C   UNL     1     -42.324  59.887 -54.828  1.00  0.00     0.052 A 
HETATM   27  C   UNL     1     -42.502  60.172 -53.384  1.00  0.00     0.072 C 
ENDBRANCH   3  20
TORSDOF 5
ENDMDL
MODEL 8
REMARK VINA RESULT:      -6.8      2.495      3.221
REMARK  5 active torsions:
REMARK  status: ('A' for Active; 'I' for Inactive)
REMARK    1  A    between atoms: C_2  and  O_3 
REMARK    2  A    between atoms: O_3  and  C_4 
REMARK    3  A    between atoms: C_6  and  C_7 
REMARK    4  A    between atoms: C_11  and  N_12 
REMARK       I    between atoms: N_12  and  C_13 
REMARK       I    between atoms: C_13  and  N_14 
REMARK    5  A    between atoms: N_14  and  C_15 
ROOT
HETATM    1  N   UNL     1     -41.430  57.027 -54.599  1.00  0.00    -0.308 N 
HETATM    2  C   UNL     1     -42.274  57.617 -55.513  1.00  0.00     0.325 C 
HETATM    3  N   UNL     1     -42.980  56.775 -56.328  1.00  0.00    -0.305 N 
HETATM    4  O   UNL     1     -42.263  58.843 -55.579  1.00  0.00    -0.247 OA
HETATM    5  H   UNL     1     -40.731  57.698 -54.288  1.00  0.00     0.170 HD
HETATM    6  H   UNL     1     -42.958  55.793 -56.119  1.00  0.00     0.171 HD
ENDROOT
BRANCH   1   7
HETATM    7  C   UNL     1     -41.270  55.676 -54.237  1.00  0.00     0.051 C 
HETATM    8  C   UNL     1     -41.991  55.148 -53.151  1.00  0.00     0.077 C 
HETATM    9  C   UNL     1     -41.716  53.834 -52.724  1.00  0.00     0.055 C 
HETATM   10  C   UNL     1     -40.776  53.052 -53.391  1.00  0.00     0.069 C 
HETATM   11  C   UNL     1     -40.175  53.529 -54.548  1.00  0.00     0.039 C 
HETATM   12  C   UNL     1     -40.422  54.834 -54.971  1.00  0.00     0.033 C 
BRANCH   8  13
HETATM   13  C   UNL     1     -42.968  55.975 -52.356  1.00  0.00     0.419 C 
HETATM   14  F   UNL     1     -44.039  56.394 -53.087  1.00  0.00    -0.166 F 
HETATM   15  F   UNL     1     -43.485  55.289 -51.300  1.00  0.00    -0.166 F 
HETATM   16  F   UNL     1     -42.413  57.105 -51.833  1.00  0.00    -0.166 F 
ENDBRANCH   8  13
BRANCH  10  17
HETATM   17  O   UNL     1     -40.420  51.796 -52.991  1.00  0.00    -0.351 OA
BRANCH  17  18
HETATM   18  C   UNL     1     -39.415  51.200 -53.821  1.00  0.00     0.171 C 
HETATM   19  C   UNL     1     -39.972  49.899 -54.372  1.00  0.00     0.034 C 
ENDBRANCH  17  18
ENDBRANCH  10  17
ENDBRANCH   1   7
BRANCH   3  20
HETATM   20  C   UNL     1     -43.738  57.110 -57.436  1.00  0.00     0.086 A 
HETATM   21  C   UNL     1     -43.587  56.892 -58.836  1.00  0.00     0.079 A 
HETATM   22  C   UNL     1     -42.541  56.156 -59.588  1.00  0.00     0.075 C 
HETATM   23  N   UNL     1     -44.621  57.405 -59.523  1.00  0.00    -0.177 NA
HETATM   24  N   UNL     1     -45.414  57.929 -58.585  1.00  0.00    -0.280 N 
HETATM   25  H   UNL     1     -46.271  58.381 -58.888  1.00  0.00     0.189 HD
HETATM   26  C   UNL     1     -44.949  57.764 -57.312  1.00  0.00     0.052 A 
HETATM   27  C   UNL     1     -45.693  58.282 -56.139  1.00  0.00     0.072 C 
ENDBRANCH   3  20
TORSDOF 5
ENDMDL
MODEL 9
REMARK VINA RESULT:      -6.6      2.956      3.579
REMARK  5 active torsions:
REMARK  status: ('A' for Active; 'I' for Inactive)
REMARK    1  A    between atoms: C_2  and  O_3 
REMARK    2  A    between atoms: O_3  and  C_4 
REMARK    3  A    between atoms: C_6  and  C_7 
REMARK    4  A    between atoms: C_11  and  N_12 
REMARK       I    between atoms: N_12  and  C_13 
REMARK       I    between atoms: C_13  and  N_14 
REMARK    5  A    between atoms: N_14  and  C_15 
ROOT
HETATM    1  N   UNL     1     -44.324  56.234 -54.921  1.00  0.00    -0.308 N 
HETATM    2  C   UNL     1     -43.915  57.172 -55.842  1.00  0.00     0.325 C 
HETATM    3  N   UNL     1     -42.816  57.917 -55.512  1.00  0.00    -0.305 N 
HETATM    4  O   UNL     1     -44.613  57.321 -56.840  1.00  0.00    -0.247 OA
HETATM    5  H   UNL     1     -45.294  55.980 -55.090  1.00  0.00     0.170 HD
HETATM    6  H   UNL     1     -42.290  57.643 -54.703  1.00  0.00     0.171 HD
ENDROOT
BRANCH   1   7
HETATM    7  C   UNL     1     -43.711  55.785 -53.736  1.00  0.00     0.051 C 
HETATM    8  C   UNL     1     -42.860  54.665 -53.764  1.00  0.00     0.077 C 
HETATM    9  C   UNL     1     -42.365  54.153 -52.548  1.00  0.00     0.055 C 
HETATM   10  C   UNL     1     -42.677  54.770 -51.339  1.00  0.00     0.069 C 
HETATM   11  C   UNL     1     -43.396  55.957 -51.331  1.00  0.00     0.039 C 
HETATM   12  C   UNL     1     -43.910  56.463 -52.525  1.00  0.00     0.033 C 
BRANCH   8  13
HETATM   13  C   UNL     1     -42.548  53.924 -55.038  1.00  0.00     0.419 C 
HETATM   14  F   UNL     1     -41.802  54.651 -55.916  1.00  0.00    -0.166 F 
HETATM   15  F   UNL     1     -41.845  52.781 -54.811  1.00  0.00    -0.166 F 
HETATM   16  F   UNL     1     -43.663  53.547 -55.726  1.00  0.00    -0.166 F 
ENDBRANCH   8  13
BRANCH  10  17
HETATM   17  O   UNL     1     -42.280  54.289 -50.123  1.00  0.00    -0.351 OA
BRANCH  17  18
HETATM   18  C   UNL     1     -41.332  55.135 -49.461  1.00  0.00     0.171 C 
HETATM   19  C   UNL     1     -40.610  54.303 -48.417  1.00  0.00     0.034 C 
ENDBRANCH  17  18
ENDBRANCH  10  17
ENDBRANCH   1   7
BRANCH   3  20
HETATM   20  C   UNL     1     -42.324  59.032 -56.166  1.00  0.00     0.086 A 
HETATM   21  C   UNL     1     -41.841  59.269 -57.486  1.00  0.00     0.079 A 
HETATM   22  C   UNL     1     -41.754  58.360 -58.655  1.00  0.00     0.075 C 
HETATM   23  N   UNL     1     -41.482  60.552 -57.651  1.00  0.00    -0.177 NA
HETATM   24  N   UNL     1     -41.737  61.122 -56.470  1.00  0.00    -0.280 N 
HETATM   25  H   UNL     1     -41.533  62.110 -56.367  1.00  0.00     0.189 HD
HETATM   26  C   UNL     1     -42.263  60.266 -55.546  1.00  0.00     0.052 A 
HETATM   27  C   UNL     1     -42.608  60.716 -54.176  1.00  0.00     0.072 C 
ENDBRANCH   3  20
TORSDOF 5
ENDMDL
MODEL 10
REMARK VINA RESULT:      -6.6      2.936      6.701
REMARK  5 active torsions:
REMARK  status: ('A' for Active; 'I' for Inactive)
REMARK    1  A    between atoms: C_2  and  O_3 
REMARK    2  A    between atoms: O_3  and  C_4 
REMARK    3  A    between atoms: C_6  and  C_7 
REMARK    4  A    between atoms: C_11  and  N_12 
REMARK       I    between atoms: N_12  and  C_13 
REMARK       I    between atoms: C_13  and  N_14 
REMARK    5  A    between atoms: N_14  and  C_15 
ROOT
HETATM    1  N   UNL     1     -43.791  54.938 -53.677  1.00  0.00    -0.308 N 
HETATM    2  C   UNL     1     -43.001  54.302 -52.745  1.00  0.00     0.325 C 
HETATM    3  N   UNL     1     -41.684  54.130 -53.072  1.00  0.00    -0.305 N 
HETATM    4  O   UNL     1     -43.557  53.869 -51.740  1.00  0.00    -0.247 OA
HETATM    5  H   UNL     1     -44.771  54.728 -53.504  1.00  0.00     0.170 HD
HETATM    6  H   UNL     1     -41.339  54.600 -53.889  1.00  0.00     0.171 HD
ENDROOT
BRANCH   1   7
HETATM    7  C   UNL     1     -43.448  55.598 -54.872  1.00  0.00     0.051 C 
HETATM    8  C   UNL     1     -43.423  57.003 -54.918  1.00  0.00     0.077 C 
HETATM    9  C   UNL     1     -43.209  57.641 -56.157  1.00  0.00     0.055 C 
HETATM   10  C   UNL     1     -42.982  56.895 -57.310  1.00  0.00     0.069 C 
HETATM   11  C   UNL     1     -42.864  55.514 -57.230  1.00  0.00     0.039 C 
HETATM   12  C   UNL     1     -43.094  54.868 -56.016  1.00  0.00     0.033 C 
BRANCH   8  13
HETATM   13  C   UNL     1     -43.728  57.853 -53.713  1.00  0.00     0.419 C 
HETATM   14  F   UNL     1     -42.847  57.673 -52.689  1.00  0.00    -0.166 F 
HETATM   15  F   UNL     1     -43.698  59.184 -53.998  1.00  0.00    -0.166 F 
HETATM   16  F   UNL     1     -44.962  57.612 -53.185  1.00  0.00    -0.166 F 
ENDBRANCH   8  13
BRANCH  10  17
HETATM   17  O   UNL     1     -42.828  57.450 -58.549  1.00  0.00    -0.351 OA
BRANCH  17  18
HETATM   18  C   UNL     1     -43.469  56.702 -59.589  1.00  0.00     0.171 C 
HETATM   19  C   UNL     1     -44.845  57.302 -59.819  1.00  0.00     0.034 C 
ENDBRANCH  17  18
ENDBRANCH  10  17
ENDBRANCH   1   7
BRANCH   3  20
HETATM   20  C   UNL     1     -40.741  53.369 -52.406  1.00  0.00     0.086 A 
HETATM   21  C   UNL     1     -40.135  53.453 -51.119  1.00  0.00     0.079 A 
HETATM   22  C   UNL     1     -40.372  54.404 -50.005  1.00  0.00     0.075 C 
HETATM   23  N   UNL     1     -39.268  52.447 -50.921  1.00  0.00    -0.177 NA
HETATM   24  N   UNL     1     -39.324  51.734 -52.049  1.00  0.00    -0.280 N 
HETATM   25  H   UNL     1     -38.735  50.912 -52.121  1.00  0.00     0.189 HD
HETATM   26  C   UNL     1     -40.206  52.225 -52.969  1.00  0.00     0.052 A 
HETATM   27  C   UNL     1     -40.403  51.569 -54.285  1.00  0.00     0.072 C 
ENDBRANCH   3  20
TORSDOF 5
ENDMDL
