MODEL 1
REMARK VINA RESULT:      -6.9      0.000      0.000
REMARK  10 active torsions:
REMARK  status: ('A' for Active; 'I' for Inactive)
REMARK    1  A    between atoms: C_1  and  C_8 
REMARK    2  A    between atoms: C_1  and  S_9 
REMARK    3  A    between atoms: C_3  and  C_24 
REMARK    4  A    between atoms: C_7  and  C_8 
REMARK    5  A    between atoms: S_9  and  C_10 
REMARK    6  A    between atoms: C_10  and  S_11 
REMARK    7  A    between atoms: S_11  and  C_12 
REMARK    8  A    between atoms: C_12  and  C_13 
REMARK    9  A    between atoms: C_13  and  C_14 
REMARK   10  A    between atoms: C_18  and  C_19 
ROOT
HETATM    1  C           1     -43.954  56.369 -53.881  0.00  0.00     0.092 C 
HETATM    2  C           1     -44.004  58.764 -53.762  0.00  0.00     0.156 C 
HETATM    3  N           1     -44.449  57.451 -54.419  0.00  0.00    -0.350 N 
HETATM    4  N           1     -44.153  55.197 -54.317  0.00  0.00    -0.388 N 
HETATM    5  C           1     -43.078  56.731 -52.710  0.00  0.00     0.127 C 
HETATM    6  C           1     -43.490  58.197 -52.388  0.00  0.00     0.136 C 
HETATM    7  C           1     -44.603  58.179 -51.388  0.00  0.00     0.079 C 
HETATM    8  N           1     -45.408  58.071 -50.561  0.00  0.00    -0.196 NA
HETATM    9  C           1     -41.505  56.613 -52.876  0.00  0.00     0.248 C 
HETATM   10  N           1     -40.761  57.006 -51.570  0.00  0.00    -0.040 N 
HETATM   11  C           1     -41.172  58.366 -51.270  0.00  0.00     0.105 C 
HETATM   12  C           1     -40.157  59.191 -50.520  0.00  0.00     0.075 C 
HETATM   13  C           1     -42.348  58.903 -51.668  0.00  0.00     0.036 C 
HETATM   14  H           1     -45.067  57.424 -55.241  0.00  0.00     0.163 HD
HETATM   15  H           1     -43.664  54.376 -53.880  0.00  0.00     0.157 HD
HETATM   16  H           1     -44.780  55.030 -55.142  0.00  0.00     0.157 HD
HETATM   17  H           1     -39.736  57.012 -51.779  0.00  0.00     0.284 HD
HETATM   18  H           1     -40.918  56.367 -50.766  0.00  0.00     0.284 HD
ENDROOT
BRANCH   2  19
HETATM   19  S           1     -45.476  59.827 -53.609  0.00  0.00    -0.125 SA
BRANCH  19  20
HETATM   20  C           1     -44.772  61.452 -53.199  0.00  0.00     0.077 C 
BRANCH  20  21
HETATM   21  C           1     -45.182  61.824 -51.765  0.00  0.00     0.010 C 
BRANCH  21  22
HETATM   22  C           1     -43.954  62.108 -50.882  0.00  0.00    -0.004 C 
HETATM   23  C           1     -44.066  61.427 -49.512  0.00  0.00     0.005 C 
ENDBRANCH  21  22
ENDBRANCH  20  21
ENDBRANCH  19  20
ENDBRANCH   2  19
BRANCH   2  24
HETATM   24  S           1     -42.591  59.438 -54.699  0.00  0.00    -0.125 SA
BRANCH  24  25
HETATM   25  C           1     -43.214  59.290 -56.403  0.00  0.00     0.077 C 
BRANCH  25  26
HETATM   26  C           1     -42.426  58.182 -57.120  0.00  0.00     0.010 C 
BRANCH  26  27
HETATM   27  C           1     -43.360  57.212 -57.864  0.00  0.00    -0.004 C 
HETATM   28  C           1     -42.977  55.747 -57.617  0.00  0.00     0.005 C 
ENDBRANCH  26  27
ENDBRANCH  25  26
ENDBRANCH  24  25
ENDBRANCH   2  24
BRANCH   5  29
HETATM   29  C           1     -43.189  55.906 -51.485  0.00  0.00     0.105 C 
HETATM   30  N           1     -43.835  55.015 -51.123  0.00  0.00    -0.151 N 
ENDBRANCH   5  29
BRANCH   9  31
HETATM   31  C           1     -41.062  55.246 -53.377  0.00  0.00    -0.026 A 
HETATM   32  C           1     -40.716  55.093 -54.671  0.00  0.00     0.009 A 
HETATM   33  C           1     -40.326  53.904 -55.157  0.00  0.00     0.001 A 
HETATM   34  C           1     -40.267  52.837 -54.347  0.00  0.00     0.000 A 
HETATM   35  C           1     -40.593  52.973 -53.054  0.00  0.00     0.001 A 
HETATM   36  C           1     -40.983  54.166 -52.578  0.00  0.00     0.009 A 
ENDBRANCH   9  31
TORSDOF 10
ENDMDL
MODEL 2
REMARK VINA RESULT:      -6.8      1.559      2.586
REMARK  10 active torsions:
REMARK  status: ('A' for Active; 'I' for Inactive)
REMARK    1  A    between atoms: C_1  and  C_8 
REMARK    2  A    between atoms: C_1  and  S_9 
REMARK    3  A    between atoms: C_3  and  C_24 
REMARK    4  A    between atoms: C_7  and  C_8 
REMARK    5  A    between atoms: S_9  and  C_10 
REMARK    6  A    between atoms: C_10  and  S_11 
REMARK    7  A    between atoms: S_11  and  C_12 
REMARK    8  A    between atoms: C_12  and  C_13 
REMARK    9  A    between atoms: C_13  and  C_14 
REMARK   10  A    between atoms: C_18  and  C_19 
ROOT
HETATM    1  C           1     -43.712  55.597 -53.590  0.00  0.00     0.092 C 
HETATM    2  C           1     -43.776  57.962 -53.982  0.00  0.00     0.156 C 
HETATM    3  N           1     -44.150  56.531 -54.390  0.00  0.00    -0.350 N 
HETATM    4  N           1     -43.865  54.355 -53.788  0.00  0.00    -0.388 N 
HETATM    5  C           1     -42.962  56.215 -52.439  0.00  0.00     0.127 C 
HETATM    6  C           1     -43.406  57.706 -52.475  0.00  0.00     0.136 C 
HETATM    7  C           1     -44.616  57.873 -51.610  0.00  0.00     0.079 C 
HETATM    8  N           1     -45.502  57.921 -50.865  0.00  0.00    -0.196 NA
HETATM    9  C           1     -41.380  56.100 -52.417  0.00  0.00     0.248 C 
HETATM   10  N           1     -40.775  56.774 -51.154  0.00  0.00    -0.040 N 
HETATM   11  C           1     -41.216  58.157 -51.190  0.00  0.00     0.105 C 
HETATM   12  C           1     -40.283  59.142 -50.531  0.00  0.00     0.075 C 
HETATM   13  C           1     -42.345  58.572 -51.807  0.00  0.00     0.036 C 
HETATM   14  H           1     -44.680  56.319 -55.246  0.00  0.00     0.163 HD
HETATM   15  H           1     -43.422  53.654 -53.141  0.00  0.00     0.157 HD
HETATM   16  H           1     -44.403  54.006 -54.618  0.00  0.00     0.157 HD
HETATM   17  H           1     -39.734  56.758 -51.256  0.00  0.00     0.284 HD
HETATM   18  H           1     -41.014  56.313 -50.254  0.00  0.00     0.284 HD
ENDROOT
BRANCH   2  19
HETATM   19  S           1     -45.257  59.001 -54.205  0.00  0.00    -0.125 SA
BRANCH  19  20
HETATM   20  C           1     -44.759  60.153 -55.520  0.00  0.00     0.077 C 
BRANCH  20  21
HETATM   21  C           1     -45.552  59.823 -56.796  0.00  0.00     0.010 C 
BRANCH  21  22
HETATM   22  C           1     -46.010  58.355 -56.812  0.00  0.00    -0.004 C 
HETATM   23  C           1     -46.972  58.070 -57.973  0.00  0.00     0.005 C 
ENDBRANCH  21  22
ENDBRANCH  20  21
ENDBRANCH  19  20
ENDBRANCH   2  19
BRANCH   2  24
HETATM   24  S           1     -42.274  58.458 -54.892  0.00  0.00    -0.125 SA
BRANCH  24  25
HETATM   25  C           1     -42.360  57.332 -56.321  0.00  0.00     0.077 C 
BRANCH  25  26
HETATM   26  C           1     -42.299  58.168 -57.610  0.00  0.00     0.010 C 
BRANCH  26  27
HETATM   27  C           1     -42.728  57.347 -58.838  0.00  0.00    -0.004 C 
HETATM   28  C           1     -43.303  55.981 -58.440  0.00  0.00     0.005 C 
ENDBRANCH  26  27
ENDBRANCH  25  26
ENDBRANCH  24  25
ENDBRANCH   2  24
BRANCH   5  29
HETATM   29  C           1     -43.197  55.661 -51.085  0.00  0.00     0.105 C 
HETATM   30  N           1     -43.849  54.826 -50.617  0.00  0.00    -0.151 N 
ENDBRANCH   5  29
BRANCH   9  31
HETATM   31  C           1     -40.886  54.668 -52.573  0.00  0.00    -0.026 A 
HETATM   32  C           1     -40.678  54.168 -53.807  0.00  0.00     0.009 A 
HETATM   33  C           1     -40.250  52.910 -53.991  0.00  0.00     0.001 A 
HETATM   34  C           1     -40.013  52.122 -52.932  0.00  0.00     0.000 A 
HETATM   35  C           1     -40.200  52.606 -51.696  0.00  0.00     0.001 A 
HETATM   36  C           1     -40.629  53.867 -51.523  0.00  0.00     0.009 A 
ENDBRANCH   9  31
TORSDOF 10
ENDMDL
MODEL 3
REMARK VINA RESULT:      -6.4      0.866      1.369
REMARK  10 active torsions:
REMARK  status: ('A' for Active; 'I' for Inactive)
REMARK    1  A    between atoms: C_1  and  C_8 
REMARK    2  A    between atoms: C_1  and  S_9 
REMARK    3  A    between atoms: C_3  and  C_24 
REMARK    4  A    between atoms: C_7  and  C_8 
REMARK    5  A    between atoms: S_9  and  C_10 
REMARK    6  A    between atoms: C_10  and  S_11 
REMARK    7  A    between atoms: S_11  and  C_12 
REMARK    8  A    between atoms: C_12  and  C_13 
REMARK    9  A    between atoms: C_13  and  C_14 
REMARK   10  A    between atoms: C_18  and  C_19 
ROOT
HETATM    1  C           1     -43.929  56.398 -53.954  0.00  0.00     0.092 C 
HETATM    2  C           1     -44.014  58.790 -53.803  0.00  0.00     0.156 C 
HETATM    3  N           1     -44.433  57.480 -54.482  0.00  0.00    -0.350 N 
HETATM    4  N           1     -44.107  55.229 -54.407  0.00  0.00    -0.388 N 
HETATM    5  C           1     -43.071  56.757 -52.768  0.00  0.00     0.127 C 
HETATM    6  C           1     -43.507  58.212 -52.431  0.00  0.00     0.136 C 
HETATM    7  C           1     -44.630  58.166 -51.444  0.00  0.00     0.079 C 
HETATM    8  N           1     -45.443  58.035 -50.627  0.00  0.00    -0.196 NA
HETATM    9  C           1     -41.495  56.662 -52.918  0.00  0.00     0.248 C 
HETATM   10  N           1     -40.770  57.048 -51.598  0.00  0.00    -0.040 N 
HETATM   11  C           1     -41.204  58.398 -51.285  0.00  0.00     0.105 C 
HETATM   12  C           1     -40.208  59.227 -50.513  0.00  0.00     0.075 C 
HETATM   13  C           1     -42.383  58.924 -51.689  0.00  0.00     0.036 C 
HETATM   14  H           1     -45.042  57.455 -55.311  0.00  0.00     0.163 HD
HETATM   15  H           1     -43.611  54.409 -53.976  0.00  0.00     0.157 HD
HETATM   16  H           1     -44.723  55.065 -55.241  0.00  0.00     0.157 HD
HETATM   17  H           1     -39.744  57.070 -51.796  0.00  0.00     0.284 HD
HETATM   18  H           1     -40.928  56.395 -50.805  0.00  0.00     0.284 HD
ENDROOT
BRANCH   2  19
HETATM   19  S           1     -45.502  59.831 -53.653  0.00  0.00    -0.125 SA
BRANCH  19  20
HETATM   20  C           1     -44.818  61.497 -53.403  0.00  0.00     0.077 C 
BRANCH  20  21
HETATM   21  C           1     -44.853  61.828 -51.902  0.00  0.00     0.010 C 
BRANCH  21  22
HETATM   22  C           1     -46.235  61.538 -51.292  0.00  0.00    -0.004 C 
HETATM   23  C           1     -46.694  62.664 -50.356  0.00  0.00     0.005 C 
ENDBRANCH  21  22
ENDBRANCH  20  21
ENDBRANCH  19  20
ENDBRANCH   2  19
BRANCH   2  24
HETATM   24  S           1     -42.600  59.496 -54.715  0.00  0.00    -0.125 SA
BRANCH  24  25
HETATM   25  C           1     -43.206  59.370 -56.427  0.00  0.00     0.077 C 
BRANCH  25  26
HETATM   26  C           1     -42.016  59.547 -57.385  0.00  0.00     0.010 C 
BRANCH  26  27
HETATM   27  C           1     -41.946  58.410 -58.417  0.00  0.00    -0.004 C 
HETATM   28  C           1     -42.139  58.925 -59.850  0.00  0.00     0.005 C 
ENDBRANCH  26  27
ENDBRANCH  25  26
ENDBRANCH  24  25
ENDBRANCH   2  24
BRANCH   5  29
HETATM   29  C           1     -43.184  55.913 -51.555  0.00  0.00     0.105 C 
HETATM   30  N           1     -43.827  55.014 -51.209  0.00  0.00    -0.151 N 
ENDBRANCH   5  29
BRANCH   9  31
HETATM   31  C           1     -41.027  55.308 -53.432  0.00  0.00    -0.026 A 
HETATM   32  C           1     -40.922  54.272 -52.576  0.00  0.00     0.009 A 
HETATM   33  C           1     -40.506  53.064 -52.985  0.00  0.00     0.001 A 
HETATM   34  C           1     -40.192  52.865 -54.273  0.00  0.00     0.000 A 
HETATM   35  C           1     -40.305  53.878 -55.143  0.00  0.00     0.001 A 
HETATM   36  C           1     -40.721  55.085 -54.723  0.00  0.00     0.009 A 
ENDBRANCH   9  31
TORSDOF 10
ENDMDL
MODEL 4
REMARK VINA RESULT:      -6.1      2.232      6.772
REMARK  10 active torsions:
REMARK  status: ('A' for Active; 'I' for Inactive)
REMARK    1  A    between atoms: C_1  and  C_8 
REMARK    2  A    between atoms: C_1  and  S_9 
REMARK    3  A    between atoms: C_3  and  C_24 
REMARK    4  A    between atoms: C_7  and  C_8 
REMARK    5  A    between atoms: S_9  and  C_10 
REMARK    6  A    between atoms: C_10  and  S_11 
REMARK    7  A    between atoms: S_11  and  C_12 
REMARK    8  A    between atoms: C_12  and  C_13 
REMARK    9  A    between atoms: C_13  and  C_14 
REMARK   10  A    between atoms: C_18  and  C_19 
ROOT
HETATM    1  C           1     -44.540  59.337 -52.740  0.00  0.00     0.092 C 
HETATM    2  C           1     -43.135  57.423 -53.081  0.00  0.00     0.156 C 
HETATM    3  N           1     -44.517  58.088 -53.122  0.00  0.00    -0.350 N 
HETATM    4  N           1     -45.591  60.037 -52.647  0.00  0.00    -0.388 N 
HETATM    5  C           1     -43.149  59.791 -52.384  0.00  0.00     0.127 C 
HETATM    6  C           1     -42.236  58.713 -53.035  0.00  0.00     0.136 C 
HETATM    7  C           1     -41.885  59.147 -54.423  0.00  0.00     0.079 C 
HETATM    8  N           1     -41.607  59.598 -55.455  0.00  0.00    -0.196 NA
HETATM    9  C           1     -42.785  59.986 -50.853  0.00  0.00     0.248 C 
HETATM   10  N           1     -41.321  60.475 -50.669  0.00  0.00    -0.040 N 
HETATM   11  C           1     -40.484  59.470 -51.301  0.00  0.00     0.105 C 
HETATM   12  C           1     -39.103  59.328 -50.712  0.00  0.00     0.075 C 
HETATM   13  C           1     -40.899  58.667 -52.306  0.00  0.00     0.036 C 
HETATM   14  H           1     -45.368  57.581 -53.399  0.00  0.00     0.163 HD
HETATM   15  H           1     -45.547  61.015 -52.263  0.00  0.00     0.157 HD
HETATM   16  H           1     -46.525  59.643 -52.917  0.00  0.00     0.157 HD
HETATM   17  H           1     -41.115  60.477 -49.644  0.00  0.00     0.284 HD
HETATM   18  H           1     -41.128  61.428 -51.035  0.00  0.00     0.284 HD
ENDROOT
BRANCH   2  19
HETATM   19  S           1     -42.947  56.454 -54.613  0.00  0.00    -0.125 SA
BRANCH  19  20
HETATM   20  C           1     -41.236  55.847 -54.511  0.00  0.00     0.077 C 
BRANCH  20  21
HETATM   21  C           1     -41.145  54.494 -55.234  0.00  0.00     0.010 C 
BRANCH  21  22
HETATM   22  C           1     -40.090  53.579 -54.589  0.00  0.00    -0.004 C 
HETATM   23  C           1     -40.645  52.175 -54.311  0.00  0.00     0.005 C 
ENDBRANCH  21  22
ENDBRANCH  20  21
ENDBRANCH  19  20
ENDBRANCH   2  19
BRANCH   2  24
HETATM   24  S           1     -42.966  56.518 -51.505  0.00  0.00    -0.125 SA
BRANCH  24  25
HETATM   25  C           1     -43.414  54.835 -52.034  0.00  0.00     0.077 C 
BRANCH  25  26
HETATM   26  C           1     -42.336  53.859 -51.535  0.00  0.00     0.010 C 
BRANCH  26  27
HETATM   27  C           1     -41.062  54.600 -51.092  0.00  0.00    -0.004 C 
HETATM   28  C           1     -39.991  53.634 -50.569  0.00  0.00     0.005 C 
ENDBRANCH  26  27
ENDBRANCH  25  26
ENDBRANCH  24  25
ENDBRANCH   2  24
BRANCH   5  29
HETATM   29  C           1     -42.725  61.137 -52.838  0.00  0.00     0.105 C 
HETATM   30  N           1     -43.179  61.996 -53.468  0.00  0.00    -0.151 N 
ENDBRANCH   5  29
BRANCH   9  31
HETATM   31  C           1     -43.768  60.889 -50.119  0.00  0.00    -0.026 A 
HETATM   32  C           1     -43.508  62.207 -50.014  0.00  0.00     0.009 A 
HETATM   33  C           1     -44.342  63.037 -49.370  0.00  0.00     0.001 A 
HETATM   34  C           1     -45.467  62.560 -48.818  0.00  0.00     0.000 A 
HETATM   35  C           1     -45.750  61.254 -48.924  0.00  0.00     0.001 A 
HETATM   36  C           1     -44.909  60.431 -49.571  0.00  0.00     0.009 A 
ENDBRANCH   9  31
TORSDOF 10
ENDMDL
MODEL 5
REMARK VINA RESULT:      -5.9      1.367      3.596
REMARK  10 active torsions:
REMARK  status: ('A' for Active; 'I' for Inactive)
REMARK    1  A    between atoms: C_1  and  C_8 
REMARK    2  A    between atoms: C_1  and  S_9 
REMARK    3  A    between atoms: C_3  and  C_24 
REMARK    4  A    between atoms: C_7  and  C_8 
REMARK    5  A    between atoms: S_9  and  C_10 
REMARK    6  A    between atoms: C_10  and  S_11 
REMARK    7  A    between atoms: S_11  and  C_12 
REMARK    8  A    between atoms: C_12  and  C_13 
REMARK    9  A    between atoms: C_13  and  C_14 
REMARK   10  A    between atoms: C_18  and  C_19 
ROOT
HETATM    1  C           1     -43.598  55.280 -53.787  0.00  0.00     0.092 C 
HETATM    2  C           1     -43.638  57.656 -54.112  0.00  0.00     0.156 C 
HETATM    3  N           1     -43.999  56.240 -54.576  0.00  0.00    -0.350 N 
HETATM    4  N           1     -43.746  54.046 -54.027  0.00  0.00    -0.388 N 
HETATM    5  C           1     -42.894  55.862 -52.589  0.00  0.00     0.127 C 
HETATM    6  C           1     -43.332  57.355 -52.599  0.00  0.00     0.136 C 
HETATM    7  C           1     -44.575  57.503 -51.781  0.00  0.00     0.079 C 
HETATM    8  N           1     -45.492  57.534 -51.072  0.00  0.00    -0.196 NA
HETATM    9  C           1     -41.315  55.739 -52.504  0.00  0.00     0.248 C 
HETATM   10  N           1     -40.760  56.374 -51.199  0.00  0.00    -0.040 N 
HETATM   11  C           1     -41.195  57.759 -51.213  0.00  0.00     0.105 C 
HETATM   12  C           1     -40.287  58.721 -50.488  0.00  0.00     0.075 C 
HETATM   13  C           1     -42.296  58.197 -51.864  0.00  0.00     0.036 C 
HETATM   14  H           1     -44.494  56.054 -55.459  0.00  0.00     0.163 HD
HETATM   15  H           1     -43.333  53.325 -53.383  0.00  0.00     0.157 HD
HETATM   16  H           1     -44.251  53.723 -54.888  0.00  0.00     0.157 HD
HETATM   17  H           1     -39.716  56.357 -51.258  0.00  0.00     0.284 HD
HETATM   18  H           1     -41.038  55.888 -50.323  0.00  0.00     0.284 HD
ENDROOT
BRANCH   2  19
HETATM   19  S           1     -45.105  58.708 -54.366  0.00  0.00    -0.125 SA
BRANCH  19  20
HETATM   20  C           1     -45.858  58.011 -55.867  0.00  0.00     0.077 C 
BRANCH  20  21
HETATM   21  C           1     -45.246  58.702 -57.097  0.00  0.00     0.010 C 
BRANCH  21  22
HETATM   22  C           1     -44.703  57.678 -58.108  0.00  0.00    -0.004 C 
HETATM   23  C           1     -44.994  58.095 -59.555  0.00  0.00     0.005 C 
ENDBRANCH  21  22
ENDBRANCH  20  21
ENDBRANCH  19  20
ENDBRANCH   2  19
BRANCH   2  24
HETATM   24  S           1     -42.098  58.171 -54.945  0.00  0.00    -0.125 SA
BRANCH  24  25
HETATM   25  C           1     -42.419  59.947 -55.180  0.00  0.00     0.077 C 
BRANCH  25  26
HETATM   26  C           1     -42.110  60.682 -53.866  0.00  0.00     0.010 C 
BRANCH  26  27
HETATM   27  C           1     -43.287  61.566 -53.420  0.00  0.00    -0.004 C 
HETATM   28  C           1     -43.246  61.856 -51.914  0.00  0.00     0.005 C 
ENDBRANCH  26  27
ENDBRANCH  25  26
ENDBRANCH  24  25
ENDBRANCH   2  24
BRANCH   5  29
HETATM   29  C           1     -43.187  55.271 -51.262  0.00  0.00     0.105 C 
HETATM   30  N           1     -43.877  54.440 -50.842  0.00  0.00    -0.151 N 
ENDBRANCH   5  29
BRANCH   9  31
HETATM   31  C           1     -40.820  54.310 -52.681  0.00  0.00    -0.026 A 
HETATM   32  C           1     -40.597  53.833 -53.921  0.00  0.00     0.009 A 
HETATM   33  C           1     -40.168  52.578 -54.123  0.00  0.00     0.001 A 
HETATM   34  C           1     -39.943  51.771 -53.077  0.00  0.00     0.000 A 
HETATM   35  C           1     -40.144  52.232 -51.835  0.00  0.00     0.001 A 
HETATM   36  C           1     -40.575  53.490 -51.643  0.00  0.00     0.009 A 
ENDBRANCH   9  31
TORSDOF 10
ENDMDL
MODEL 6
REMARK VINA RESULT:      -5.7      2.178      6.457
REMARK  10 active torsions:
REMARK  status: ('A' for Active; 'I' for Inactive)
REMARK    1  A    between atoms: C_1  and  C_8 
REMARK    2  A    between atoms: C_1  and  S_9 
REMARK    3  A    between atoms: C_3  and  C_24 
REMARK    4  A    between atoms: C_7  and  C_8 
REMARK    5  A    between atoms: S_9  and  C_10 
REMARK    6  A    between atoms: C_10  and  S_11 
REMARK    7  A    between atoms: S_11  and  C_12 
REMARK    8  A    between atoms: C_12  and  C_13 
REMARK    9  A    between atoms: C_13  and  C_14 
REMARK   10  A    between atoms: C_18  and  C_19 
ROOT
HETATM    1  C           1     -44.397  57.020 -54.534  0.00  0.00     0.092 C 
HETATM    2  C           1     -43.285  55.948 -52.700  0.00  0.00     0.156 C 
HETATM    3  N           1     -44.528  56.143 -53.576  0.00  0.00    -0.350 N 
HETATM    4  N           1     -45.326  57.364 -55.323  0.00  0.00    -0.388 N 
HETATM    5  C           1     -43.002  57.589 -54.522  0.00  0.00     0.127 C 
HETATM    6  C           1     -42.203  56.575 -53.654  0.00  0.00     0.136 C 
HETATM    7  C           1     -41.628  55.520 -54.546  0.00  0.00     0.079 C 
HETATM    8  N           1     -41.164  54.791 -55.318  0.00  0.00    -0.196 NA
HETATM    9  C           1     -42.793  59.069 -53.993  0.00  0.00     0.248 C 
HETATM   10  N           1     -41.302  59.500 -54.068  0.00  0.00    -0.040 N 
HETATM   11  C           1     -40.567  58.532 -53.273  0.00  0.00     0.105 C 
HETATM   12  C           1     -39.304  59.055 -52.635  0.00  0.00     0.075 C 
HETATM   13  C           1     -40.984  57.265 -53.053  0.00  0.00     0.036 C 
HETATM   14  H           1     -45.412  55.644 -53.405  0.00  0.00     0.163 HD
HETATM   15  H           1     -45.172  58.130 -56.026  0.00  0.00     0.157 HD
HETATM   16  H           1     -46.273  56.916 -55.265  0.00  0.00     0.157 HD
HETATM   17  H           1     -41.219  60.435 -53.607  0.00  0.00     0.284 HD
HETATM   18  H           1     -40.918  59.583 -55.030  0.00  0.00     0.284 HD
ENDROOT
BRANCH   2  19
HETATM   19  S           1     -43.076  54.158 -52.433  0.00  0.00    -0.125 SA
BRANCH  19  20
HETATM   20  C           1     -41.956  54.080 -51.004  0.00  0.00     0.077 C 
BRANCH  20  21
HETATM   21  C           1     -40.517  53.885 -51.509  0.00  0.00     0.010 C 
BRANCH  21  22
HETATM   22  C           1     -40.185  52.396 -51.706  0.00  0.00    -0.004 C 
HETATM   23  C           1     -39.948  52.054 -53.183  0.00  0.00     0.005 C 
ENDBRANCH  21  22
ENDBRANCH  20  21
ENDBRANCH  19  20
ENDBRANCH   2  19
BRANCH   2  24
HETATM   24  S           1     -43.448  56.992 -51.211  0.00  0.00    -0.125 SA
BRANCH  24  25
HETATM   25  C           1     -45.163  57.572 -51.392  0.00  0.00     0.077 C 
BRANCH  25  26
HETATM   26  C           1     -45.259  59.005 -50.844  0.00  0.00     0.010 C 
BRANCH  26  27
HETATM   27  C           1     -43.870  59.653 -50.707  0.00  0.00    -0.004 C 
HETATM   28  C           1     -43.956  61.184 -50.653  0.00  0.00     0.005 C 
ENDBRANCH  26  27
ENDBRANCH  25  26
ENDBRANCH  24  25
ENDBRANCH   2  24
BRANCH   5  29
HETATM   29  C           1     -42.319  57.770 -55.825  0.00  0.00     0.105 C 
HETATM   30  N           1     -42.554  57.551 -56.938  0.00  0.00    -0.151 N 
ENDBRANCH   5  29
BRANCH   9  31
HETATM   31  C           1     -43.698  60.081 -54.684  0.00  0.00    -0.026 A 
HETATM   32  C           1     -44.917  60.341 -54.171  0.00  0.00     0.009 A 
HETATM   33  C           1     -45.749  61.219 -54.751  0.00  0.00     0.001 A 
HETATM   34  C           1     -45.370  61.866 -55.863  0.00  0.00     0.000 A 
HETATM   35  C           1     -44.155  61.632 -56.379  0.00  0.00     0.001 A 
HETATM   36  C           1     -43.330  60.751 -55.791  0.00  0.00     0.009 A 
ENDBRANCH   9  31
TORSDOF 10
ENDMDL
MODEL 7
REMARK VINA RESULT:      -5.6     17.238     19.593
REMARK  10 active torsions:
REMARK  status: ('A' for Active; 'I' for Inactive)
REMARK    1  A    between atoms: C_1  and  C_8 
REMARK    2  A    between atoms: C_1  and  S_9 
REMARK    3  A    between atoms: C_3  and  C_24 
REMARK    4  A    between atoms: C_7  and  C_8 
REMARK    5  A    between atoms: S_9  and  C_10 
REMARK    6  A    between atoms: C_10  and  S_11 
REMARK    7  A    between atoms: S_11  and  C_12 
REMARK    8  A    between atoms: C_12  and  C_13 
REMARK    9  A    between atoms: C_13  and  C_14 
REMARK   10  A    between atoms: C_18  and  C_19 
ROOT
HETATM    1  C           1     -34.521  40.092 -54.775  0.00  0.00     0.092 C 
HETATM    2  C           1     -35.114  39.068 -52.689  0.00  0.00     0.156 C 
HETATM    3  N           1     -34.178  39.187 -53.899  0.00  0.00    -0.350 N 
HETATM    4  N           1     -33.912  40.299 -55.866  0.00  0.00    -0.388 N 
HETATM    5  C           1     -35.765  40.806 -54.316  0.00  0.00     0.127 C 
HETATM    6  C           1     -35.851  40.452 -52.803  0.00  0.00     0.136 C 
HETATM    7  C           1     -35.118  41.494 -52.019  0.00  0.00     0.079 C 
HETATM    8  N           1     -34.593  42.383 -51.491  0.00  0.00    -0.196 NA
HETATM    9  C           1     -37.135  40.484 -55.048  0.00  0.00     0.248 C 
HETATM   10  N           1     -38.307  41.320 -54.462  0.00  0.00    -0.040 N 
HETATM   11  C           1     -38.360  40.996 -53.047  0.00  0.00     0.105 C 
HETATM   12  C           1     -39.726  41.104 -52.417  0.00  0.00     0.075 C 
HETATM   13  C           1     -37.295  40.572 -52.331  0.00  0.00     0.036 C 
HETATM   14  H           1     -33.358  38.578 -54.028  0.00  0.00     0.163 HD
HETATM   15  H           1     -34.285  40.995 -56.560  0.00  0.00     0.157 HD
HETATM   16  H           1     -33.048  39.756 -56.110  0.00  0.00     0.157 HD
HETATM   17  H           1     -39.190  40.982 -54.909  0.00  0.00     0.284 HD
HETATM   18  H           1     -38.239  42.344 -54.624  0.00  0.00     0.284 HD
ENDROOT
BRANCH   2  19
HETATM   19  S           1     -34.071  38.915 -51.202  0.00  0.00    -0.125 SA
BRANCH  19  20
HETATM   20  C           1     -32.392  39.180 -51.845  0.00  0.00     0.077 C 
BRANCH  20  21
HETATM   21  C           1     -31.588  39.994 -50.818  0.00  0.00     0.010 C 
BRANCH  21  22
HETATM   22  C           1     -32.362  40.159 -49.499  0.00  0.00    -0.004 C 
HETATM   23  C           1     -31.559  39.644 -48.297  0.00  0.00     0.005 C 
ENDBRANCH  21  22
ENDBRANCH  20  21
ENDBRANCH  19  20
ENDBRANCH   2  19
BRANCH   2  24
HETATM   24  S           1     -36.308  37.724 -53.002  0.00  0.00    -0.125 SA
BRANCH  24  25
HETATM   25  C           1     -36.338  36.913 -51.372  0.00  0.00     0.077 C 
BRANCH  25  26
HETATM   26  C           1     -37.555  37.430 -50.587  0.00  0.00     0.010 C 
BRANCH  26  27
HETATM   27  C           1     -37.189  37.763 -49.131  0.00  0.00    -0.004 C 
HETATM   28  C           1     -37.070  39.276 -48.903  0.00  0.00     0.005 C 
ENDBRANCH  26  27
ENDBRANCH  25  26
ENDBRANCH  24  25
ENDBRANCH   2  24
BRANCH   5  29
HETATM   29  C           1     -35.818  42.277 -54.484  0.00  0.00     0.105 C 
HETATM   30  N           1     -35.155  43.096 -54.964  0.00  0.00    -0.151 N 
ENDBRANCH   5  29
BRANCH   9  31
HETATM   31  C           1     -37.050  40.631 -56.561  0.00  0.00    -0.026 A 
HETATM   32  C           1     -36.859  39.537 -57.325  0.00  0.00     0.009 A 
HETATM   33  C           1     -36.771  39.622 -58.661  0.00  0.00     0.001 A 
HETATM   34  C           1     -36.882  40.814 -59.265  0.00  0.00     0.000 A 
HETATM   35  C           1     -37.087  41.911 -58.523  0.00  0.00     0.001 A 
HETATM   36  C           1     -37.173  41.816 -57.186  0.00  0.00     0.009 A 
ENDBRANCH   9  31
TORSDOF 10
ENDMDL
MODEL 8
REMARK VINA RESULT:      -5.5      2.100      6.348
REMARK  10 active torsions:
REMARK  status: ('A' for Active; 'I' for Inactive)
REMARK    1  A    between atoms: C_1  and  C_8 
REMARK    2  A    between atoms: C_1  and  S_9 
REMARK    3  A    between atoms: C_3  and  C_24 
REMARK    4  A    between atoms: C_7  and  C_8 
REMARK    5  A    between atoms: S_9  and  C_10 
REMARK    6  A    between atoms: C_10  and  S_11 
REMARK    7  A    between atoms: S_11  and  C_12 
REMARK    8  A    between atoms: C_12  and  C_13 
REMARK    9  A    between atoms: C_13  and  C_14 
REMARK   10  A    between atoms: C_18  and  C_19 
ROOT
HETATM    1  C           1     -44.668  59.647 -53.201  0.00  0.00     0.092 C 
HETATM    2  C           1     -43.402  57.688 -53.761  0.00  0.00     0.156 C 
HETATM    3  N           1     -44.728  58.459 -53.741  0.00  0.00    -0.350 N 
HETATM    4  N           1     -45.665  60.410 -53.037  0.00  0.00    -0.388 N 
HETATM    5  C           1     -43.257  59.941 -52.763  0.00  0.00     0.127 C 
HETATM    6  C           1     -42.410  58.886 -53.532  0.00  0.00     0.136 C 
HETATM    7  C           1     -41.988  59.466 -54.845  0.00  0.00     0.079 C 
HETATM    8  N           1     -41.647  60.021 -55.804  0.00  0.00    -0.196 NA
HETATM    9  C           1     -42.924  59.909 -51.213  0.00  0.00     0.248 C 
HETATM   10  N           1     -41.433  60.254 -50.941  0.00  0.00    -0.040 N 
HETATM   11  C           1     -40.656  59.275 -51.682  0.00  0.00     0.105 C 
HETATM   12  C           1     -39.306  58.951 -51.091  0.00  0.00     0.075 C 
HETATM   13  C           1     -41.101  58.643 -52.790  0.00  0.00     0.036 C 
HETATM   14  H           1     -45.607  58.060 -54.097  0.00  0.00     0.163 HD
HETATM   15  H           1     -45.558  61.324 -52.529  0.00  0.00     0.157 HD
HETATM   16  H           1     -46.618  60.128 -53.373  0.00  0.00     0.157 HD
HETATM   17  H           1     -41.256  60.108 -49.920  0.00  0.00     0.284 HD
HETATM   18  H           1     -41.158  61.228 -51.176  0.00  0.00     0.284 HD
ENDROOT
BRANCH   2  19
HETATM   19  S           1     -43.244  56.911 -55.402  0.00  0.00    -0.125 SA
BRANCH  19  20
HETATM   20  C           1     -44.569  57.702 -56.363  0.00  0.00     0.077 C 
BRANCH  20  21
HETATM   21  C           1     -44.140  57.773 -57.837  0.00  0.00     0.010 C 
BRANCH  21  22
HETATM   22  C           1     -42.842  56.984 -58.086  0.00  0.00    -0.004 C 
HETATM   23  C           1     -42.983  56.010 -59.263  0.00  0.00     0.005 C 
ENDBRANCH  21  22
ENDBRANCH  20  21
ENDBRANCH  19  20
ENDBRANCH   2  19
BRANCH   2  24
HETATM   24  S           1     -43.347  56.578 -52.313  0.00  0.00    -0.125 SA
BRANCH  24  25
HETATM   25  C           1     -42.784  55.033 -53.093  0.00  0.00     0.077 C 
BRANCH  25  26
HETATM   26  C           1     -41.273  54.883 -52.852  0.00  0.00     0.010 C 
BRANCH  26  27
HETATM   27  C           1     -40.519  54.570 -54.156  0.00  0.00    -0.004 C 
HETATM   28  C           1     -40.269  53.065 -54.325  0.00  0.00     0.005 C 
ENDBRANCH  26  27
ENDBRANCH  25  26
ENDBRANCH  24  25
ENDBRANCH   2  24
BRANCH   5  29
HETATM   29  C           1     -42.720  61.296 -53.030  0.00  0.00     0.105 C 
HETATM   30  N           1     -43.086  62.259 -53.561  0.00  0.00    -0.151 N 
ENDBRANCH   5  29
BRANCH   9  31
HETATM   31  C           1     -43.855  60.785 -50.386  0.00  0.00    -0.026 A 
HETATM   32  C           1     -43.506  62.058 -50.118  0.00  0.00     0.009 A 
HETATM   33  C           1     -44.293  62.862 -49.387  0.00  0.00     0.001 A 
HETATM   34  C           1     -45.460  62.405 -48.912  0.00  0.00     0.000 A 
HETATM   35  C           1     -45.832  61.146 -49.181  0.00  0.00     0.001 A 
HETATM   36  C           1     -45.037  60.348 -49.913  0.00  0.00     0.009 A 
ENDBRANCH   9  31
TORSDOF 10
ENDMDL
MODEL 9
REMARK VINA RESULT:      -5.5      2.371      6.907
REMARK  10 active torsions:
REMARK  status: ('A' for Active; 'I' for Inactive)
REMARK    1  A    between atoms: C_1  and  C_8 
REMARK    2  A    between atoms: C_1  and  S_9 
REMARK    3  A    between atoms: C_3  and  C_24 
REMARK    4  A    between atoms: C_7  and  C_8 
REMARK    5  A    between atoms: S_9  and  C_10 
REMARK    6  A    between atoms: C_10  and  S_11 
REMARK    7  A    between atoms: S_11  and  C_12 
REMARK    8  A    between atoms: C_12  and  C_13 
REMARK    9  A    between atoms: C_13  and  C_14 
REMARK   10  A    between atoms: C_18  and  C_19 
ROOT
HETATM    1  C           1     -44.791  57.243 -54.689  0.00  0.00     0.092 C 
HETATM    2  C           1     -43.421  55.724 -53.438  0.00  0.00     0.156 C 
HETATM    3  N           1     -44.770  56.096 -54.067  0.00  0.00    -0.350 N 
HETATM    4  N           1     -45.823  57.751 -55.220  0.00  0.00    -0.388 N 
HETATM    5  C           1     -43.429  57.883 -54.634  0.00  0.00     0.127 C 
HETATM    6  C           1     -42.490  56.707 -54.238  0.00  0.00     0.136 C 
HETATM    7  C           1     -41.989  56.045 -55.482  0.00  0.00     0.079 C 
HETATM    8  N           1     -41.595  55.644 -56.496  0.00  0.00    -0.196 NA
HETATM    9  C           1     -43.214  59.124 -53.670  0.00  0.00     0.248 C 
HETATM   10  N           1     -41.760  59.668 -53.753  0.00  0.00    -0.040 N 
HETATM   11  C           1     -40.897  58.554 -53.402  0.00  0.00     0.105 C 
HETATM   12  C           1     -39.586  58.939 -52.762  0.00  0.00     0.075 C 
HETATM   13  C           1     -41.234  57.256 -53.572  0.00  0.00     0.036 C 
HETATM   14  H           1     -45.605  55.501 -53.979  0.00  0.00     0.163 HD
HETATM   15  H           1     -45.786  58.713 -55.642  0.00  0.00     0.157 HD
HETATM   16  H           1     -46.738  57.237 -55.215  0.00  0.00     0.157 HD
HETATM   17  H           1     -41.657  60.407 -53.020  0.00  0.00     0.284 HD
HETATM   18  H           1     -41.501  60.088 -54.667  0.00  0.00     0.284 HD
ENDROOT
BRANCH   2  19
HETATM   19  S           1     -43.112  53.965 -53.801  0.00  0.00    -0.125 SA
BRANCH  19  20
HETATM   20  C           1     -41.374  53.742 -53.319  0.00  0.00     0.077 C 
BRANCH  20  21
HETATM   21  C           1     -40.712  52.751 -54.289  0.00  0.00     0.010 C 
BRANCH  21  22
HETATM   22  C           1     -39.944  51.651 -53.537  0.00  0.00    -0.004 C 
HETATM   23  C           1     -39.980  50.313 -54.287  0.00  0.00     0.005 C 
ENDBRANCH  21  22
ENDBRANCH  20  21
ENDBRANCH  19  20
ENDBRANCH   2  19
BRANCH   2  24
HETATM   24  S           1     -43.440  56.213 -51.679  0.00  0.00    -0.125 SA
BRANCH  24  25
HETATM   25  C           1     -43.677  54.594 -50.881  0.00  0.00     0.077 C 
BRANCH  25  26
HETATM   26  C           1     -42.508  54.347 -49.913  0.00  0.00     0.010 C 
BRANCH  26  27
HETATM   27  C           1     -41.395  55.394 -50.090  0.00  0.00    -0.004 C 
HETATM   28  C           1     -40.003  54.795 -49.847  0.00  0.00     0.005 C 
ENDBRANCH  26  27
ENDBRANCH  25  26
ENDBRANCH  24  25
ENDBRANCH   2  24
BRANCH   5  29
HETATM   29  C           1     -42.918  58.528 -55.867  0.00  0.00     0.105 C 
HETATM   30  N           1     -43.262  58.633 -56.968  0.00  0.00    -0.151 N 
ENDBRANCH   5  29
BRANCH   9  31
HETATM   31  C           1     -44.234  60.231 -53.890  0.00  0.00    -0.026 A 
HETATM   32  C           1     -44.003  61.171 -54.828  0.00  0.00     0.009 A 
HETATM   33  C           1     -44.872  62.169 -55.049  0.00  0.00     0.001 A 
HETATM   34  C           1     -46.004  62.242 -54.335  0.00  0.00     0.000 A 
HETATM   35  C           1     -46.259  61.308 -53.408  0.00  0.00     0.001 A 
HETATM   36  C           1     -45.383  60.314 -53.193  0.00  0.00     0.009 A 
ENDBRANCH   9  31
TORSDOF 10
ENDMDL
MODEL 10
REMARK VINA RESULT:      -5.3      1.346      1.599
REMARK  10 active torsions:
REMARK  status: ('A' for Active; 'I' for Inactive)
REMARK    1  A    between atoms: C_1  and  C_8 
REMARK    2  A    between atoms: C_1  and  S_9 
REMARK    3  A    between atoms: C_3  and  C_24 
REMARK    4  A    between atoms: C_7  and  C_8 
REMARK    5  A    between atoms: S_9  and  C_10 
REMARK    6  A    between atoms: C_10  and  S_11 
REMARK    7  A    between atoms: S_11  and  C_12 
REMARK    8  A    between atoms: C_12  and  C_13 
REMARK    9  A    between atoms: C_13  and  C_14 
REMARK   10  A    between atoms: C_18  and  C_19 
ROOT
HETATM    1  C           1     -44.134  57.723 -53.546  0.00  0.00     0.092 C 
HETATM    2  C           1     -43.502  60.037 -53.544  0.00  0.00     0.156 C 
HETATM    3  N           1     -44.361  58.889 -54.089  0.00  0.00    -0.350 N 
HETATM    4  N           1     -44.696  56.646 -53.901  0.00  0.00    -0.388 N 
HETATM    5  C           1     -43.075  57.850 -52.482  0.00  0.00     0.127 C 
HETATM    6  C           1     -43.027  59.379 -52.197  0.00  0.00     0.136 C 
HETATM    7  C           1     -43.990  59.699 -51.098  0.00  0.00     0.079 C 
HETATM    8  N           1     -44.703  59.842 -50.195  0.00  0.00    -0.196 NA
HETATM    9  C           1     -41.624  57.289 -52.787  0.00  0.00     0.248 C 
HETATM   10  N           1     -40.667  57.485 -51.578  0.00  0.00    -0.040 N 
HETATM   11  C           1     -40.650  58.913 -51.311  0.00  0.00     0.105 C 
HETATM   12  C           1     -39.373  59.434 -50.702  0.00  0.00     0.075 C 
HETATM   13  C           1     -41.665  59.750 -51.624  0.00  0.00     0.036 C 
HETATM   14  H           1     -45.044  59.018 -54.848  0.00  0.00     0.163 HD
HETATM   15  H           1     -44.412  55.730 -53.470  0.00  0.00     0.157 HD
HETATM   16  H           1     -45.427  56.644 -54.654  0.00  0.00     0.157 HD
HETATM   17  H           1     -39.709  57.197 -51.882  0.00  0.00     0.284 HD
HETATM   18  H           1     -40.912  56.935 -50.731  0.00  0.00     0.284 HD
ENDROOT
BRANCH   2  19
HETATM   19  S           1     -44.596  61.476 -53.310  0.00  0.00    -0.125 SA
BRANCH  19  20
HETATM   20  C           1     -46.260  60.752 -53.413  0.00  0.00     0.077 C 
BRANCH  20  21
HETATM   21  C           1     -47.283  61.783 -52.909  0.00  0.00     0.010 C 
BRANCH  21  22
HETATM   22  C           1     -46.985  62.212 -51.462  0.00  0.00    -0.004 C 
HETATM   23  C           1     -47.080  63.733 -51.286  0.00  0.00     0.005 C 
ENDBRANCH  21  22
ENDBRANCH  20  21
ENDBRANCH  19  20
ENDBRANCH   2  19
BRANCH   2  24
HETATM   24  S           1     -42.063  60.264 -54.643  0.00  0.00    -0.125 SA
BRANCH  24  25
HETATM   25  C           1     -42.873  60.229 -56.272  0.00  0.00     0.077 C 
BRANCH  25  26
HETATM   26  C           1     -42.150  59.202 -57.160  0.00  0.00     0.010 C 
BRANCH  26  27
HETATM   27  C           1     -42.792  57.809 -57.050  0.00  0.00    -0.004 C 
HETATM   28  C           1     -42.823  57.086 -58.403  0.00  0.00     0.005 C 
ENDBRANCH  26  27
ENDBRANCH  25  26
ENDBRANCH  24  25
ENDBRANCH   2  24
BRANCH   5  29
HETATM   29  C           1     -43.283  57.118 -51.211  0.00  0.00     0.105 C 
HETATM   30  N           1     -44.116  56.464 -50.740  0.00  0.00    -0.151 N 
ENDBRANCH   5  29
BRANCH   9  31
HETATM   31  C           1     -41.633  55.841 -53.257  0.00  0.00    -0.026 A 
HETATM   32  C           1     -41.523  55.569 -54.573  0.00  0.00     0.009 A 
HETATM   33  C           1     -41.535  54.308 -55.031  0.00  0.00     0.001 A 
HETATM   34  C           1     -41.649  53.284 -54.173  0.00  0.00     0.000 A 
HETATM   35  C           1     -41.744  53.534 -52.860  0.00  0.00     0.001 A 
HETATM   36  C           1     -41.733  54.800 -52.410  0.00  0.00     0.009 A 
ENDBRANCH   9  31
TORSDOF 10
ENDMDL
