MODEL 1
REMARK VINA RESULT:      -9.5      0.000      0.000
REMARK  4 active torsions:
REMARK  status: ('A' for Active; 'I' for Inactive)
REMARK    1  A    between atoms: N_5  and  C_6 
REMARK    2  A    between atoms: C_6  and  C_7 
REMARK    3  A    between atoms: C_7  and  C_8 
REMARK    4  A    between atoms: C_8  and  N_9 
ROOT
HETATM    1  C   UNL     1     -43.848  57.002 -55.422  1.00  0.00     0.236 C 
ENDROOT
BRANCH   1   2
HETATM    2  C   UNL     1     -43.113  58.172 -56.076  1.00  0.00     0.048 C 
BRANCH   2   3
HETATM    3  C   UNL     1     -42.482  57.697 -57.398  1.00  0.00     0.131 C 
BRANCH   3   4
HETATM    4  N   UNL     1     -43.332  58.035 -58.554  1.00  0.00    -0.346 N 
HETATM    5  C   UNL     1     -44.103  56.994 -59.135  1.00  0.00     0.041 A 
HETATM    6  C   UNL     1     -45.386  57.172 -59.696  1.00  0.00    -0.031 A 
HETATM    7  C   UNL     1     -43.541  55.699 -59.246  1.00  0.00     0.030 A 
HETATM    8  C   UNL     1     -46.052  56.070 -60.291  1.00  0.00     0.009 A 
HETATM    9  C   UNL     1     -46.148  58.477 -59.774  1.00  0.00     0.045 C 
HETATM   10  C   UNL     1     -45.484  54.803 -60.338  1.00  0.00     0.001 A 
HETATM   11  C   UNL     1     -44.218  54.617 -59.819  1.00  0.00     0.002 A 
HETATM   12  C   UNL     1     -45.834  59.513 -58.707  1.00  0.00     0.045 C 
HETATM   13  C   UNL     1     -44.505  60.162 -58.973  1.00  0.00    -0.031 A 
HETATM   14  C   UNL     1     -43.325  59.405 -58.906  1.00  0.00     0.042 A 
HETATM   15  C   UNL     1     -44.456  61.530 -59.304  1.00  0.00     0.011 A 
HETATM   16  C   UNL     1     -42.109  60.056 -59.184  1.00  0.00     0.054 A 
HETATM   17  C   UNL     1     -42.067  61.418 -59.483  1.00  0.00     0.036 A 
HETATM   18 CL   UNL     1     -40.547  62.188 -59.717  1.00  0.00    -0.084 Cl
HETATM   19  C   UNL     1     -43.238  62.158 -59.551  1.00  0.00     0.024 A 
ENDBRANCH   3   4
ENDBRANCH   2   3
ENDBRANCH   1   2
BRANCH   1  20
HETATM   20  N   UNL     1     -42.925  55.903 -54.852  1.00  0.00    -0.071 N 
HETATM   21  H   UNL     1     -42.536  55.490 -55.714  1.00  0.00     0.279 HD
HETATM   22  C   UNL     1     -43.595  54.780 -54.100  1.00  0.00     0.238 C 
HETATM   23  C   UNL     1     -42.829  54.279 -52.879  1.00  0.00     0.077 C 
HETATM   24  C   UNL     1     -41.299  54.402 -52.903  1.00  0.00     0.212 C 
HETATM   25  N   UNL     1     -40.575  53.078 -53.156  1.00  0.00    -0.032 N 
HETATM   26  C   UNL     1     -40.840  54.697 -51.460  1.00  0.00     0.256 C 
HETATM   27  C   UNL     1     -40.742  55.476 -53.837  1.00  0.00     0.077 C 
HETATM   28  H   UNL     1     -39.596  53.339 -53.351  1.00  0.00     0.283 HD
HETATM   29  C   UNL     1     -40.454  52.426 -51.811  1.00  0.00     0.290 C 
HETATM   30  C   UNL     1     -40.985  52.129 -54.230  1.00  0.00     0.239 C 
HETATM   31  C   UNL     1     -39.346  51.390 -51.871  1.00  0.00     0.055 C 
HETATM   32  N   UNL     1     -40.223  53.553 -50.986  1.00  0.00    -0.331 N 
HETATM   33  C   UNL     1     -39.621  50.378 -52.992  1.00  0.00     0.005 C 
HETATM   34  C   UNL     1     -39.905  51.055 -54.338  1.00  0.00     0.028 C 
HETATM   35  H   UNL     1     -40.007  53.490 -49.991  1.00  0.00     0.164 HD
HETATM   36  O   UNL     1     -41.000  55.743 -50.863  1.00  0.00    -0.271 OA
HETATM   37  C   UNL     1     -41.778  56.550 -54.104  1.00  0.00     0.238 C 
ENDBRANCH   1  20
TORSDOF 4
ENDMDL
MODEL 2
REMARK VINA RESULT:      -9.4      3.460      9.773
REMARK  4 active torsions:
REMARK  status: ('A' for Active; 'I' for Inactive)
REMARK    1  A    between atoms: N_5  and  C_6 
REMARK    2  A    between atoms: C_6  and  C_7 
REMARK    3  A    between atoms: C_7  and  C_8 
REMARK    4  A    between atoms: C_8  and  N_9 
ROOT
HETATM    1  C   UNL     1     -42.907  54.886 -56.378  1.00  0.00     0.236 C 
ENDROOT
BRANCH   1   2
HETATM    2  C   UNL     1     -41.864  55.182 -55.300  1.00  0.00     0.048 C 
BRANCH   2   3
HETATM    3  C   UNL     1     -42.527  55.083 -53.914  1.00  0.00     0.131 C 
BRANCH   3   4
HETATM    4  N   UNL     1     -41.546  55.274 -52.831  1.00  0.00    -0.346 N 
HETATM    5  C   UNL     1     -41.308  56.599 -52.380  1.00  0.00     0.041 A 
HETATM    6  C   UNL     1     -41.018  56.944 -51.042  1.00  0.00    -0.031 A 
HETATM    7  C   UNL     1     -41.273  57.654 -53.324  1.00  0.00     0.030 A 
HETATM    8  C   UNL     1     -40.754  58.296 -50.706  1.00  0.00     0.009 A 
HETATM    9  C   UNL     1     -40.913  55.981 -49.879  1.00  0.00     0.045 C 
HETATM   10  C   UNL     1     -40.775  59.309 -51.656  1.00  0.00     0.001 A 
HETATM   11  C   UNL     1     -41.028  58.986 -52.975  1.00  0.00     0.002 A 
HETATM   12  C   UNL     1     -41.720  54.697 -49.984  1.00  0.00     0.045 C 
HETATM   13  C   UNL     1     -41.078  53.745 -50.955  1.00  0.00    -0.031 A 
HETATM   14  C   UNL     1     -41.000  54.075 -52.317  1.00  0.00     0.042 A 
HETATM   15  C   UNL     1     -40.544  52.531 -50.483  1.00  0.00     0.011 A 
HETATM   16  C   UNL     1     -40.371  53.159 -53.180  1.00  0.00     0.054 A 
HETATM   17  C   UNL     1     -39.869  51.945 -52.710  1.00  0.00     0.036 A 
HETATM   18 CL   UNL     1     -39.200  50.816 -53.820  1.00  0.00    -0.084 Cl
HETATM   19  C   UNL     1     -39.947  51.628 -51.361  1.00  0.00     0.024 A 
ENDBRANCH   3   4
ENDBRANCH   2   3
ENDBRANCH   1   2
BRANCH   1  20
HETATM   20  N   UNL     1     -43.026  55.971 -57.470  1.00  0.00    -0.071 N 
HETATM   21  H   UNL     1     -42.036  56.129 -57.715  1.00  0.00     0.279 HD
HETATM   22  C   UNL     1     -43.581  57.307 -57.040  1.00  0.00     0.238 C 
HETATM   23  C   UNL     1     -44.494  57.980 -58.061  1.00  0.00     0.077 C 
HETATM   24  C   UNL     1     -44.242  57.677 -59.544  1.00  0.00     0.212 C 
HETATM   25  N   UNL     1     -43.554  58.815 -60.300  1.00  0.00    -0.032 N 
HETATM   26  C   UNL     1     -45.615  57.668 -60.249  1.00  0.00     0.256 C 
HETATM   27  C   UNL     1     -43.521  56.362 -59.833  1.00  0.00     0.077 C 
HETATM   28  H   UNL     1     -43.266  58.405 -61.202  1.00  0.00     0.283 HD
HETATM   29  C   UNL     1     -44.657  59.738 -60.724  1.00  0.00     0.290 C 
HETATM   30  C   UNL     1     -42.365  59.535 -59.762  1.00  0.00     0.239 C 
HETATM   31  C   UNL     1     -44.158  60.597 -61.873  1.00  0.00     0.055 C 
HETATM   32  N   UNL     1     -45.682  58.810 -61.028  1.00  0.00    -0.331 N 
HETATM   33  C   UNL     1     -42.887  61.352 -61.461  1.00  0.00     0.005 C 
HETATM   34  C   UNL     1     -41.816  60.424 -60.876  1.00  0.00     0.028 C 
HETATM   35  H   UNL     1     -46.580  59.072 -61.435  1.00  0.00     0.164 HD
HETATM   36  O   UNL     1     -46.468  56.811 -60.132  1.00  0.00    -0.271 OA
HETATM   37  C   UNL     1     -43.704  55.383 -58.689  1.00  0.00     0.238 C 
ENDBRANCH   1  20
TORSDOF 4
ENDMDL
MODEL 3
REMARK VINA RESULT:      -9.1      1.300      2.301
REMARK  4 active torsions:
REMARK  status: ('A' for Active; 'I' for Inactive)
REMARK    1  A    between atoms: N_5  and  C_6 
REMARK    2  A    between atoms: C_6  and  C_7 
REMARK    3  A    between atoms: C_7  and  C_8 
REMARK    4  A    between atoms: C_8  and  N_9 
ROOT
HETATM    1  C   UNL     1     -43.605  57.287 -55.808  1.00  0.00     0.236 C 
ENDROOT
BRANCH   1   2
HETATM    2  C   UNL     1     -42.644  58.306 -56.417  1.00  0.00     0.048 C 
BRANCH   2   3
HETATM    3  C   UNL     1     -42.180  57.802 -57.796  1.00  0.00     0.131 C 
BRANCH   3   4
HETATM    4  N   UNL     1     -43.167  58.116 -58.846  1.00  0.00    -0.346 N 
HETATM    5  C   UNL     1     -43.983  57.058 -59.324  1.00  0.00     0.041 A 
HETATM    6  C   UNL     1     -45.327  57.211 -59.730  1.00  0.00    -0.031 A 
HETATM    7  C   UNL     1     -43.417  55.771 -59.492  1.00  0.00     0.030 A 
HETATM    8  C   UNL     1     -46.040  56.093 -60.233  1.00  0.00     0.009 A 
HETATM    9  C   UNL     1     -46.115  58.503 -59.726  1.00  0.00     0.045 C 
HETATM   10  C   UNL     1     -45.461  54.835 -60.338  1.00  0.00     0.001 A 
HETATM   11  C   UNL     1     -44.139  54.674 -59.973  1.00  0.00     0.002 A 
HETATM   12  C   UNL     1     -45.694  59.553 -58.710  1.00  0.00     0.045 C 
HETATM   13  C   UNL     1     -44.417  60.221 -59.137  1.00  0.00    -0.031 A 
HETATM   14  C   UNL     1     -43.225  59.483 -59.205  1.00  0.00     0.042 A 
HETATM   15  C   UNL     1     -44.430  61.586 -59.481  1.00  0.00     0.011 A 
HETATM   16  C   UNL     1     -42.061  60.151 -59.630  1.00  0.00     0.054 A 
HETATM   17  C   UNL     1     -42.077  61.510 -59.942  1.00  0.00     0.036 A 
HETATM   18 CL   UNL     1     -40.610  62.302 -60.360  1.00  0.00    -0.084 Cl
HETATM   19  C   UNL     1     -43.260  62.232 -59.876  1.00  0.00     0.024 A 
ENDBRANCH   3   4
ENDBRANCH   2   3
ENDBRANCH   1   2
BRANCH   1  20
HETATM   20  N   UNL     1     -43.043  56.522 -54.590  1.00  0.00    -0.071 N 
HETATM   21  H   UNL     1     -43.556  56.965 -53.811  1.00  0.00     0.279 HD
HETATM   22  C   UNL     1     -41.574  56.703 -54.297  1.00  0.00     0.238 C 
HETATM   23  C   UNL     1     -40.858  55.446 -53.812  1.00  0.00     0.077 C 
HETATM   24  C   UNL     1     -41.687  54.409 -53.044  1.00  0.00     0.212 C 
HETATM   25  N   UNL     1     -41.436  54.409 -51.535  1.00  0.00    -0.032 N 
HETATM   26  C   UNL     1     -41.138  53.016 -53.415  1.00  0.00     0.256 C 
HETATM   27  C   UNL     1     -43.191  54.442 -53.312  1.00  0.00     0.077 C 
HETATM   28  H   UNL     1     -42.191  53.830 -51.135  1.00  0.00     0.283 HD
HETATM   29  C   UNL     1     -40.237  53.533 -51.329  1.00  0.00     0.290 C 
HETATM   30  C   UNL     1     -41.390  55.661 -50.727  1.00  0.00     0.239 C 
HETATM   31  C   UNL     1     -40.213  53.073 -49.882  1.00  0.00     0.055 C 
HETATM   32  N   UNL     1     -40.463  52.534 -52.307  1.00  0.00    -0.331 N 
HETATM   33  C   UNL     1     -40.226  54.282 -48.938  1.00  0.00     0.005 C 
HETATM   34  C   UNL     1     -41.360  55.263 -49.254  1.00  0.00     0.028 C 
HETATM   35  H   UNL     1     -39.881  51.703 -52.411  1.00  0.00     0.164 HD
HETATM   36  O   UNL     1     -41.277  52.459 -54.486  1.00  0.00    -0.271 OA
HETATM   37  C   UNL     1     -43.486  55.075 -54.658  1.00  0.00     0.238 C 
ENDBRANCH   1  20
TORSDOF 4
ENDMDL
MODEL 4
REMARK VINA RESULT:      -9.0      3.246      9.697
REMARK  4 active torsions:
REMARK  status: ('A' for Active; 'I' for Inactive)
REMARK    1  A    between atoms: N_5  and  C_6 
REMARK    2  A    between atoms: C_6  and  C_7 
REMARK    3  A    between atoms: C_7  and  C_8 
REMARK    4  A    between atoms: C_8  and  N_9 
ROOT
HETATM    1  C   UNL     1     -42.929  54.780 -56.307  1.00  0.00     0.236 C 
ENDROOT
BRANCH   1   2
HETATM    2  C   UNL     1     -41.993  55.300 -55.216  1.00  0.00     0.048 C 
BRANCH   2   3
HETATM    3  C   UNL     1     -42.580  54.948 -53.837  1.00  0.00     0.131 C 
BRANCH   3   4
HETATM    4  N   UNL     1     -41.589  55.145 -52.763  1.00  0.00    -0.346 N 
HETATM    5  C   UNL     1     -41.380  56.468 -52.291  1.00  0.00     0.041 A 
HETATM    6  C   UNL     1     -41.081  56.796 -50.951  1.00  0.00    -0.031 A 
HETATM    7  C   UNL     1     -41.384  57.539 -53.216  1.00  0.00     0.030 A 
HETATM    8  C   UNL     1     -40.847  58.149 -50.594  1.00  0.00     0.009 A 
HETATM    9  C   UNL     1     -40.937  55.816 -49.806  1.00  0.00     0.045 C 
HETATM   10  C   UNL     1     -40.907  59.178 -51.526  1.00  0.00     0.001 A 
HETATM   11  C   UNL     1     -41.168  58.871 -52.847  1.00  0.00     0.002 A 
HETATM   12  C   UNL     1     -41.712  54.514 -49.925  1.00  0.00     0.045 C 
HETATM   13  C   UNL     1     -41.058  53.596 -50.920  1.00  0.00    -0.031 A 
HETATM   14  C   UNL     1     -41.007  53.951 -52.277  1.00  0.00     0.042 A 
HETATM   15  C   UNL     1     -40.487  52.388 -50.477  1.00  0.00     0.011 A 
HETATM   16  C   UNL     1     -40.366  53.067 -53.164  1.00  0.00     0.054 A 
HETATM   17  C   UNL     1     -39.827  51.859 -52.722  1.00  0.00     0.036 A 
HETATM   18 CL   UNL     1     -39.143  50.767 -53.860  1.00  0.00    -0.084 Cl
HETATM   19  C   UNL     1     -39.879  51.517 -51.378  1.00  0.00     0.024 A 
ENDBRANCH   3   4
ENDBRANCH   2   3
ENDBRANCH   1   2
BRANCH   1  20
HETATM   20  N   UNL     1     -43.568  55.879 -57.182  1.00  0.00    -0.071 N 
HETATM   21  H   UNL     1     -44.571  55.757 -56.970  1.00  0.00     0.279 HD
HETATM   22  C   UNL     1     -43.423  55.724 -58.676  1.00  0.00     0.238 C 
HETATM   23  C   UNL     1     -43.197  57.028 -59.436  1.00  0.00     0.077 C 
HETATM   24  C   UNL     1     -43.788  58.310 -58.835  1.00  0.00     0.212 C 
HETATM   25  N   UNL     1     -45.045  58.808 -59.553  1.00  0.00    -0.032 N 
HETATM   26  C   UNL     1     -42.812  59.461 -59.158  1.00  0.00     0.256 C 
HETATM   27  C   UNL     1     -44.041  58.274 -57.329  1.00  0.00     0.077 C 
HETATM   28  H   UNL     1     -45.441  59.531 -58.933  1.00  0.00     0.283 HD
HETATM   29  C   UNL     1     -44.548  59.632 -60.703  1.00  0.00     0.290 C 
HETATM   30  C   UNL     1     -46.170  57.904 -59.925  1.00  0.00     0.239 C 
HETATM   31  C   UNL     1     -45.665  60.554 -61.159  1.00  0.00     0.055 C 
HETATM   32  N   UNL     1     -43.415  60.251 -60.121  1.00  0.00    -0.331 N 
HETATM   33  C   UNL     1     -46.916  59.740 -61.517  1.00  0.00     0.005 C 
HETATM   34  C   UNL     1     -47.330  58.777 -60.399  1.00  0.00     0.028 C 
HETATM   35  H   UNL     1     -42.856  60.962 -60.591  1.00  0.00     0.164 HD
HETATM   36  O   UNL     1     -41.719  59.628 -58.654  1.00  0.00    -0.271 OA
HETATM   37  C   UNL     1     -43.158  57.239 -56.659  1.00  0.00     0.238 C 
ENDBRANCH   1  20
TORSDOF 4
ENDMDL
MODEL 5
REMARK VINA RESULT:      -8.9      1.575      2.033
REMARK  4 active torsions:
REMARK  status: ('A' for Active; 'I' for Inactive)
REMARK    1  A    between atoms: N_5  and  C_6 
REMARK    2  A    between atoms: C_6  and  C_7 
REMARK    3  A    between atoms: C_7  and  C_8 
REMARK    4  A    between atoms: C_8  and  N_9 
ROOT
HETATM    1  C   UNL     1     -43.440  57.395 -56.247  1.00  0.00     0.236 C 
ENDROOT
BRANCH   1   2
HETATM    2  C   UNL     1     -42.659  58.541 -56.891  1.00  0.00     0.048 C 
BRANCH   2   3
HETATM    3  C   UNL     1     -42.128  58.083 -58.261  1.00  0.00     0.131 C 
BRANCH   3   4
HETATM    4  N   UNL     1     -43.128  58.287 -59.325  1.00  0.00    -0.346 N 
HETATM    5  C   UNL     1     -43.952  57.187 -59.678  1.00  0.00     0.041 A 
HETATM    6  C   UNL     1     -45.300  57.300 -60.081  1.00  0.00    -0.031 A 
HETATM    7  C   UNL     1     -43.390  55.888 -59.717  1.00  0.00     0.030 A 
HETATM    8  C   UNL     1     -46.022  56.138 -60.454  1.00  0.00     0.009 A 
HETATM    9  C   UNL     1     -46.087  58.588 -60.202  1.00  0.00     0.045 C 
HETATM   10  C   UNL     1     -45.446  54.874 -60.434  1.00  0.00     0.001 A 
HETATM   11  C   UNL     1     -44.119  54.748 -60.071  1.00  0.00     0.002 A 
HETATM   12  C   UNL     1     -45.651  59.737 -59.308  1.00  0.00     0.045 C 
HETATM   13  C   UNL     1     -44.378  60.353 -59.820  1.00  0.00    -0.031 A 
HETATM   14  C   UNL     1     -43.189  59.609 -59.825  1.00  0.00     0.042 A 
HETATM   15  C   UNL     1     -44.395  61.675 -60.305  1.00  0.00     0.011 A 
HETATM   16  C   UNL     1     -42.030  60.225 -60.333  1.00  0.00     0.054 A 
HETATM   17  C   UNL     1     -42.048  61.544 -60.786  1.00  0.00     0.036 A 
HETATM   18 CL   UNL     1     -40.585  62.284 -61.304  1.00  0.00    -0.084 Cl
HETATM   19  C   UNL     1     -43.230  62.272 -60.781  1.00  0.00     0.024 A 
ENDBRANCH   3   4
ENDBRANCH   2   3
ENDBRANCH   1   2
BRANCH   1  20
HETATM   20  N   UNL     1     -42.773  56.790 -54.993  1.00  0.00    -0.071 N 
HETATM   21  H   UNL     1     -42.147  56.084 -55.410  1.00  0.00     0.279 HD
HETATM   22  C   UNL     1     -43.677  56.054 -54.035  1.00  0.00     0.238 C 
HETATM   23  C   UNL     1     -43.343  56.251 -52.559  1.00  0.00     0.077 C 
HETATM   24  C   UNL     1     -41.880  56.534 -52.195  1.00  0.00     0.212 C 
HETATM   25  N   UNL     1     -41.152  55.335 -51.582  1.00  0.00    -0.032 N 
HETATM   26  C   UNL     1     -41.885  57.499 -50.991  1.00  0.00     0.256 C 
HETATM   27  C   UNL     1     -41.028  57.131 -53.314  1.00  0.00     0.077 C 
HETATM   28  H   UNL     1     -40.154  55.596 -51.584  1.00  0.00     0.283 HD
HETATM   29  C   UNL     1     -41.475  55.377 -50.118  1.00  0.00     0.290 C 
HETATM   30  C   UNL     1     -41.233  53.963 -52.159  1.00  0.00     0.239 C 
HETATM   31  C   UNL     1     -40.433  54.566 -49.367  1.00  0.00     0.055 C 
HETATM   32  N   UNL     1     -41.479  56.774 -49.884  1.00  0.00    -0.331 N 
HETATM   33  C   UNL     1     -40.375  53.134 -49.915  1.00  0.00     0.005 C 
HETATM   34  C   UNL     1     -40.206  53.094 -51.438  1.00  0.00     0.028 C 
HETATM   35  H   UNL     1     -41.586  57.191 -48.960  1.00  0.00     0.164 HD
HETATM   36  O   UNL     1     -42.192  58.673 -51.023  1.00  0.00    -0.271 OA
HETATM   37  C   UNL     1     -41.898  57.837 -54.335  1.00  0.00     0.238 C 
ENDBRANCH   1  20
TORSDOF 4
ENDMDL
MODEL 6
REMARK VINA RESULT:      -8.9      1.887      4.041
REMARK  4 active torsions:
REMARK  status: ('A' for Active; 'I' for Inactive)
REMARK    1  A    between atoms: N_5  and  C_6 
REMARK    2  A    between atoms: C_6  and  C_7 
REMARK    3  A    between atoms: C_7  and  C_8 
REMARK    4  A    between atoms: C_8  and  N_9 
ROOT
HETATM    1  C   UNL     1     -43.996  57.259 -55.672  1.00  0.00     0.236 C 
ENDROOT
BRANCH   1   2
HETATM    2  C   UNL     1     -43.274  58.450 -56.299  1.00  0.00     0.048 C 
BRANCH   2   3
HETATM    3  C   UNL     1     -44.267  59.242 -57.170  1.00  0.00     0.131 C 
BRANCH   3   4
HETATM    4  N   UNL     1     -43.847  59.265 -58.583  1.00  0.00    -0.346 N 
HETATM    5  C   UNL     1     -43.074  60.370 -59.025  1.00  0.00     0.041 A 
HETATM    6  C   UNL     1     -42.052  60.289 -59.997  1.00  0.00    -0.031 A 
HETATM    7  C   UNL     1     -43.377  61.665 -58.538  1.00  0.00     0.030 A 
HETATM    8  C   UNL     1     -41.369  61.465 -60.398  1.00  0.00     0.009 A 
HETATM    9  C   UNL     1     -41.613  59.035 -60.721  1.00  0.00     0.045 C 
HETATM   10  C   UNL     1     -41.667  62.711 -59.860  1.00  0.00     0.001 A 
HETATM   11  C   UNL     1     -42.683  62.814 -58.930  1.00  0.00     0.002 A 
HETATM   12  C   UNL     1     -41.823  57.719 -59.990  1.00  0.00     0.045 C 
HETATM   13  C   UNL     1     -43.275  57.332 -60.002  1.00  0.00    -0.031 A 
HETATM   14  C   UNL     1     -44.219  58.119 -59.323  1.00  0.00     0.042 A 
HETATM   15  C   UNL     1     -43.681  56.184 -60.709  1.00  0.00     0.011 A 
HETATM   16  C   UNL     1     -45.568  57.724 -59.382  1.00  0.00     0.054 A 
HETATM   17  C   UNL     1     -45.958  56.571 -60.062  1.00  0.00     0.036 A 
HETATM   18 CL   UNL     1     -47.604  56.077 -60.021  1.00  0.00    -0.084 Cl
HETATM   19  C   UNL     1     -45.019  55.800 -60.733  1.00  0.00     0.024 A 
ENDBRANCH   3   4
ENDBRANCH   2   3
ENDBRANCH   1   2
BRANCH   1  20
HETATM   20  N   UNL     1     -43.063  56.209 -55.030  1.00  0.00    -0.071 N 
HETATM   21  H   UNL     1     -42.628  55.781 -55.863  1.00  0.00     0.279 HD
HETATM   22  C   UNL     1     -43.728  55.089 -54.269  1.00  0.00     0.238 C 
HETATM   23  C   UNL     1     -42.995  54.652 -53.004  1.00  0.00     0.077 C 
HETATM   24  C   UNL     1     -41.471  54.823 -52.972  1.00  0.00     0.212 C 
HETATM   25  N   UNL     1     -40.697  53.516 -53.153  1.00  0.00    -0.032 N 
HETATM   26  C   UNL     1     -41.079  55.178 -51.522  1.00  0.00     0.256 C 
HETATM   27  C   UNL     1     -40.910  55.884 -53.918  1.00  0.00     0.077 C 
HETATM   28  H   UNL     1     -39.719  53.802 -53.318  1.00  0.00     0.283 HD
HETATM   29  C   UNL     1     -40.609  52.911 -51.783  1.00  0.00     0.290 C 
HETATM   30  C   UNL     1     -41.033  52.521 -54.210  1.00  0.00     0.239 C 
HETATM   31  C   UNL     1     -39.468  51.909 -51.766  1.00  0.00     0.055 C 
HETATM   32  N   UNL     1     -40.446  54.070 -50.987  1.00  0.00    -0.331 N 
HETATM   33  C   UNL     1     -39.667  50.855 -52.863  1.00  0.00     0.005 C 
HETATM   34  C   UNL     1     -39.917  51.479 -54.240  1.00  0.00     0.028 C 
HETATM   35  H   UNL     1     -40.268  54.046 -49.983  1.00  0.00     0.164 HD
HETATM   36  O   UNL     1     -41.295  56.237 -50.967  1.00  0.00    -0.271 OA
HETATM   37  C   UNL     1     -41.967  56.915 -54.260  1.00  0.00     0.238 C 
ENDBRANCH   1  20
TORSDOF 4
ENDMDL
MODEL 7
REMARK VINA RESULT:      -8.6      3.681      5.640
REMARK  4 active torsions:
REMARK  status: ('A' for Active; 'I' for Inactive)
REMARK    1  A    between atoms: N_5  and  C_6 
REMARK    2  A    between atoms: C_6  and  C_7 
REMARK    3  A    between atoms: C_7  and  C_8 
REMARK    4  A    between atoms: C_8  and  N_9 
ROOT
HETATM    1  C   UNL     1     -44.761  57.317 -51.810  1.00  0.00     0.236 C 
ENDROOT
BRANCH   1   2
HETATM    2  C   UNL     1     -44.504  58.370 -50.732  1.00  0.00     0.048 C 
BRANCH   2   3
HETATM    3  C   UNL     1     -44.596  59.772 -51.362  1.00  0.00     0.131 C 
BRANCH   3   4
HETATM    4  N   UNL     1     -43.536  59.985 -52.364  1.00  0.00    -0.346 N 
HETATM    5  C   UNL     1     -42.197  59.718 -51.977  1.00  0.00     0.041 A 
HETATM    6  C   UNL     1     -41.209  59.195 -52.838  1.00  0.00    -0.031 A 
HETATM    7  C   UNL     1     -41.774  60.064 -50.670  1.00  0.00     0.030 A 
HETATM    8  C   UNL     1     -39.887  59.006 -52.360  1.00  0.00     0.009 A 
HETATM    9  C   UNL     1     -41.401  58.834 -54.296  1.00  0.00     0.045 C 
HETATM   10  C   UNL     1     -39.525  59.316 -51.055  1.00  0.00     0.001 A 
HETATM   11  C   UNL     1     -40.471  59.856 -50.206  1.00  0.00     0.002 A 
HETATM   12  C   UNL     1     -42.806  58.438 -54.718  1.00  0.00     0.045 C 
HETATM   13  C   UNL     1     -43.696  59.647 -54.801  1.00  0.00    -0.031 A 
HETATM   14  C   UNL     1     -44.006  60.373 -53.641  1.00  0.00     0.042 A 
HETATM   15  C   UNL     1     -44.201  60.052 -56.051  1.00  0.00     0.011 A 
HETATM   16  C   UNL     1     -44.826  61.509 -53.775  1.00  0.00     0.054 A 
HETATM   17  C   UNL     1     -45.345  61.887 -55.014  1.00  0.00     0.036 A 
HETATM   18 CL   UNL     1     -46.423  63.223 -55.110  1.00  0.00    -0.084 Cl
HETATM   19  C   UNL     1     -45.031  61.165 -56.156  1.00  0.00     0.024 A 
ENDBRANCH   3   4
ENDBRANCH   2   3
ENDBRANCH   1   2
BRANCH   1  20
HETATM   20  N   UNL     1     -43.650  56.253 -51.945  1.00  0.00    -0.071 N 
HETATM   21  H   UNL     1     -43.290  56.448 -52.893  1.00  0.00     0.279 HD
HETATM   22  C   UNL     1     -44.091  54.810 -51.940  1.00  0.00     0.238 C 
HETATM   23  C   UNL     1     -43.156  53.857 -51.203  1.00  0.00     0.077 C 
HETATM   24  C   UNL     1     -41.666  54.220 -51.157  1.00  0.00     0.212 C 
HETATM   25  N   UNL     1     -40.796  53.388 -52.102  1.00  0.00    -0.032 N 
HETATM   26  C   UNL     1     -41.121  53.749 -49.793  1.00  0.00     0.256 C 
HETATM   27  C   UNL     1     -41.346  55.703 -51.340  1.00  0.00     0.077 C 
HETATM   28  H   UNL     1     -39.883  53.869 -52.121  1.00  0.00     0.283 HD
HETATM   29  C   UNL     1     -40.466  52.137 -51.343  1.00  0.00     0.290 C 
HETATM   30  C   UNL     1     -41.170  53.129 -53.521  1.00  0.00     0.239 C 
HETATM   31  C   UNL     1     -39.238  51.499 -51.969  1.00  0.00     0.055 C 
HETATM   32  N   UNL     1     -40.314  52.650 -50.032  1.00  0.00    -0.331 N 
HETATM   33  C   UNL     1     -39.476  51.236 -53.462  1.00  0.00     0.005 C 
HETATM   34  C   UNL     1     -39.971  52.480 -54.207  1.00  0.00     0.028 C 
HETATM   35  H   UNL     1     -40.001  52.090 -49.239  1.00  0.00     0.164 HD
HETATM   36  O   UNL     1     -41.364  54.256 -48.716  1.00  0.00    -0.271 OA
HETATM   37  C   UNL     1     -42.537  56.563 -50.966  1.00  0.00     0.238 C 
ENDBRANCH   1  20
TORSDOF 4
ENDMDL
MODEL 8
REMARK VINA RESULT:      -8.6      4.382      8.858
REMARK  4 active torsions:
REMARK  status: ('A' for Active; 'I' for Inactive)
REMARK    1  A    between atoms: N_5  and  C_6 
REMARK    2  A    between atoms: C_6  and  C_7 
REMARK    3  A    between atoms: C_7  and  C_8 
REMARK    4  A    between atoms: C_8  and  N_9 
ROOT
HETATM    1  C   UNL     1     -41.369  58.167 -54.308  1.00  0.00     0.236 C 
ENDROOT
BRANCH   1   2
HETATM    2  C   UNL     1     -41.799  59.479 -53.653  1.00  0.00     0.048 C 
BRANCH   2   3
HETATM    3  C   UNL     1     -41.312  59.497 -52.192  1.00  0.00     0.131 C 
BRANCH   3   4
HETATM    4  N   UNL     1     -42.396  59.144 -51.257  1.00  0.00    -0.346 N 
HETATM    5  C   UNL     1     -43.246  60.187 -50.805  1.00  0.00     0.041 A 
HETATM    6  C   UNL     1     -44.623  60.031 -50.535  1.00  0.00    -0.031 A 
HETATM    7  C   UNL     1     -42.689  61.458 -50.522  1.00  0.00     0.030 A 
HETATM    8  C   UNL     1     -45.373  61.131 -50.047  1.00  0.00     0.009 A 
HETATM    9  C   UNL     1     -45.416  58.750 -50.678  1.00  0.00     0.045 C 
HETATM   10  C   UNL     1     -44.797  62.376 -49.825  1.00  0.00     0.001 A 
HETATM   11  C   UNL     1     -43.445  62.539 -50.056  1.00  0.00     0.002 A 
HETATM   12  C   UNL     1     -44.909  57.746 -51.700  1.00  0.00     0.045 C 
HETATM   13  C   UNL     1     -43.683  57.042 -51.188  1.00  0.00    -0.031 A 
HETATM   14  C   UNL     1     -42.497  57.762 -50.972  1.00  0.00     0.042 A 
HETATM   15  C   UNL     1     -43.738  55.663 -50.915  1.00  0.00     0.011 A 
HETATM   16  C   UNL     1     -41.384  57.061 -50.473  1.00  0.00     0.054 A 
HETATM   17  C   UNL     1     -41.439  55.688 -50.232  1.00  0.00     0.036 A 
HETATM   18 CL   UNL     1     -40.023  54.859 -49.718  1.00  0.00    -0.084 Cl
HETATM   19  C   UNL     1     -42.616  54.985 -50.445  1.00  0.00     0.024 A 
ENDBRANCH   3   4
ENDBRANCH   2   3
ENDBRANCH   1   2
BRANCH   1  20
HETATM   20  N   UNL     1     -42.293  57.688 -55.449  1.00  0.00    -0.071 N 
HETATM   21  H   UNL     1     -42.103  56.673 -55.457  1.00  0.00     0.279 HD
HETATM   22  C   UNL     1     -41.977  58.195 -56.834  1.00  0.00     0.238 C 
HETATM   23  C   UNL     1     -43.197  58.513 -57.694  1.00  0.00     0.077 C 
HETATM   24  C   UNL     1     -44.480  57.715 -57.426  1.00  0.00     0.212 C 
HETATM   25  N   UNL     1     -44.769  56.638 -58.473  1.00  0.00    -0.032 N 
HETATM   26  C   UNL     1     -45.671  58.666 -57.671  1.00  0.00     0.256 C 
HETATM   27  C   UNL     1     -44.598  57.113 -56.027  1.00  0.00     0.077 C 
HETATM   28  H   UNL     1     -45.520  56.060 -58.065  1.00  0.00     0.283 HD
HETATM   29  C   UNL     1     -45.495  57.342 -59.581  1.00  0.00     0.290 C 
HETATM   30  C   UNL     1     -43.726  55.694 -58.966  1.00  0.00     0.239 C 
HETATM   31  C   UNL     1     -46.247  56.310 -60.402  1.00  0.00     0.055 C 
HETATM   32  N   UNL     1     -46.281  58.261 -58.845  1.00  0.00    -0.331 N 
HETATM   33  C   UNL     1     -45.283  55.235 -60.921  1.00  0.00     0.005 C 
HETATM   34  C   UNL     1     -44.424  54.628 -59.807  1.00  0.00     0.028 C 
HETATM   35  H   UNL     1     -46.981  58.870 -59.268  1.00  0.00     0.164 HD
HETATM   36  O   UNL     1     -45.998  59.593 -56.958  1.00  0.00    -0.271 OA
HETATM   37  C   UNL     1     -43.738  57.874 -55.037  1.00  0.00     0.238 C 
ENDBRANCH   1  20
TORSDOF 4
ENDMDL
MODEL 9
REMARK VINA RESULT:      -8.6      3.554      8.666
REMARK  4 active torsions:
REMARK  status: ('A' for Active; 'I' for Inactive)
REMARK    1  A    between atoms: N_5  and  C_6 
REMARK    2  A    between atoms: C_6  and  C_7 
REMARK    3  A    between atoms: C_7  and  C_8 
REMARK    4  A    between atoms: C_8  and  N_9 
ROOT
HETATM    1  C   UNL     1     -42.004  59.777 -57.079  1.00  0.00     0.236 C 
ENDROOT
BRANCH   1   2
HETATM    2  C   UNL     1     -42.503  60.119 -55.676  1.00  0.00     0.048 C 
BRANCH   2   3
HETATM    3  C   UNL     1     -41.565  59.480 -54.636  1.00  0.00     0.131 C 
BRANCH   3   4
HETATM    4  N   UNL     1     -42.312  58.659 -53.666  1.00  0.00    -0.346 N 
HETATM    5  C   UNL     1     -42.877  59.315 -52.542  1.00  0.00     0.041 A 
HETATM    6  C   UNL     1     -44.100  58.949 -51.938  1.00  0.00    -0.031 A 
HETATM    7  C   UNL     1     -42.152  60.356 -51.913  1.00  0.00     0.030 A 
HETATM    8  C   UNL     1     -44.554  59.646 -50.790  1.00  0.00     0.009 A 
HETATM    9  C   UNL     1     -45.003  57.816 -52.377  1.00  0.00     0.045 C 
HETATM   10  C   UNL     1     -43.833  60.694 -50.231  1.00  0.00     0.001 A 
HETATM   11  C   UNL     1     -42.621  61.047 -50.790  1.00  0.00     0.002 A 
HETATM   12  C   UNL     1     -44.943  57.428 -53.845  1.00  0.00     0.045 C 
HETATM   13  C   UNL     1     -43.682  56.665 -54.140  1.00  0.00    -0.031 A 
HETATM   14  C   UNL     1     -42.433  57.295 -54.023  1.00  0.00     0.042 A 
HETATM   15  C   UNL     1     -43.764  55.312 -54.520  1.00  0.00     0.011 A 
HETATM   16  C   UNL     1     -41.283  56.531 -54.290  1.00  0.00     0.054 A 
HETATM   17  C   UNL     1     -41.374  55.199 -54.694  1.00  0.00     0.036 A 
HETATM   18 CL   UNL     1     -39.944  54.337 -55.105  1.00  0.00    -0.084 Cl
HETATM   19  C   UNL     1     -42.612  54.582 -54.804  1.00  0.00     0.024 A 
ENDBRANCH   3   4
ENDBRANCH   2   3
ENDBRANCH   1   2
BRANCH   1  20
HETATM   20  N   UNL     1     -43.097  59.261 -58.040  1.00  0.00    -0.071 N 
HETATM   21  H   UNL     1     -43.235  60.077 -58.656  1.00  0.00     0.279 HD
HETATM   22  C   UNL     1     -44.441  58.948 -57.432  1.00  0.00     0.238 C 
HETATM   23  C   UNL     1     -45.138  57.722 -58.013  1.00  0.00     0.077 C 
HETATM   24  C   UNL     1     -44.838  57.362 -59.474  1.00  0.00     0.212 C 
HETATM   25  N   UNL     1     -45.965  57.721 -60.445  1.00  0.00    -0.032 N 
HETATM   26  C   UNL     1     -44.860  55.823 -59.582  1.00  0.00     0.256 C 
HETATM   27  C   UNL     1     -43.509  57.884 -60.019  1.00  0.00     0.077 C 
HETATM   28  H   UNL     1     -45.553  57.622 -61.386  1.00  0.00     0.283 HD
HETATM   29  C   UNL     1     -46.913  56.559 -60.404  1.00  0.00     0.290 C 
HETATM   30  C   UNL     1     -46.657  59.041 -60.422  1.00  0.00     0.239 C 
HETATM   31  C   UNL     1     -47.767  56.584 -61.659  1.00  0.00     0.055 C 
HETATM   32  N   UNL     1     -46.007  55.478 -60.275  1.00  0.00    -0.331 N 
HETATM   33  C   UNL     1     -48.492  57.930 -61.785  1.00  0.00     0.005 C 
HETATM   34  C   UNL     1     -47.540  59.125 -61.665  1.00  0.00     0.028 C 
HETATM   35  H   UNL     1     -46.291  54.499 -60.297  1.00  0.00     0.164 HD
HETATM   36  O   UNL     1     -44.021  55.067 -59.135  1.00  0.00    -0.271 OA
HETATM   37  C   UNL     1     -42.529  58.144 -58.892  1.00  0.00     0.238 C 
ENDBRANCH   1  20
TORSDOF 4
ENDMDL
MODEL 10
REMARK VINA RESULT:      -8.5      1.950      3.856
REMARK  4 active torsions:
REMARK  status: ('A' for Active; 'I' for Inactive)
REMARK    1  A    between atoms: N_5  and  C_6 
REMARK    2  A    between atoms: C_6  and  C_7 
REMARK    3  A    between atoms: C_7  and  C_8 
REMARK    4  A    between atoms: C_8  and  N_9 
ROOT
HETATM    1  C   UNL     1     -44.032  57.913 -54.042  1.00  0.00     0.236 C 
ENDROOT
BRANCH   1   2
HETATM    2  C   UNL     1     -43.721  58.680 -55.326  1.00  0.00     0.048 C 
BRANCH   2   3
HETATM    3  C   UNL     1     -44.920  58.567 -56.286  1.00  0.00     0.131 C 
BRANCH   3   4
HETATM    4  N   UNL     1     -44.583  59.065 -57.632  1.00  0.00    -0.346 N 
HETATM    5  C   UNL     1     -44.927  60.405 -57.947  1.00  0.00     0.041 A 
HETATM    6  C   UNL     1     -44.161  61.249 -58.780  1.00  0.00    -0.031 A 
HETATM    7  C   UNL     1     -46.153  60.933 -57.474  1.00  0.00     0.030 A 
HETATM    8  C   UNL     1     -44.618  62.561 -59.063  1.00  0.00     0.009 A 
HETATM    9  C   UNL     1     -42.865  60.878 -59.468  1.00  0.00     0.045 C 
HETATM   10  C   UNL     1     -45.806  63.056 -58.541  1.00  0.00     0.001 A 
HETATM   11  C   UNL     1     -46.583  62.235 -57.748  1.00  0.00     0.002 A 
HETATM   12  C   UNL     1     -42.022  59.804 -58.800  1.00  0.00     0.045 C 
HETATM   13  C   UNL     1     -42.633  58.446 -59.008  1.00  0.00    -0.031 A 
HETATM   14  C   UNL     1     -43.879  58.140 -58.440  1.00  0.00     0.042 A 
HETATM   15  C   UNL     1     -41.952  57.492 -59.787  1.00  0.00     0.011 A 
HETATM   16  C   UNL     1     -44.417  56.862 -58.681  1.00  0.00     0.054 A 
HETATM   17  C   UNL     1     -43.722  55.913 -59.431  1.00  0.00     0.036 A 
HETATM   18 CL   UNL     1     -44.375  54.333 -59.613  1.00  0.00    -0.084 Cl
HETATM   19  C   UNL     1     -42.492  56.224 -59.992  1.00  0.00     0.024 A 
ENDBRANCH   3   4
ENDBRANCH   2   3
ENDBRANCH   1   2
BRANCH   1  20
HETATM   20  N   UNL     1     -43.088  56.725 -53.759  1.00  0.00    -0.071 N 
HETATM   21  H   UNL     1     -42.765  56.485 -54.709  1.00  0.00     0.279 HD
HETATM   22  C   UNL     1     -43.720  55.478 -53.191  1.00  0.00     0.238 C 
HETATM   23  C   UNL     1     -42.878  54.752 -52.146  1.00  0.00     0.077 C 
HETATM   24  C   UNL     1     -41.352  54.877 -52.253  1.00  0.00     0.212 C 
HETATM   25  N   UNL     1     -40.666  53.626 -52.805  1.00  0.00    -0.032 N 
HETATM   26  C   UNL     1     -40.791  54.889 -50.816  1.00  0.00     0.256 C 
HETATM   27  C   UNL     1     -40.846  56.110 -53.000  1.00  0.00     0.077 C 
HETATM   28  H   UNL     1     -39.699  53.920 -53.015  1.00  0.00     0.283 HD
HETATM   29  C   UNL     1     -40.461  52.728 -51.622  1.00  0.00     0.290 C 
HETATM   30  C   UNL     1     -41.161  52.902 -54.010  1.00  0.00     0.239 C 
HETATM   31  C   UNL     1     -39.374  51.722 -51.957  1.00  0.00     0.055 C 
HETATM   32  N   UNL     1     -40.158  53.675 -50.614  1.00  0.00    -0.331 N 
HETATM   33  C   UNL     1     -39.740  50.945 -53.229  1.00  0.00     0.005 C 
HETATM   34  C   UNL     1     -40.107  51.868 -54.397  1.00  0.00     0.028 C 
HETATM   35  H   UNL     1     -39.875  53.422 -49.668  1.00  0.00     0.164 HD
HETATM   36  O   UNL     1     -40.895  55.801 -50.020  1.00  0.00    -0.271 OA
HETATM   37  C   UNL     1     -41.883  57.216 -52.983  1.00  0.00     0.238 C 
ENDBRANCH   1  20
TORSDOF 4
ENDMDL
