MODEL 1
REMARK VINA RESULT:      -8.9      0.000      0.000
REMARK  5 active torsions:
REMARK  status: ('A' for Active; 'I' for Inactive)
REMARK    1  A    between atoms: C_4  and  C_5 
REMARK       I    between atoms: C_5  and  N_6 
REMARK    2  A    between atoms: N_6  and  C_7 
REMARK    3  A    between atoms: C_7  and  C_8 
REMARK       I    between atoms: C_8  and  N_9 
REMARK    4  A    between atoms: N_9  and  C_10 
REMARK    5  A    between atoms: C_13  and  C_14 
ROOT
HETATM    1  C   UNL     1     -42.778  56.839 -56.957  1.00  0.00     0.241 C 
HETATM    2  N   UNL     1     -43.322  57.305 -58.130  1.00  0.00    -0.304 N 
HETATM    3  O   UNL     1     -42.086  57.474 -56.167  1.00  0.00    -0.271 OA
HETATM    4  H   UNL     1     -43.750  56.649 -58.775  1.00  0.00     0.171 HD
ENDROOT
BRANCH   2   5
HETATM    5  C   UNL     1     -43.188  58.589 -58.567  1.00  0.00     0.173 A 
HETATM    6  S   UNL     1     -44.363  59.655 -57.936  1.00  0.00    -0.061 SA
HETATM    7  C   UNL     1     -43.674  60.927 -58.860  1.00  0.00     0.086 A 
HETATM    8  C   UNL     1     -42.598  60.449 -59.583  1.00  0.00     0.078 A 
HETATM    9  N   UNL     1     -42.315  59.106 -59.389  1.00  0.00    -0.223 NA
BRANCH   8  10
HETATM   10  C   UNL     1     -41.796  61.176 -60.573  1.00  0.00     0.021 A 
HETATM   11  C   UNL     1     -40.746  62.117 -60.335  1.00  0.00     0.004 A 
HETATM   12  C   UNL     1     -40.339  62.588 -61.590  1.00  0.00     0.043 A 
HETATM   13  C   UNL     1     -40.080  62.627 -59.197  1.00  0.00     0.014 A 
HETATM   14  C   UNL     1     -39.336  63.552 -61.757  1.00  0.00     0.030 A 
HETATM   15  N   UNL     1     -41.088  61.930 -62.538  1.00  0.00    -0.364 N 
HETATM   16  C   UNL     1     -38.712  64.047 -60.610  1.00  0.00     0.002 A 
HETATM   17  C   UNL     1     -39.072  63.588 -59.348  1.00  0.00     0.001 A 
HETATM   18  H   UNL     1     -41.001  62.066 -63.536  1.00  0.00     0.165 HD
HETATM   19  C   UNL     1     -41.960  61.069 -61.938  1.00  0.00     0.103 A 
ENDBRANCH   8  10
ENDBRANCH   2   5
BRANCH   1  20
HETATM   20  C   UNL     1     -42.970  55.325 -56.758  1.00  0.00     0.226 C 
BRANCH  20  21
HETATM   21  N   UNL     1     -42.040  54.657 -55.851  1.00  0.00    -0.348 N 
HETATM   22  C   UNL     1     -42.410  54.260 -54.588  1.00  0.00     0.252 C 
HETATM   23  O   UNL     1     -43.452  54.649 -54.069  1.00  0.00    -0.268 OA
HETATM   24  H   UNL     1     -41.107  54.462 -56.191  1.00  0.00     0.163 HD
BRANCH  22  25
HETATM   25  C   UNL     1     -41.452  53.419 -53.829  1.00  0.00     0.033 A 
HETATM   26  C   UNL     1     -41.106  53.824 -52.534  1.00  0.00     0.023 A 
HETATM   27  C   UNL     1     -40.219  53.061 -51.767  1.00  0.00    -0.061 A 
HETATM   28  C   UNL     1     -39.814  53.508 -50.393  1.00  0.00     0.048 C 
HETATM   29  C   UNL     1     -39.686  51.886 -52.312  1.00  0.00     0.013 A 
HETATM   30  C   UNL     1     -40.049  51.454 -53.597  1.00  0.00    -0.061 A 
HETATM   31  C   UNL     1     -40.930  52.233 -54.358  1.00  0.00     0.023 A 
HETATM   32  C   UNL     1     -39.471  50.183 -54.146  1.00  0.00     0.048 C 
ENDBRANCH  22  25
ENDBRANCH  20  21
ENDBRANCH   1  20
TORSDOF 5
ENDMDL
MODEL 2
REMARK VINA RESULT:      -8.8      3.822      9.917
REMARK  5 active torsions:
REMARK  status: ('A' for Active; 'I' for Inactive)
REMARK    1  A    between atoms: C_4  and  C_5 
REMARK       I    between atoms: C_5  and  N_6 
REMARK    2  A    between atoms: N_6  and  C_7 
REMARK    3  A    between atoms: C_7  and  C_8 
REMARK       I    between atoms: C_8  and  N_9 
REMARK    4  A    between atoms: N_9  and  C_10 
REMARK    5  A    between atoms: C_13  and  C_14 
ROOT
HETATM    1  C   UNL     1     -41.817  59.097 -54.770  1.00  0.00     0.241 C 
HETATM    2  N   UNL     1     -42.583  57.966 -54.618  1.00  0.00    -0.304 N 
HETATM    3  O   UNL     1     -40.981  59.529 -53.980  1.00  0.00    -0.271 OA
HETATM    4  H   UNL     1     -43.345  57.792 -55.264  1.00  0.00     0.171 HD
ENDROOT
BRANCH   2   5
HETATM    5  C   UNL     1     -42.487  57.128 -53.547  1.00  0.00     0.173 A 
HETATM    6  S   UNL     1     -43.473  57.585 -52.229  1.00  0.00    -0.061 SA
HETATM    7  C   UNL     1     -42.858  56.253 -51.337  1.00  0.00     0.086 A 
HETATM    8  C   UNL     1     -41.947  55.556 -52.106  1.00  0.00     0.078 A 
HETATM    9  N   UNL     1     -41.758  56.058 -53.385  1.00  0.00    -0.223 NA
BRANCH   8  10
HETATM   10  C   UNL     1     -41.117  54.419 -51.694  1.00  0.00     0.021 A 
HETATM   11  C   UNL     1     -40.704  53.299 -52.481  1.00  0.00     0.004 A 
HETATM   12  C   UNL     1     -39.988  52.452 -51.627  1.00  0.00     0.043 A 
HETATM   13  C   UNL     1     -40.846  52.900 -53.830  1.00  0.00     0.014 A 
HETATM   14  C   UNL     1     -39.444  51.229 -52.041  1.00  0.00     0.030 A 
HETATM   15  N   UNL     1     -39.943  53.056 -50.391  1.00  0.00    -0.364 N 
HETATM   16  C   UNL     1     -39.619  50.857 -53.376  1.00  0.00     0.002 A 
HETATM   17  C   UNL     1     -40.304  51.683 -54.261  1.00  0.00     0.001 A 
HETATM   18  H   UNL     1     -39.481  52.670 -49.579  1.00  0.00     0.165 HD
HETATM   19  C   UNL     1     -40.609  54.246 -50.423  1.00  0.00     0.103 A 
ENDBRANCH   8  10
ENDBRANCH   2   5
BRANCH   1  20
HETATM   20  C   UNL     1     -42.207  59.934 -56.002  1.00  0.00     0.226 C 
BRANCH  20  21
HETATM   21  N   UNL     1     -43.183  59.347 -56.915  1.00  0.00    -0.348 N 
HETATM   22  C   UNL     1     -42.805  58.586 -57.996  1.00  0.00     0.252 C 
HETATM   23  O   UNL     1     -41.642  58.553 -58.388  1.00  0.00    -0.268 OA
HETATM   24  H   UNL     1     -44.164  59.491 -56.715  1.00  0.00     0.163 HD
BRANCH  22  25
HETATM   25  C   UNL     1     -43.875  57.877 -58.740  1.00  0.00     0.033 A 
HETATM   26  C   UNL     1     -43.753  56.492 -58.908  1.00  0.00     0.023 A 
HETATM   27  C   UNL     1     -44.741  55.772 -59.588  1.00  0.00    -0.061 A 
HETATM   28  C   UNL     1     -44.599  54.294 -59.804  1.00  0.00     0.048 C 
HETATM   29  C   UNL     1     -45.853  56.456 -60.096  1.00  0.00     0.013 A 
HETATM   30  C   UNL     1     -46.001  57.838 -59.908  1.00  0.00    -0.061 A 
HETATM   31  C   UNL     1     -45.000  58.550 -59.233  1.00  0.00     0.023 A 
HETATM   32  C   UNL     1     -47.212  58.538 -60.451  1.00  0.00     0.048 C 
ENDBRANCH  22  25
ENDBRANCH  20  21
ENDBRANCH   1  20
TORSDOF 5
ENDMDL
MODEL 3
REMARK VINA RESULT:      -8.6      6.783     11.278
REMARK  5 active torsions:
REMARK  status: ('A' for Active; 'I' for Inactive)
REMARK    1  A    between atoms: C_4  and  C_5 
REMARK       I    between atoms: C_5  and  N_6 
REMARK    2  A    between atoms: N_6  and  C_7 
REMARK    3  A    between atoms: C_7  and  C_8 
REMARK       I    between atoms: C_8  and  N_9 
REMARK    4  A    between atoms: N_9  and  C_10 
REMARK    5  A    between atoms: C_13  and  C_14 
ROOT
HETATM    1  C   UNL     1     -43.398  58.522 -51.944  1.00  0.00     0.241 C 
HETATM    2  N   UNL     1     -42.108  58.196 -52.285  1.00  0.00    -0.304 N 
HETATM    3  O   UNL     1     -44.375  57.778 -51.974  1.00  0.00    -0.271 OA
HETATM    4  H   UNL     1     -41.414  58.932 -52.364  1.00  0.00     0.171 HD
ENDROOT
BRANCH   2   5
HETATM    5  C   UNL     1     -41.724  56.951 -52.685  1.00  0.00     0.173 A 
HETATM    6  S   UNL     1     -42.009  56.645 -54.341  1.00  0.00    -0.061 SA
HETATM    7  C   UNL     1     -41.396  55.055 -54.129  1.00  0.00     0.086 A 
HETATM    8  C   UNL     1     -41.019  54.871 -52.814  1.00  0.00     0.078 A 
HETATM    9  N   UNL     1     -41.192  55.978 -51.996  1.00  0.00    -0.223 NA
BRANCH   8  10
HETATM   10  C   UNL     1     -40.543  53.632 -52.188  1.00  0.00     0.021 A 
HETATM   11  C   UNL     1     -40.260  52.380 -52.818  1.00  0.00     0.004 A 
HETATM   12  C   UNL     1     -39.904  51.490 -51.797  1.00  0.00     0.043 A 
HETATM   13  C   UNL     1     -40.256  51.891 -54.144  1.00  0.00     0.014 A 
HETATM   14  C   UNL     1     -39.581  50.147 -52.031  1.00  0.00     0.030 A 
HETATM   15  N   UNL     1     -39.938  52.189 -50.612  1.00  0.00    -0.364 N 
HETATM   16  C   UNL     1     -39.605  49.692 -53.351  1.00  0.00     0.002 A 
HETATM   17  C   UNL     1     -39.931  50.551 -54.395  1.00  0.00     0.001 A 
HETATM   18  H   UNL     1     -39.716  51.798 -49.707  1.00  0.00     0.165 HD
HETATM   19  C   UNL     1     -40.309  53.483 -50.837  1.00  0.00     0.103 A 
ENDBRANCH   8  10
ENDBRANCH   2   5
BRANCH   1  20
HETATM   20  C   UNL     1     -43.590  60.021 -51.649  1.00  0.00     0.226 C 
BRANCH  20  21
HETATM   21  N   UNL     1     -43.874  60.389 -50.265  1.00  0.00    -0.348 N 
HETATM   22  C   UNL     1     -44.687  61.450 -49.944  1.00  0.00     0.252 C 
HETATM   23  O   UNL     1     -45.023  62.282 -50.782  1.00  0.00    -0.268 OA
HETATM   24  H   UNL     1     -43.475  59.816 -49.532  1.00  0.00     0.163 HD
BRANCH  22  25
HETATM   25  C   UNL     1     -45.065  61.614 -48.519  1.00  0.00     0.033 A 
HETATM   26  C   UNL     1     -45.611  60.510 -47.852  1.00  0.00     0.023 A 
HETATM   27  C   UNL     1     -45.971  60.604 -46.504  1.00  0.00    -0.061 A 
HETATM   28  C   UNL     1     -46.591  59.437 -45.794  1.00  0.00     0.048 C 
HETATM   29  C   UNL     1     -45.776  61.817 -45.831  1.00  0.00     0.013 A 
HETATM   30  C   UNL     1     -45.203  62.921 -46.480  1.00  0.00    -0.061 A 
HETATM   31  C   UNL     1     -44.855  62.817 -47.833  1.00  0.00     0.023 A 
HETATM   32  C   UNL     1     -44.993  64.202 -45.726  1.00  0.00     0.048 C 
ENDBRANCH  22  25
ENDBRANCH  20  21
ENDBRANCH   1  20
TORSDOF 5
ENDMDL
MODEL 4
REMARK VINA RESULT:      -8.6      1.519      2.412
REMARK  5 active torsions:
REMARK  status: ('A' for Active; 'I' for Inactive)
REMARK    1  A    between atoms: C_4  and  C_5 
REMARK       I    between atoms: C_5  and  N_6 
REMARK    2  A    between atoms: N_6  and  C_7 
REMARK    3  A    between atoms: C_7  and  C_8 
REMARK       I    between atoms: C_8  and  N_9 
REMARK    4  A    between atoms: N_9  and  C_10 
REMARK    5  A    between atoms: C_13  and  C_14 
ROOT
HETATM    1  C   UNL     1     -43.323  57.056 -55.650  1.00  0.00     0.241 C 
HETATM    2  N   UNL     1     -43.987  56.849 -56.836  1.00  0.00    -0.304 N 
HETATM    3  O   UNL     1     -42.260  57.653 -55.499  1.00  0.00    -0.271 OA
HETATM    4  H   UNL     1     -44.778  56.214 -56.857  1.00  0.00     0.171 HD
ENDROOT
BRANCH   2   5
HETATM    5  C   UNL     1     -43.553  57.324 -58.037  1.00  0.00     0.173 A 
HETATM    6  S   UNL     1     -42.982  56.106 -59.090  1.00  0.00    -0.061 SA
HETATM    7  C   UNL     1     -42.599  57.317 -60.246  1.00  0.00     0.086 A 
HETATM    8  C   UNL     1     -42.933  58.561 -59.748  1.00  0.00     0.078 A 
HETATM    9  N   UNL     1     -43.501  58.550 -58.483  1.00  0.00    -0.223 NA
BRANCH   8  10
HETATM   10  C   UNL     1     -42.679  59.866 -60.367  1.00  0.00     0.021 A 
HETATM   11  C   UNL     1     -41.875  60.937 -59.864  1.00  0.00     0.004 A 
HETATM   12  C   UNL     1     -42.002  61.993 -60.775  1.00  0.00     0.043 A 
HETATM   13  C   UNL     1     -41.044  61.139 -58.740  1.00  0.00     0.014 A 
HETATM   14  C   UNL     1     -41.371  63.233 -60.602  1.00  0.00     0.030 A 
HETATM   15  N   UNL     1     -42.816  61.560 -61.797  1.00  0.00    -0.364 N 
HETATM   16  C   UNL     1     -40.571  63.404 -59.471  1.00  0.00     0.002 A 
HETATM   17  C   UNL     1     -40.403  62.371 -58.554  1.00  0.00     0.001 A 
HETATM   18  H   UNL     1     -43.074  62.115 -62.601  1.00  0.00     0.165 HD
HETATM   19  C   UNL     1     -43.219  60.277 -61.568  1.00  0.00     0.103 A 
ENDBRANCH   8  10
ENDBRANCH   2   5
BRANCH   1  20
HETATM   20  C   UNL     1     -43.955  56.310 -54.461  1.00  0.00     0.226 C 
BRANCH  20  21
HETATM   21  N   UNL     1     -43.120  55.322 -53.785  1.00  0.00    -0.348 N 
HETATM   22  C   UNL     1     -42.597  54.234 -54.444  1.00  0.00     0.252 C 
HETATM   23  O   UNL     1     -42.989  53.906 -55.560  1.00  0.00    -0.268 OA
HETATM   24  H   UNL     1     -42.906  55.473 -52.807  1.00  0.00     0.163 HD
BRANCH  22  25
HETATM   25  C   UNL     1     -41.607  53.404 -53.715  1.00  0.00     0.033 A 
HETATM   26  C   UNL     1     -41.089  52.276 -54.364  1.00  0.00     0.023 A 
HETATM   27  C   UNL     1     -40.141  51.468 -53.729  1.00  0.00    -0.061 A 
HETATM   28  C   UNL     1     -39.611  50.236 -54.403  1.00  0.00     0.048 C 
HETATM   29  C   UNL     1     -39.717  51.803 -52.437  1.00  0.00     0.013 A 
HETATM   30  C   UNL     1     -40.205  52.947 -51.788  1.00  0.00    -0.061 A 
HETATM   31  C   UNL     1     -41.162  53.744 -52.431  1.00  0.00     0.023 A 
HETATM   32  C   UNL     1     -39.718  53.287 -50.410  1.00  0.00     0.048 C 
ENDBRANCH  22  25
ENDBRANCH  20  21
ENDBRANCH   1  20
TORSDOF 5
ENDMDL
MODEL 5
REMARK VINA RESULT:      -8.6      6.717      8.783
REMARK  5 active torsions:
REMARK  status: ('A' for Active; 'I' for Inactive)
REMARK    1  A    between atoms: C_4  and  C_5 
REMARK       I    between atoms: C_5  and  N_6 
REMARK    2  A    between atoms: N_6  and  C_7 
REMARK    3  A    between atoms: C_7  and  C_8 
REMARK       I    between atoms: C_8  and  N_9 
REMARK    4  A    between atoms: N_9  and  C_10 
REMARK    5  A    between atoms: C_13  and  C_14 
ROOT
HETATM    1  C   UNL     1     -44.102  57.522 -53.712  1.00  0.00     0.241 C 
HETATM    2  N   UNL     1     -44.062  57.586 -52.340  1.00  0.00    -0.304 N 
HETATM    3  O   UNL     1     -44.111  58.472 -54.491  1.00  0.00    -0.271 OA
HETATM    4  H   UNL     1     -44.210  56.740 -51.799  1.00  0.00     0.171 HD
ENDROOT
BRANCH   2   5
HETATM    5  C   UNL     1     -43.992  58.753 -51.640  1.00  0.00     0.173 A 
HETATM    6  S   UNL     1     -42.396  59.305 -51.385  1.00  0.00    -0.061 SA
HETATM    7  C   UNL     1     -43.022  60.634 -50.497  1.00  0.00     0.086 A 
HETATM    8  C   UNL     1     -44.400  60.564 -50.459  1.00  0.00     0.078 A 
HETATM    9  N   UNL     1     -44.949  59.487 -51.139  1.00  0.00    -0.223 NA
BRANCH   8  10
HETATM   10  C   UNL     1     -45.318  61.439 -49.722  1.00  0.00     0.021 A 
HETATM   11  C   UNL     1     -45.423  61.612 -48.306  1.00  0.00     0.004 A 
HETATM   12  C   UNL     1     -46.487  62.497 -48.090  1.00  0.00     0.043 A 
HETATM   13  C   UNL     1     -44.735  61.126 -47.172  1.00  0.00     0.014 A 
HETATM   14  C   UNL     1     -46.909  62.888 -46.812  1.00  0.00     0.030 A 
HETATM   15  N   UNL     1     -46.973  62.866 -49.323  1.00  0.00    -0.364 N 
HETATM   16  C   UNL     1     -46.218  62.374 -45.713  1.00  0.00     0.002 A 
HETATM   17  C   UNL     1     -45.142  61.511 -45.887  1.00  0.00     0.001 A 
HETATM   18  H   UNL     1     -47.740  63.506 -49.471  1.00  0.00     0.165 HD
HETATM   19  C   UNL     1     -46.269  62.245 -50.313  1.00  0.00     0.103 A 
ENDBRANCH   8  10
ENDBRANCH   2   5
BRANCH   1  20
HETATM   20  C   UNL     1     -44.305  56.094 -54.249  1.00  0.00     0.226 C 
BRANCH  20  21
HETATM   21  N   UNL     1     -43.438  55.054 -53.702  1.00  0.00    -0.348 N 
HETATM   22  C   UNL     1     -42.447  54.463 -54.448  1.00  0.00     0.252 C 
HETATM   23  O   UNL     1     -42.388  54.598 -55.667  1.00  0.00    -0.268 OA
HETATM   24  H   UNL     1     -43.566  54.794 -52.732  1.00  0.00     0.163 HD
BRANCH  22  25
HETATM   25  C   UNL     1     -41.501  53.565 -53.740  1.00  0.00     0.033 A 
HETATM   26  C   UNL     1     -41.148  53.890 -52.424  1.00  0.00     0.023 A 
HETATM   27  C   UNL     1     -40.273  53.070 -51.704  1.00  0.00    -0.061 A 
HETATM   28  C   UNL     1     -39.859  53.432 -50.307  1.00  0.00     0.048 C 
HETATM   29  C   UNL     1     -39.757  51.921 -52.317  1.00  0.00     0.013 A 
HETATM   30  C   UNL     1     -40.127  51.569 -53.623  1.00  0.00    -0.061 A 
HETATM   31  C   UNL     1     -40.998  52.403 -54.337  1.00  0.00     0.023 A 
HETATM   32  C   UNL     1     -39.570  50.323 -54.245  1.00  0.00     0.048 C 
ENDBRANCH  22  25
ENDBRANCH  20  21
ENDBRANCH   1  20
TORSDOF 5
ENDMDL
MODEL 6
REMARK VINA RESULT:      -8.5      3.721     10.043
REMARK  5 active torsions:
REMARK  status: ('A' for Active; 'I' for Inactive)
REMARK    1  A    between atoms: C_4  and  C_5 
REMARK       I    between atoms: C_5  and  N_6 
REMARK    2  A    between atoms: N_6  and  C_7 
REMARK    3  A    between atoms: C_7  and  C_8 
REMARK       I    between atoms: C_8  and  N_9 
REMARK    4  A    between atoms: N_9  and  C_10 
REMARK    5  A    between atoms: C_13  and  C_14 
ROOT
HETATM    1  C   UNL     1     -43.494  57.776 -52.712  1.00  0.00     0.241 C 
HETATM    2  N   UNL     1     -42.158  57.456 -52.668  1.00  0.00    -0.304 N 
HETATM    3  O   UNL     1     -44.403  57.216 -52.104  1.00  0.00    -0.271 OA
HETATM    4  H   UNL     1     -41.522  57.892 -53.327  1.00  0.00     0.171 HD
ENDROOT
BRANCH   2   5
HETATM    5  C   UNL     1     -41.646  56.460 -51.892  1.00  0.00     0.173 A 
HETATM    6  S   UNL     1     -41.159  56.983 -50.340  1.00  0.00    -0.061 SA
HETATM    7  C   UNL     1     -40.630  55.386 -49.994  1.00  0.00     0.086 A 
HETATM    8  C   UNL     1     -40.862  54.570 -51.083  1.00  0.00     0.078 A 
HETATM    9  N   UNL     1     -41.467  55.196 -52.163  1.00  0.00    -0.223 NA
BRANCH   8  10
HETATM   10  C   UNL     1     -40.470  53.166 -51.245  1.00  0.00     0.021 A 
HETATM   11  C   UNL     1     -40.246  52.449 -52.462  1.00  0.00     0.004 A 
HETATM   12  C   UNL     1     -39.960  51.127 -52.101  1.00  0.00     0.043 A 
HETATM   13  C   UNL     1     -40.244  52.766 -53.839  1.00  0.00     0.014 A 
HETATM   14  C   UNL     1     -39.710  50.115 -53.037  1.00  0.00     0.030 A 
HETATM   15  N   UNL     1     -39.977  51.064 -50.726  1.00  0.00    -0.364 N 
HETATM   16  C   UNL     1     -39.734  50.459 -54.390  1.00  0.00     0.002 A 
HETATM   17  C   UNL     1     -39.991  51.766 -54.788  1.00  0.00     0.001 A 
HETATM   18  H   UNL     1     -39.795  50.228 -50.186  1.00  0.00     0.165 HD
HETATM   19  C   UNL     1     -40.270  52.288 -50.200  1.00  0.00     0.103 A 
ENDBRANCH   8  10
ENDBRANCH   2   5
BRANCH   1  20
HETATM   20  C   UNL     1     -43.828  58.854 -53.760  1.00  0.00     0.226 C 
BRANCH  20  21
HETATM   21  N   UNL     1     -43.831  58.434 -55.158  1.00  0.00    -0.348 N 
HETATM   22  C   UNL     1     -42.706  58.508 -55.945  1.00  0.00     0.252 C 
HETATM   23  O   UNL     1     -41.715  59.142 -55.596  1.00  0.00    -0.268 OA
HETATM   24  H   UNL     1     -44.689  58.052 -55.535  1.00  0.00     0.163 HD
BRANCH  22  25
HETATM   25  C   UNL     1     -42.767  57.875 -57.285  1.00  0.00     0.033 A 
HETATM   26  C   UNL     1     -42.255  58.592 -58.374  1.00  0.00     0.023 A 
HETATM   27  C   UNL     1     -42.273  58.036 -59.658  1.00  0.00    -0.061 A 
HETATM   28  C   UNL     1     -41.761  58.813 -60.836  1.00  0.00     0.048 C 
HETATM   29  C   UNL     1     -42.807  56.754 -59.837  1.00  0.00     0.013 A 
HETATM   30  C   UNL     1     -43.295  56.015 -58.749  1.00  0.00    -0.061 A 
HETATM   31  C   UNL     1     -43.281  56.586 -57.470  1.00  0.00     0.023 A 
HETATM   32  C   UNL     1     -43.847  54.637 -58.973  1.00  0.00     0.048 C 
ENDBRANCH  22  25
ENDBRANCH  20  21
ENDBRANCH   1  20
TORSDOF 5
ENDMDL
MODEL 7
REMARK VINA RESULT:      -8.5      4.071      5.297
REMARK  5 active torsions:
REMARK  status: ('A' for Active; 'I' for Inactive)
REMARK    1  A    between atoms: C_4  and  C_5 
REMARK       I    between atoms: C_5  and  N_6 
REMARK    2  A    between atoms: N_6  and  C_7 
REMARK    3  A    between atoms: C_7  and  C_8 
REMARK       I    between atoms: C_8  and  N_9 
REMARK    4  A    between atoms: N_9  and  C_10 
REMARK    5  A    between atoms: C_13  and  C_14 
ROOT
HETATM    1  C   UNL     1     -42.470  57.102 -52.902  1.00  0.00     0.241 C 
HETATM    2  N   UNL     1     -41.937  57.319 -54.151  1.00  0.00    -0.304 N 
HETATM    3  O   UNL     1     -43.586  57.435 -52.513  1.00  0.00    -0.271 OA
HETATM    4  H   UNL     1     -40.953  57.133 -54.309  1.00  0.00     0.171 HD
ENDROOT
BRANCH   2   5
HETATM    5  C   UNL     1     -42.615  57.925 -55.166  1.00  0.00     0.173 A 
HETATM    6  S   UNL     1     -42.378  59.615 -55.235  1.00  0.00    -0.061 SA
HETATM    7  C   UNL     1     -43.455  59.688 -56.570  1.00  0.00     0.086 A 
HETATM    8  C   UNL     1     -43.918  58.422 -56.867  1.00  0.00     0.078 A 
HETATM    9  N   UNL     1     -43.410  57.411 -56.065  1.00  0.00    -0.223 NA
BRANCH   8  10
HETATM   10  C   UNL     1     -44.929  58.053 -57.864  1.00  0.00     0.021 A 
HETATM   11  C   UNL     1     -44.872  56.997 -58.827  1.00  0.00     0.004 A 
HETATM   12  C   UNL     1     -46.040  57.092 -59.594  1.00  0.00     0.043 A 
HETATM   13  C   UNL     1     -43.966  55.959 -59.140  1.00  0.00     0.014 A 
HETATM   14  C   UNL     1     -46.325  56.232 -60.663  1.00  0.00     0.030 A 
HETATM   15  N   UNL     1     -46.780  58.137 -59.089  1.00  0.00    -0.364 N 
HETATM   16  C   UNL     1     -45.400  55.229 -60.956  1.00  0.00     0.002 A 
HETATM   17  C   UNL     1     -44.239  55.088 -60.203  1.00  0.00     0.001 A 
HETATM   18  H   UNL     1     -47.679  58.429 -59.446  1.00  0.00     0.165 HD
HETATM   19  C   UNL     1     -46.127  58.714 -58.040  1.00  0.00     0.103 A 
ENDBRANCH   8  10
ENDBRANCH   2   5
BRANCH   1  20
HETATM   20  C   UNL     1     -41.458  56.514 -51.903  1.00  0.00     0.226 C 
BRANCH  20  21
HETATM   21  N   UNL     1     -41.280  55.065 -51.920  1.00  0.00    -0.348 N 
HETATM   22  C   UNL     1     -40.607  54.424 -52.933  1.00  0.00     0.252 C 
HETATM   23  O   UNL     1     -40.328  54.994 -53.984  1.00  0.00    -0.268 OA
HETATM   24  H   UNL     1     -41.646  54.535 -51.140  1.00  0.00     0.163 HD
BRANCH  22  25
HETATM   25  C   UNL     1     -40.316  52.981 -52.753  1.00  0.00     0.033 A 
HETATM   26  C   UNL     1     -40.342  52.462 -51.453  1.00  0.00     0.023 A 
HETATM   27  C   UNL     1     -40.090  51.105 -51.227  1.00  0.00    -0.061 A 
HETATM   28  C   UNL     1     -40.080  50.549 -49.832  1.00  0.00     0.048 C 
HETATM   29  C   UNL     1     -39.813  50.273 -52.319  1.00  0.00     0.013 A 
HETATM   30  C   UNL     1     -39.813  50.775 -53.629  1.00  0.00    -0.061 A 
HETATM   31  C   UNL     1     -40.058  52.138 -53.842  1.00  0.00     0.023 A 
HETATM   32  C   UNL     1     -39.528  49.854 -54.780  1.00  0.00     0.048 C 
ENDBRANCH  22  25
ENDBRANCH  20  21
ENDBRANCH   1  20
TORSDOF 5
ENDMDL
MODEL 8
REMARK VINA RESULT:      -8.4      4.087     10.780
REMARK  5 active torsions:
REMARK  status: ('A' for Active; 'I' for Inactive)
REMARK    1  A    between atoms: C_4  and  C_5 
REMARK       I    between atoms: C_5  and  N_6 
REMARK    2  A    between atoms: N_6  and  C_7 
REMARK    3  A    between atoms: C_7  and  C_8 
REMARK       I    between atoms: C_8  and  N_9 
REMARK    4  A    between atoms: N_9  and  C_10 
REMARK    5  A    between atoms: C_13  and  C_14 
ROOT
HETATM    1  C   UNL     1     -42.685  56.812 -51.015  1.00  0.00     0.241 C 
HETATM    2  N   UNL     1     -41.398  56.346 -50.889  1.00  0.00    -0.304 N 
HETATM    3  O   UNL     1     -43.717  56.188 -50.781  1.00  0.00    -0.271 OA
HETATM    4  H   UNL     1     -40.632  56.901 -51.254  1.00  0.00     0.171 HD
ENDROOT
BRANCH   2   5
HETATM    5  C   UNL     1     -41.088  55.098 -50.440  1.00  0.00     0.173 A 
HETATM    6  S   UNL     1     -40.898  55.007 -48.745  1.00  0.00    -0.061 SA
HETATM    7  C   UNL     1     -40.510  53.341 -48.901  1.00  0.00     0.086 A 
HETATM    8  C   UNL     1     -40.553  52.974 -50.232  1.00  0.00     0.078 A 
HETATM    9  N   UNL     1     -40.908  53.990 -51.107  1.00  0.00    -0.223 NA
BRANCH   8  10
HETATM   10  C   UNL     1     -40.190  51.676 -50.810  1.00  0.00     0.021 A 
HETATM   11  C   UNL     1     -39.976  51.355 -52.187  1.00  0.00     0.004 A 
HETATM   12  C   UNL     1     -39.721  49.979 -52.241  1.00  0.00     0.043 A 
HETATM   13  C   UNL     1     -39.960  52.072 -53.404  1.00  0.00     0.014 A 
HETATM   14  C   UNL     1     -39.487  49.291 -53.439  1.00  0.00     0.030 A 
HETATM   15  N   UNL     1     -39.746  49.504 -50.950  1.00  0.00    -0.364 N 
HETATM   16  C   UNL     1     -39.497  50.027 -54.626  1.00  0.00     0.002 A 
HETATM   17  C   UNL     1     -39.723  51.399 -54.611  1.00  0.00     0.001 A 
HETATM   18  H   UNL     1     -39.586  48.541 -50.688  1.00  0.00     0.165 HD
HETATM   19  C   UNL     1     -40.015  50.519 -50.079  1.00  0.00     0.103 A 
ENDBRANCH   8  10
ENDBRANCH   2   5
BRANCH   1  20
HETATM   20  C   UNL     1     -42.767  58.207 -51.661  1.00  0.00     0.226 C 
BRANCH  20  21
HETATM   21  N   UNL     1     -42.913  58.253 -53.114  1.00  0.00    -0.348 N 
HETATM   22  C   UNL     1     -41.961  58.822 -53.925  1.00  0.00     0.252 C 
HETATM   23  O   UNL     1     -41.063  59.526 -53.472  1.00  0.00    -0.268 OA
HETATM   24  H   UNL     1     -43.734  57.822 -53.519  1.00  0.00     0.163 HD
BRANCH  22  25
HETATM   25  C   UNL     1     -42.115  58.640 -55.390  1.00  0.00     0.033 A 
HETATM   26  C   UNL     1     -42.486  57.374 -55.859  1.00  0.00     0.023 A 
HETATM   27  C   UNL     1     -42.661  57.150 -57.229  1.00  0.00    -0.061 A 
HETATM   28  C   UNL     1     -43.022  55.787 -57.742  1.00  0.00     0.048 C 
HETATM   29  C   UNL     1     -42.460  58.210 -58.122  1.00  0.00     0.013 A 
HETATM   30  C   UNL     1     -42.117  59.490 -57.662  1.00  0.00    -0.061 A 
HETATM   31  C   UNL     1     -41.937  59.699 -56.288  1.00  0.00     0.023 A 
HETATM   32  C   UNL     1     -41.925  60.608 -58.644  1.00  0.00     0.048 C 
ENDBRANCH  22  25
ENDBRANCH  20  21
ENDBRANCH   1  20
TORSDOF 5
ENDMDL
MODEL 9
REMARK VINA RESULT:      -8.4      3.567      5.438
REMARK  5 active torsions:
REMARK  status: ('A' for Active; 'I' for Inactive)
REMARK    1  A    between atoms: C_4  and  C_5 
REMARK       I    between atoms: C_5  and  N_6 
REMARK    2  A    between atoms: N_6  and  C_7 
REMARK    3  A    between atoms: C_7  and  C_8 
REMARK       I    between atoms: C_8  and  N_9 
REMARK    4  A    between atoms: N_9  and  C_10 
REMARK    5  A    between atoms: C_13  and  C_14 
ROOT
HETATM    1  C   UNL     1     -42.711  57.277 -54.715  1.00  0.00     0.241 C 
HETATM    2  N   UNL     1     -42.135  57.135 -55.954  1.00  0.00    -0.304 N 
HETATM    3  O   UNL     1     -43.834  57.713 -54.474  1.00  0.00    -0.271 OA
HETATM    4  H   UNL     1     -41.149  56.906 -56.020  1.00  0.00     0.171 HD
ENDROOT
BRANCH   2   5
HETATM    5  C   UNL     1     -42.769  57.439 -57.121  1.00  0.00     0.173 A 
HETATM    6  S   UNL     1     -42.396  58.994 -57.720  1.00  0.00    -0.061 SA
HETATM    7  C   UNL     1     -43.475  58.725 -59.028  1.00  0.00     0.086 A 
HETATM    8  C   UNL     1     -44.043  57.471 -58.915  1.00  0.00     0.078 A 
HETATM    9  N   UNL     1     -43.612  56.731 -57.824  1.00  0.00    -0.223 NA
BRANCH   8  10
HETATM   10  C   UNL     1     -45.089  56.887 -59.761  1.00  0.00     0.021 A 
HETATM   11  C   UNL     1     -46.171  57.559 -60.412  1.00  0.00     0.004 A 
HETATM   12  C   UNL     1     -46.936  56.568 -61.041  1.00  0.00     0.043 A 
HETATM   13  C   UNL     1     -46.595  58.900 -60.552  1.00  0.00     0.014 A 
HETATM   14  C   UNL     1     -48.104  56.847 -61.763  1.00  0.00     0.030 A 
HETATM   15  N   UNL     1     -46.318  55.361 -60.806  1.00  0.00    -0.364 N 
HETATM   16  C   UNL     1     -48.503  58.181 -61.866  1.00  0.00     0.002 A 
HETATM   17  C   UNL     1     -47.758  59.195 -61.275  1.00  0.00     0.001 A 
HETATM   18  H   UNL     1     -46.649  54.470 -61.150  1.00  0.00     0.165 HD
HETATM   19  C   UNL     1     -45.199  55.542 -60.048  1.00  0.00     0.103 A 
ENDBRANCH   8  10
ENDBRANCH   2   5
BRANCH   1  20
HETATM   20  C   UNL     1     -41.741  56.984 -53.556  1.00  0.00     0.226 C 
BRANCH  20  21
HETATM   21  N   UNL     1     -41.555  55.582 -53.191  1.00  0.00    -0.348 N 
HETATM   22  C   UNL     1     -40.646  54.776 -53.832  1.00  0.00     0.252 C 
HETATM   23  O   UNL     1     -40.116  55.111 -54.887  1.00  0.00    -0.268 OA
HETATM   24  H   UNL     1     -42.101  55.219 -52.420  1.00  0.00     0.163 HD
BRANCH  22  25
HETATM   25  C   UNL     1     -40.399  53.431 -53.254  1.00  0.00     0.033 A 
HETATM   26  C   UNL     1     -40.047  52.395 -54.128  1.00  0.00     0.023 A 
HETATM   27  C   UNL     1     -39.787  51.112 -53.636  1.00  0.00    -0.061 A 
HETATM   28  C   UNL     1     -39.446  49.988 -54.570  1.00  0.00     0.048 C 
HETATM   29  C   UNL     1     -39.884  50.879 -52.258  1.00  0.00     0.013 A 
HETATM   30  C   UNL     1     -40.206  51.916 -51.370  1.00  0.00    -0.061 A 
HETATM   31  C   UNL     1     -40.473  53.195 -51.876  1.00  0.00     0.023 A 
HETATM   32  C   UNL     1     -40.286  51.637 -49.897  1.00  0.00     0.048 C 
ENDBRANCH  22  25
ENDBRANCH  20  21
ENDBRANCH   1  20
TORSDOF 5
ENDMDL
MODEL 10
REMARK VINA RESULT:      -8.4     16.786     21.663
REMARK  5 active torsions:
REMARK  status: ('A' for Active; 'I' for Inactive)
REMARK    1  A    between atoms: C_4  and  C_5 
REMARK       I    between atoms: C_5  and  N_6 
REMARK    2  A    between atoms: N_6  and  C_7 
REMARK    3  A    between atoms: C_7  and  C_8 
REMARK       I    between atoms: C_8  and  N_9 
REMARK    4  A    between atoms: N_9  and  C_10 
REMARK    5  A    between atoms: C_13  and  C_14 
ROOT
HETATM    1  C   UNL     1     -35.548  41.300 -52.486  1.00  0.00     0.241 C 
HETATM    2  N   UNL     1     -34.407  41.763 -51.875  1.00  0.00    -0.304 N 
HETATM    3  O   UNL     1     -35.909  40.129 -52.573  1.00  0.00    -0.271 OA
HETATM    4  H   UNL     1     -34.138  42.733 -51.996  1.00  0.00     0.171 HD
ENDROOT
BRANCH   2   5
HETATM    5  C   UNL     1     -33.513  40.957 -51.236  1.00  0.00     0.173 A 
HETATM    6  S   UNL     1     -32.264  40.380 -52.248  1.00  0.00    -0.061 SA
HETATM    7  C   UNL     1     -31.628  39.495 -50.921  1.00  0.00     0.086 A 
HETATM    8  C   UNL     1     -32.412  39.702 -49.803  1.00  0.00     0.078 A 
HETATM    9  N   UNL     1     -33.482  40.563 -49.991  1.00  0.00    -0.223 NA
BRANCH   8  10
HETATM   10  C   UNL     1     -32.282  39.057 -48.492  1.00  0.00     0.021 A 
HETATM   11  C   UNL     1     -31.450  39.449 -47.396  1.00  0.00     0.004 A 
HETATM   12  C   UNL     1     -31.623  38.483 -46.398  1.00  0.00     0.043 A 
HETATM   13  C   UNL     1     -30.569  40.519 -47.126  1.00  0.00     0.014 A 
HETATM   14  C   UNL     1     -30.943  38.518 -45.173  1.00  0.00     0.030 A 
HETATM   15  N   UNL     1     -32.546  37.572 -46.861  1.00  0.00    -0.364 N 
HETATM   16  C   UNL     1     -30.065  39.580 -44.946  1.00  0.00     0.002 A 
HETATM   17  C   UNL     1     -29.884  40.571 -45.905  1.00  0.00     0.001 A 
HETATM   18  H   UNL     1     -32.870  36.768 -46.342  1.00  0.00     0.165 HD
HETATM   19  C   UNL     1     -32.958  37.915 -48.115  1.00  0.00     0.103 A 
ENDBRANCH   8  10
ENDBRANCH   2   5
BRANCH   1  20
HETATM   20  C   UNL     1     -36.320  42.396 -53.241  1.00  0.00     0.226 C 
BRANCH  20  21
HETATM   21  N   UNL     1     -36.870  42.035 -54.545  1.00  0.00    -0.348 N 
HETATM   22  C   UNL     1     -36.126  42.118 -55.698  1.00  0.00     0.252 C 
HETATM   23  O   UNL     1     -35.055  42.715 -55.734  1.00  0.00    -0.268 OA
HETATM   24  H   UNL     1     -37.819  41.688 -54.578  1.00  0.00     0.163 HD
BRANCH  22  25
HETATM   25  C   UNL     1     -36.715  41.543 -56.933  1.00  0.00     0.033 A 
HETATM   26  C   UNL     1     -36.773  42.354 -58.073  1.00  0.00     0.023 A 
HETATM   27  C   UNL     1     -37.303  41.858 -59.269  1.00  0.00    -0.061 A 
HETATM   28  C   UNL     1     -37.404  42.734 -60.483  1.00  0.00     0.048 C 
HETATM   29  C   UNL     1     -37.773  40.539 -59.309  1.00  0.00     0.013 A 
HETATM   30  C   UNL     1     -37.692  39.707 -58.182  1.00  0.00    -0.061 A 
HETATM   31  C   UNL     1     -37.168  40.219 -56.988  1.00  0.00     0.023 A 
HETATM   32  C   UNL     1     -38.190  38.294 -58.263  1.00  0.00     0.048 C 
ENDBRANCH  22  25
ENDBRANCH  20  21
ENDBRANCH   1  20
TORSDOF 5
ENDMDL
