MODEL 1
REMARK VINA RESULT:      -7.4      0.000      0.000
REMARK  9 active torsions:
REMARK  status: ('A' for Active; 'I' for Inactive)
REMARK    1  A    between atoms: C_2  and  C_3 
REMARK    2  A    between atoms: C_5  and  O_6 
REMARK    3  A    between atoms: C_8  and  O_9 
REMARK    4  A    between atoms: O_9  and  C_10 
REMARK    5  A    between atoms: C_10  and  C_11 
REMARK       I    between atoms: C_11  and  N_12 
REMARK    6  A    between atoms: N_12  and  C_13 
REMARK    7  A    between atoms: C_13  and  C_14 
REMARK    8  A    between atoms: C_17  and  N_18 
REMARK       I    between atoms: N_18  and  C_19 
REMARK    9  A    between atoms: C_19  and  C_20 
ROOT
HETATM    1  C   UNL     1     -45.142  59.721 -53.222  1.00  0.00     0.242 C 
HETATM    2  N   UNL     1     -45.424  59.132 -54.420  1.00  0.00    -0.355 N 
HETATM    3  O   UNL     1     -46.054  59.881 -52.409  1.00  0.00    -0.271 OA
HETATM    4  H   UNL     1     -46.394  58.858 -54.510  1.00  0.00     0.162 HD
ENDROOT
BRANCH   2   5
HETATM    5  C   UNL     1     -44.501  58.675 -55.439  1.00  0.00     0.161 C 
BRANCH   5   6
HETATM    6  C   UNL     1     -43.740  57.471 -54.944  1.00  0.00    -0.040 A 
HETATM    7  C   UNL     1     -42.344  57.515 -54.835  1.00  0.00     0.011 A 
HETATM    8  C   UNL     1     -41.618  56.382 -54.449  1.00  0.00     0.030 A 
HETATM    9  C   UNL     1     -42.273  55.183 -54.169  1.00  0.00     0.035 A 
HETATM   10  C   UNL     1     -43.669  55.143 -54.255  1.00  0.00     0.030 A 
HETATM   11  C   UNL     1     -44.398  56.274 -54.641  1.00  0.00     0.011 A 
BRANCH   9  12
HETATM   12  N   UNL     1     -41.613  53.988 -53.828  1.00  0.00    -0.321 N 
HETATM   13  C   UNL     1     -40.473  53.445 -54.392  1.00  0.00     0.279 C 
HETATM   14  O   UNL     1     -39.788  53.969 -55.263  1.00  0.00    -0.265 OA
HETATM   15  H   UNL     1     -42.040  53.414 -53.108  1.00  0.00     0.169 HD
BRANCH  13  16
HETATM   16  C   UNL     1     -40.149  52.138 -53.844  1.00  0.00     0.142 A 
HETATM   17  O   UNL     1     -39.698  52.039 -52.550  1.00  0.00    -0.317 OA
HETATM   18  C   UNL     1     -39.494  50.720 -52.298  1.00  0.00     0.143 A 
HETATM   19  C   UNL     1     -39.803  49.963 -53.404  1.00  0.00     0.027 A 
HETATM   20  C   UNL     1     -40.222  50.875 -54.401  1.00  0.00     0.045 A 
ENDBRANCH  13  16
ENDBRANCH   9  12
ENDBRANCH   5   6
ENDBRANCH   2   5
BRANCH   1  21
HETATM   21  C   UNL     1     -43.711  60.142 -52.910  1.00  0.00     0.278 C 
BRANCH  21  22
HETATM   22  O   UNL     1     -43.433  59.853 -51.546  1.00  0.00    -0.339 OA
BRANCH  22  23
HETATM   23  C   UNL     1     -42.994  58.590 -51.248  1.00  0.00     0.102 A 
HETATM   24  C   UNL     1     -41.607  58.448 -51.045  1.00  0.00     0.102 A 
HETATM   25  C   UNL     1     -41.059  57.188 -50.775  1.00  0.00     0.054 A 
HETATM   26  C   UNL     1     -41.891  56.066 -50.688  1.00  0.00     0.012 A 
HETATM   27  C   UNL     1     -43.272  56.215 -50.871  1.00  0.00     0.018 A 
HETATM   28  C   UNL     1     -43.820  57.469 -51.156  1.00  0.00     0.040 A 
BRANCH  24  29
HETATM   29  O   UNL     1     -40.852  59.590 -51.169  1.00  0.00    -0.353 OA
HETATM   30  C   UNL     1     -39.529  59.531 -50.651  1.00  0.00     0.210 C 
ENDBRANCH  24  29
BRANCH  26  31
HETATM   31  C   UNL     1     -41.357  54.699 -50.414  1.00  0.00     0.155 C 
HETATM   32  C   UNL     1     -40.090  54.554 -49.613  1.00  0.00     0.096 C 
HETATM   33  O   UNL     1     -41.955  53.713 -50.841  1.00  0.00    -0.293 OA
ENDBRANCH  26  31
ENDBRANCH  22  23
ENDBRANCH  21  22
ENDBRANCH   1  21
TORSDOF 9
ENDMDL
MODEL 2
REMARK VINA RESULT:      -7.2      2.993      6.558
REMARK  9 active torsions:
REMARK  status: ('A' for Active; 'I' for Inactive)
REMARK    1  A    between atoms: C_2  and  C_3 
REMARK    2  A    between atoms: C_5  and  O_6 
REMARK    3  A    between atoms: C_8  and  O_9 
REMARK    4  A    between atoms: O_9  and  C_10 
REMARK    5  A    between atoms: C_10  and  C_11 
REMARK       I    between atoms: C_11  and  N_12 
REMARK    6  A    between atoms: N_12  and  C_13 
REMARK    7  A    between atoms: C_13  and  C_14 
REMARK    8  A    between atoms: C_17  and  N_18 
REMARK       I    between atoms: N_18  and  C_19 
REMARK    9  A    between atoms: C_19  and  C_20 
ROOT
HETATM    1  C   UNL     1     -43.357  54.970 -50.758  1.00  0.00     0.242 C 
HETATM    2  N   UNL     1     -44.158  56.032 -51.059  1.00  0.00    -0.355 N 
HETATM    3  O   UNL     1     -43.813  53.830 -50.878  1.00  0.00    -0.271 OA
HETATM    4  H   UNL     1     -45.078  55.760 -51.381  1.00  0.00     0.162 HD
ENDROOT
BRANCH   2   5
HETATM    5  C   UNL     1     -43.794  57.430 -51.176  1.00  0.00     0.161 C 
BRANCH   5   6
HETATM    6  C   UNL     1     -43.530  57.776 -52.620  1.00  0.00    -0.040 A 
HETATM    7  C   UNL     1     -44.586  57.819 -53.539  1.00  0.00     0.011 A 
HETATM    8  C   UNL     1     -44.347  58.065 -54.896  1.00  0.00     0.030 A 
HETATM    9  C   UNL     1     -43.048  58.269 -55.360  1.00  0.00     0.035 A 
HETATM   10  C   UNL     1     -41.994  58.250 -54.440  1.00  0.00     0.030 A 
HETATM   11  C   UNL     1     -42.229  58.004 -53.082  1.00  0.00     0.011 A 
BRANCH   9  12
HETATM   12  N   UNL     1     -42.719  58.468 -56.714  1.00  0.00    -0.321 N 
HETATM   13  C   UNL     1     -42.059  59.539 -57.289  1.00  0.00     0.279 C 
HETATM   14  O   UNL     1     -41.576  60.490 -56.683  1.00  0.00    -0.265 OA
HETATM   15  H   UNL     1     -43.038  57.767 -57.375  1.00  0.00     0.169 HD
BRANCH  13  16
HETATM   16  C   UNL     1     -41.995  59.441 -58.738  1.00  0.00     0.142 A 
HETATM   17  O   UNL     1     -41.922  58.203 -59.329  1.00  0.00    -0.317 OA
HETATM   18  C   UNL     1     -41.893  58.404 -60.672  1.00  0.00     0.143 A 
HETATM   19  C   UNL     1     -41.943  59.747 -60.962  1.00  0.00     0.027 A 
HETATM   20  C   UNL     1     -42.007  60.416 -59.717  1.00  0.00     0.045 A 
ENDBRANCH  13  16
ENDBRANCH   9  12
ENDBRANCH   5   6
ENDBRANCH   2   5
BRANCH   1  21
HETATM   21  C   UNL     1     -41.921  55.213 -50.310  1.00  0.00     0.278 C 
BRANCH  21  22
HETATM   22  O   UNL     1     -41.070  55.162 -51.447  1.00  0.00    -0.339 OA
BRANCH  22  23
HETATM   23  C   UNL     1     -40.689  53.922 -51.891  1.00  0.00     0.102 A 
HETATM   24  C   UNL     1     -40.945  53.645 -53.248  1.00  0.00     0.102 A 
HETATM   25  C   UNL     1     -40.627  52.390 -53.783  1.00  0.00     0.054 A 
HETATM   26  C   UNL     1     -40.037  51.412 -52.975  1.00  0.00     0.012 A 
HETATM   27  C   UNL     1     -39.767  51.699 -51.631  1.00  0.00     0.018 A 
HETATM   28  C   UNL     1     -40.097  52.945 -51.090  1.00  0.00     0.040 A 
BRANCH  24  29
HETATM   29  O   UNL     1     -41.547  54.645 -53.973  1.00  0.00    -0.353 OA
HETATM   30  C   UNL     1     -42.895  54.418 -54.365  1.00  0.00     0.210 C 
ENDBRANCH  24  29
BRANCH  26  31
HETATM   31  C   UNL     1     -39.690  50.056 -53.493  1.00  0.00     0.155 C 
HETATM   32  C   UNL     1     -39.669  49.821 -54.980  1.00  0.00     0.096 C 
HETATM   33  O   UNL     1     -39.425  49.151 -52.703  1.00  0.00    -0.293 OA
ENDBRANCH  26  31
ENDBRANCH  22  23
ENDBRANCH  21  22
ENDBRANCH   1  21
TORSDOF 9
ENDMDL
MODEL 3
REMARK VINA RESULT:      -7.2      1.688      2.257
REMARK  9 active torsions:
REMARK  status: ('A' for Active; 'I' for Inactive)
REMARK    1  A    between atoms: C_2  and  C_3 
REMARK    2  A    between atoms: C_5  and  O_6 
REMARK    3  A    between atoms: C_8  and  O_9 
REMARK    4  A    between atoms: O_9  and  C_10 
REMARK    5  A    between atoms: C_10  and  C_11 
REMARK       I    between atoms: C_11  and  N_12 
REMARK    6  A    between atoms: N_12  and  C_13 
REMARK    7  A    between atoms: C_13  and  C_14 
REMARK    8  A    between atoms: C_17  and  N_18 
REMARK       I    between atoms: N_18  and  C_19 
REMARK    9  A    between atoms: C_19  and  C_20 
ROOT
HETATM    1  C   UNL     1     -42.436  59.467 -55.563  1.00  0.00     0.242 C 
HETATM    2  N   UNL     1     -42.164  58.382 -56.345  1.00  0.00    -0.355 N 
HETATM    3  O   UNL     1     -41.719  60.465 -55.661  1.00  0.00    -0.271 OA
HETATM    4  H   UNL     1     -41.377  58.526 -56.965  1.00  0.00     0.162 HD
ENDROOT
BRANCH   2   5
HETATM    5  C   UNL     1     -42.962  57.189 -56.540  1.00  0.00     0.161 C 
BRANCH   5   6
HETATM    6  C   UNL     1     -42.396  56.050 -55.730  1.00  0.00    -0.040 A 
HETATM    7  C   UNL     1     -43.090  54.836 -55.638  1.00  0.00     0.011 A 
HETATM    8  C   UNL     1     -42.615  53.797 -54.830  1.00  0.00     0.030 A 
HETATM    9  C   UNL     1     -41.440  53.952 -54.096  1.00  0.00     0.035 A 
HETATM   10  C   UNL     1     -40.732  55.155 -54.204  1.00  0.00     0.030 A 
HETATM   11  C   UNL     1     -41.205  56.197 -55.011  1.00  0.00     0.011 A 
BRANCH   9  12
HETATM   12  N   UNL     1     -40.925  52.978 -53.221  1.00  0.00    -0.321 N 
HETATM   13  C   UNL     1     -40.284  51.793 -53.536  1.00  0.00     0.279 C 
HETATM   14  O   UNL     1     -39.988  51.419 -54.665  1.00  0.00    -0.265 OA
HETATM   15  H   UNL     1     -41.073  53.125 -52.228  1.00  0.00     0.169 HD
BRANCH  13  16
HETATM   16  C   UNL     1     -39.988  50.991 -52.360  1.00  0.00     0.142 A 
HETATM   17  O   UNL     1     -40.238  51.504 -51.110  1.00  0.00    -0.317 OA
HETATM   18  C   UNL     1     -39.891  50.548 -50.210  1.00  0.00     0.143 A 
HETATM   19  C   UNL     1     -39.419  49.428 -50.852  1.00  0.00     0.027 A 
HETATM   20  C   UNL     1     -39.479  49.712 -52.236  1.00  0.00     0.045 A 
ENDBRANCH  13  16
ENDBRANCH   9  12
ENDBRANCH   5   6
ENDBRANCH   2   5
BRANCH   1  21
HETATM   21  C   UNL     1     -43.626  59.428 -54.612  1.00  0.00     0.278 C 
BRANCH  21  22
HETATM   22  O   UNL     1     -43.153  59.545 -53.277  1.00  0.00    -0.339 OA
BRANCH  22  23
HETATM   23  C   UNL     1     -42.968  58.384 -52.572  1.00  0.00     0.102 A 
HETATM   24  C   UNL     1     -41.803  58.318 -51.783  1.00  0.00     0.102 A 
HETATM   25  C   UNL     1     -41.509  57.156 -51.058  1.00  0.00     0.054 A 
HETATM   26  C   UNL     1     -42.381  56.062 -51.101  1.00  0.00     0.012 A 
HETATM   27  C   UNL     1     -43.548  56.140 -51.872  1.00  0.00     0.018 A 
HETATM   28  C   UNL     1     -43.837  57.293 -52.609  1.00  0.00     0.040 A 
BRANCH  24  29
HETATM   29  O   UNL     1     -40.984  59.421 -51.809  1.00  0.00    -0.353 OA
HETATM   30  C   UNL     1     -40.120  59.591 -50.692  1.00  0.00     0.210 C 
ENDBRANCH  24  29
BRANCH  26  31
HETATM   31  C   UNL     1     -42.108  54.797 -50.357  1.00  0.00     0.155 C 
HETATM   32  C   UNL     1     -41.245  54.844 -49.124  1.00  0.00     0.096 C 
HETATM   33  O   UNL     1     -42.589  53.739 -50.756  1.00  0.00    -0.293 OA
ENDBRANCH  26  31
ENDBRANCH  22  23
ENDBRANCH  21  22
ENDBRANCH   1  21
TORSDOF 9
ENDMDL
MODEL 4
REMARK VINA RESULT:      -7.1      2.862      5.993
REMARK  9 active torsions:
REMARK  status: ('A' for Active; 'I' for Inactive)
REMARK    1  A    between atoms: C_2  and  C_3 
REMARK    2  A    between atoms: C_5  and  O_6 
REMARK    3  A    between atoms: C_8  and  O_9 
REMARK    4  A    between atoms: O_9  and  C_10 
REMARK    5  A    between atoms: C_10  and  C_11 
REMARK       I    between atoms: C_11  and  N_12 
REMARK    6  A    between atoms: N_12  and  C_13 
REMARK    7  A    between atoms: C_13  and  C_14 
REMARK    8  A    between atoms: C_17  and  N_18 
REMARK       I    between atoms: N_18  and  C_19 
REMARK    9  A    between atoms: C_19  and  C_20 
ROOT
HETATM    1  C   UNL     1     -40.241  54.165 -50.189  1.00  0.00     0.242 C 
HETATM    2  N   UNL     1     -40.397  53.408 -51.313  1.00  0.00    -0.355 N 
HETATM    3  O   UNL     1     -39.100  54.446 -49.816  1.00  0.00    -0.271 OA
HETATM    4  H   UNL     1     -39.519  53.161 -51.752  1.00  0.00     0.162 HD
ENDROOT
BRANCH   2   5
HETATM    5  C   UNL     1     -41.616  53.114 -52.039  1.00  0.00     0.161 C 
BRANCH   5   6
HETATM    6  C   UNL     1     -41.689  53.955 -53.289  1.00  0.00    -0.040 A 
HETATM    7  C   UNL     1     -40.585  54.719 -53.690  1.00  0.00     0.011 A 
HETATM    8  C   UNL     1     -40.662  55.562 -54.804  1.00  0.00     0.030 A 
HETATM    9  C   UNL     1     -41.845  55.661 -55.536  1.00  0.00     0.035 A 
HETATM   10  C   UNL     1     -42.942  54.882 -55.151  1.00  0.00     0.030 A 
HETATM   11  C   UNL     1     -42.868  54.038 -54.037  1.00  0.00     0.011 A 
BRANCH   9  12
HETATM   12  N   UNL     1     -42.021  56.524 -56.633  1.00  0.00    -0.321 N 
HETATM   13  C   UNL     1     -42.739  56.301 -57.795  1.00  0.00     0.279 C 
HETATM   14  O   UNL     1     -43.418  55.310 -58.036  1.00  0.00    -0.265 OA
HETATM   15  H   UNL     1     -41.528  57.411 -56.607  1.00  0.00     0.169 HD
BRANCH  13  16
HETATM   16  C   UNL     1     -42.602  57.388 -58.751  1.00  0.00     0.142 A 
HETATM   17  O   UNL     1     -43.131  58.621 -58.454  1.00  0.00    -0.317 OA
HETATM   18  C   UNL     1     -42.845  59.439 -59.499  1.00  0.00     0.143 A 
HETATM   19  C   UNL     1     -42.143  58.761 -60.467  1.00  0.00     0.027 A 
HETATM   20  C   UNL     1     -41.987  57.440 -59.988  1.00  0.00     0.045 A 
ENDBRANCH  13  16
ENDBRANCH   9  12
ENDBRANCH   5   6
ENDBRANCH   2   5
BRANCH   1  21
HETATM   21  C   UNL     1     -41.472  54.664 -49.442  1.00  0.00     0.278 C 
BRANCH  21  22
HETATM   22  O   UNL     1     -41.504  56.083 -49.503  1.00  0.00    -0.339 OA
BRANCH  22  23
HETATM   23  C   UNL     1     -42.113  56.652 -50.592  1.00  0.00     0.102 A 
HETATM   24  C   UNL     1     -41.394  57.676 -51.238  1.00  0.00     0.102 A 
HETATM   25  C   UNL     1     -41.952  58.343 -52.336  1.00  0.00     0.054 A 
HETATM   26  C   UNL     1     -43.221  57.983 -52.804  1.00  0.00     0.012 A 
HETATM   27  C   UNL     1     -43.924  56.952 -52.170  1.00  0.00     0.018 A 
HETATM   28  C   UNL     1     -43.376  56.293 -51.065  1.00  0.00     0.040 A 
BRANCH  24  29
HETATM   29  O   UNL     1     -40.166  57.989 -50.707  1.00  0.00    -0.353 OA
HETATM   30  C   UNL     1     -39.537  59.158 -51.220  1.00  0.00     0.210 C 
ENDBRANCH  24  29
BRANCH  26  31
HETATM   31  C   UNL     1     -43.866  58.671 -53.962  1.00  0.00     0.155 C 
HETATM   32  C   UNL     1     -45.207  59.329 -53.771  1.00  0.00     0.096 C 
HETATM   33  O   UNL     1     -43.297  58.693 -55.052  1.00  0.00    -0.293 OA
ENDBRANCH  26  31
ENDBRANCH  22  23
ENDBRANCH  21  22
ENDBRANCH   1  21
TORSDOF 9
ENDMDL
MODEL 5
REMARK VINA RESULT:      -7.0      4.484      5.737
REMARK  9 active torsions:
REMARK  status: ('A' for Active; 'I' for Inactive)
REMARK    1  A    between atoms: C_2  and  C_3 
REMARK    2  A    between atoms: C_5  and  O_6 
REMARK    3  A    between atoms: C_8  and  O_9 
REMARK    4  A    between atoms: O_9  and  C_10 
REMARK    5  A    between atoms: C_10  and  C_11 
REMARK       I    between atoms: C_11  and  N_12 
REMARK    6  A    between atoms: N_12  and  C_13 
REMARK    7  A    between atoms: C_13  and  C_14 
REMARK    8  A    between atoms: C_17  and  N_18 
REMARK       I    between atoms: N_18  and  C_19 
REMARK    9  A    between atoms: C_19  and  C_20 
ROOT
HETATM    1  C   UNL     1     -45.662  59.860 -51.033  1.00  0.00     0.242 C 
HETATM    2  N   UNL     1     -44.789  59.004 -51.639  1.00  0.00    -0.355 N 
HETATM    3  O   UNL     1     -46.867  59.742 -51.265  1.00  0.00    -0.271 OA
HETATM    4  H   UNL     1     -45.247  58.318 -52.226  1.00  0.00     0.162 HD
ENDROOT
BRANCH   2   5
HETATM    5  C   UNL     1     -43.374  58.829 -51.381  1.00  0.00     0.161 C 
BRANCH   5   6
HETATM    6  C   UNL     1     -42.949  57.432 -51.760  1.00  0.00    -0.040 A 
HETATM    7  C   UNL     1     -43.188  56.362 -50.888  1.00  0.00     0.011 A 
HETATM    8  C   UNL     1     -42.733  55.074 -51.192  1.00  0.00     0.030 A 
HETATM    9  C   UNL     1     -42.026  54.832 -52.370  1.00  0.00     0.035 A 
HETATM   10  C   UNL     1     -41.806  55.895 -53.253  1.00  0.00     0.030 A 
HETATM   11  C   UNL     1     -42.260  57.185 -52.952  1.00  0.00     0.011 A 
BRANCH   9  12
HETATM   12  N   UNL     1     -41.489  53.580 -52.722  1.00  0.00    -0.321 N 
HETATM   13  C   UNL     1     -40.350  52.965 -52.233  1.00  0.00     0.279 C 
HETATM   14  O   UNL     1     -39.637  53.395 -51.333  1.00  0.00    -0.265 OA
HETATM   15  H   UNL     1     -41.960  53.067 -53.461  1.00  0.00     0.169 HD
BRANCH  13  16
HETATM   16  C   UNL     1     -40.055  51.717 -52.917  1.00  0.00     0.142 A 
HETATM   17  O   UNL     1     -39.725  50.604 -52.182  1.00  0.00    -0.317 OA
HETATM   18  C   UNL     1     -39.520  49.591 -53.062  1.00  0.00     0.143 A 
HETATM   19  C   UNL     1     -39.709  50.025 -54.353  1.00  0.00     0.027 A 
HETATM   20  C   UNL     1     -40.051  51.395 -54.261  1.00  0.00     0.045 A 
ENDBRANCH  13  16
ENDBRANCH   9  12
ENDBRANCH   5   6
ENDBRANCH   2   5
BRANCH   1  21
HETATM   21  C   UNL     1     -45.133  60.919 -50.073  1.00  0.00     0.278 C 
BRANCH  21  22
HETATM   22  O   UNL     1     -46.154  61.246 -49.142  1.00  0.00    -0.339 OA
BRANCH  22  23
HETATM   23  C   UNL     1     -45.762  61.770 -47.937  1.00  0.00     0.102 A 
HETATM   24  C   UNL     1     -45.826  60.898 -46.833  1.00  0.00     0.102 A 
HETATM   25  C   UNL     1     -45.483  61.356 -45.554  1.00  0.00     0.054 A 
HETATM   26  C   UNL     1     -45.060  62.677 -45.371  1.00  0.00     0.012 A 
HETATM   27  C   UNL     1     -44.980  63.535 -46.476  1.00  0.00     0.018 A 
HETATM   28  C   UNL     1     -45.336  63.086 -47.752  1.00  0.00     0.040 A 
BRANCH  24  29
HETATM   29  O   UNL     1     -46.272  59.624 -47.085  1.00  0.00    -0.353 OA
HETATM   30  C   UNL     1     -46.816  58.915 -45.979  1.00  0.00     0.210 C 
ENDBRANCH  24  29
BRANCH  26  31
HETATM   31  C   UNL     1     -44.694  63.217 -44.028  1.00  0.00     0.155 C 
HETATM   32  C   UNL     1     -43.689  62.475 -43.188  1.00  0.00     0.096 C 
HETATM   33  O   UNL     1     -45.215  64.256 -43.627  1.00  0.00    -0.293 OA
ENDBRANCH  26  31
ENDBRANCH  22  23
ENDBRANCH  21  22
ENDBRANCH   1  21
TORSDOF 9
ENDMDL
MODEL 6
REMARK VINA RESULT:      -6.9      2.994      6.007
REMARK  9 active torsions:
REMARK  status: ('A' for Active; 'I' for Inactive)
REMARK    1  A    between atoms: C_2  and  C_3 
REMARK    2  A    between atoms: C_5  and  O_6 
REMARK    3  A    between atoms: C_8  and  O_9 
REMARK    4  A    between atoms: O_9  and  C_10 
REMARK    5  A    between atoms: C_10  and  C_11 
REMARK       I    between atoms: C_11  and  N_12 
REMARK    6  A    between atoms: N_12  and  C_13 
REMARK    7  A    between atoms: C_13  and  C_14 
REMARK    8  A    between atoms: C_17  and  N_18 
REMARK       I    between atoms: N_18  and  C_19 
REMARK    9  A    between atoms: C_19  and  C_20 
ROOT
HETATM    1  C   UNL     1     -41.235  54.349 -49.972  1.00  0.00     0.242 C 
HETATM    2  N   UNL     1     -41.187  53.349 -50.898  1.00  0.00    -0.355 N 
HETATM    3  O   UNL     1     -41.952  54.205 -48.979  1.00  0.00    -0.271 OA
HETATM    4  H   UNL     1     -41.756  52.550 -50.651  1.00  0.00     0.162 HD
ENDROOT
BRANCH   2   5
HETATM    5  C   UNL     1     -40.290  53.210 -52.028  1.00  0.00     0.161 C 
BRANCH   5   6
HETATM    6  C   UNL     1     -40.928  53.787 -53.267  1.00  0.00    -0.040 A 
HETATM    7  C   UNL     1     -42.318  53.739 -53.433  1.00  0.00     0.011 A 
HETATM    8  C   UNL     1     -42.917  54.202 -54.610  1.00  0.00     0.030 A 
HETATM    9  C   UNL     1     -42.138  54.719 -55.645  1.00  0.00     0.035 A 
HETATM   10  C   UNL     1     -40.750  54.790 -55.472  1.00  0.00     0.030 A 
HETATM   11  C   UNL     1     -40.148  54.327 -54.297  1.00  0.00     0.011 A 
BRANCH   9  12
HETATM   12  N   UNL     1     -42.657  55.154 -56.878  1.00  0.00    -0.321 N 
HETATM   13  C   UNL     1     -43.336  56.326 -57.158  1.00  0.00     0.279 C 
HETATM   14  O   UNL     1     -43.543  57.239 -56.366  1.00  0.00    -0.265 OA
HETATM   15  H   UNL     1     -42.571  54.520 -57.665  1.00  0.00     0.169 HD
BRANCH  13  16
HETATM   16  C   UNL     1     -43.813  56.379 -58.531  1.00  0.00     0.142 A 
HETATM   17  O   UNL     1     -44.531  57.470 -58.957  1.00  0.00    -0.317 OA
HETATM   18  C   UNL     1     -44.828  57.265 -60.266  1.00  0.00     0.143 A 
HETATM   19  C   UNL     1     -44.319  56.062 -60.696  1.00  0.00     0.027 A 
HETATM   20  C   UNL     1     -43.666  55.489 -59.579  1.00  0.00     0.045 A 
ENDBRANCH  13  16
ENDBRANCH   9  12
ENDBRANCH   5   6
ENDBRANCH   2   5
BRANCH   1  21
HETATM   21  C   UNL     1     -40.389  55.601 -50.172  1.00  0.00     0.278 C 
BRANCH  21  22
HETATM   22  O   UNL     1     -41.220  56.745 -50.032  1.00  0.00    -0.339 OA
BRANCH  22  23
HETATM   23  C   UNL     1     -41.465  57.485 -51.160  1.00  0.00     0.102 A 
HETATM   24  C   UNL     1     -40.907  58.778 -51.185  1.00  0.00     0.102 A 
HETATM   25  C   UNL     1     -41.137  59.623 -52.278  1.00  0.00     0.054 A 
HETATM   26  C   UNL     1     -41.908  59.179 -53.358  1.00  0.00     0.012 A 
HETATM   27  C   UNL     1     -42.444  57.885 -53.337  1.00  0.00     0.018 A 
HETATM   28  C   UNL     1     -42.230  57.044 -52.241  1.00  0.00     0.040 A 
BRANCH  24  29
HETATM   29  O   UNL     1     -40.182  59.153 -50.079  1.00  0.00    -0.353 OA
HETATM   30  C   UNL     1     -38.884  59.679 -50.325  1.00  0.00     0.210 C 
ENDBRANCH  24  29
BRANCH  26  31
HETATM   31  C   UNL     1     -42.192  60.043 -54.542  1.00  0.00     0.155 C 
HETATM   32  C   UNL     1     -43.227  61.132 -54.424  1.00  0.00     0.096 C 
HETATM   33  O   UNL     1     -41.582  59.858 -55.593  1.00  0.00    -0.293 OA
ENDBRANCH  26  31
ENDBRANCH  22  23
ENDBRANCH  21  22
ENDBRANCH   1  21
TORSDOF 9
ENDMDL
MODEL 7
REMARK VINA RESULT:      -6.9      3.279      7.892
REMARK  9 active torsions:
REMARK  status: ('A' for Active; 'I' for Inactive)
REMARK    1  A    between atoms: C_2  and  C_3 
REMARK    2  A    between atoms: C_5  and  O_6 
REMARK    3  A    between atoms: C_8  and  O_9 
REMARK    4  A    between atoms: O_9  and  C_10 
REMARK    5  A    between atoms: C_10  and  C_11 
REMARK       I    between atoms: C_11  and  N_12 
REMARK    6  A    between atoms: N_12  and  C_13 
REMARK    7  A    between atoms: C_13  and  C_14 
REMARK    8  A    between atoms: C_17  and  N_18 
REMARK       I    between atoms: N_18  and  C_19 
REMARK    9  A    between atoms: C_19  and  C_20 
ROOT
HETATM    1  C   UNL     1     -42.081  56.928 -54.983  1.00  0.00     0.242 C 
HETATM    2  N   UNL     1     -42.356  58.262 -54.890  1.00  0.00    -0.355 N 
HETATM    3  O   UNL     1     -42.851  56.207 -55.621  1.00  0.00    -0.271 OA
HETATM    4  H   UNL     1     -43.190  58.533 -55.393  1.00  0.00     0.162 HD
ENDROOT
BRANCH   2   5
HETATM    5  C   UNL     1     -41.516  59.320 -54.365  1.00  0.00     0.161 C 
BRANCH   5   6
HETATM    6  C   UNL     1     -42.104  59.860 -53.086  1.00  0.00    -0.040 A 
HETATM    7  C   UNL     1     -41.932  59.165 -51.882  1.00  0.00     0.011 A 
HETATM    8  C   UNL     1     -42.535  59.615 -50.701  1.00  0.00     0.030 A 
HETATM    9  C   UNL     1     -43.324  60.764 -50.703  1.00  0.00     0.035 A 
HETATM   10  C   UNL     1     -43.479  61.474 -51.900  1.00  0.00     0.030 A 
HETATM   11  C   UNL     1     -42.878  61.027 -53.082  1.00  0.00     0.011 A 
BRANCH   9  12
HETATM   12  N   UNL     1     -44.007  61.251 -49.573  1.00  0.00    -0.321 N 
HETATM   13  C   UNL     1     -45.218  60.829 -49.053  1.00  0.00     0.279 C 
HETATM   14  O   UNL     1     -45.882  59.884 -49.465  1.00  0.00    -0.265 OA
HETATM   15  H   UNL     1     -43.596  62.044 -49.091  1.00  0.00     0.169 HD
BRANCH  13  16
HETATM   16  C   UNL     1     -45.658  61.646 -47.933  1.00  0.00     0.142 A 
HETATM   17  O   UNL     1     -46.835  61.341 -47.294  1.00  0.00    -0.317 OA
HETATM   18  C   UNL     1     -46.989  62.242 -46.290  1.00  0.00     0.143 A 
HETATM   19  C   UNL     1     -45.935  63.126 -46.267  1.00  0.00     0.027 A 
HETATM   20  C   UNL     1     -45.078  62.744 -47.326  1.00  0.00     0.045 A 
ENDBRANCH  13  16
ENDBRANCH   9  12
ENDBRANCH   5   6
ENDBRANCH   2   5
BRANCH   1  21
HETATM   21  C   UNL     1     -40.826  56.371 -54.322  1.00  0.00     0.278 C 
BRANCH  21  22
HETATM   22  O   UNL     1     -41.207  55.588 -53.199  1.00  0.00    -0.339 OA
BRANCH  22  23
HETATM   23  C   UNL     1     -40.867  54.260 -53.214  1.00  0.00     0.102 A 
HETATM   24  C   UNL     1     -40.528  53.693 -51.970  1.00  0.00     0.102 A 
HETATM   25  C   UNL     1     -40.129  52.353 -51.892  1.00  0.00     0.054 A 
HETATM   26  C   UNL     1     -40.082  51.567 -53.049  1.00  0.00     0.012 A 
HETATM   27  C   UNL     1     -40.438  52.130 -54.281  1.00  0.00     0.018 A 
HETATM   28  C   UNL     1     -40.822  53.472 -54.365  1.00  0.00     0.040 A 
BRANCH  24  29
HETATM   29  O   UNL     1     -40.576  54.533 -50.883  1.00  0.00    -0.353 OA
HETATM   30  C   UNL     1     -39.824  54.133 -49.744  1.00  0.00     0.210 C 
ENDBRANCH  24  29
BRANCH  26  31
HETATM   31  C   UNL     1     -39.652  50.137 -53.022  1.00  0.00     0.155 C 
HETATM   32  C   UNL     1     -39.482  49.447 -51.694  1.00  0.00     0.096 C 
HETATM   33  O   UNL     1     -39.445  49.543 -54.078  1.00  0.00    -0.293 OA
ENDBRANCH  26  31
ENDBRANCH  22  23
ENDBRANCH  21  22
ENDBRANCH   1  21
TORSDOF 9
ENDMDL
MODEL 8
REMARK VINA RESULT:      -6.8      3.653      5.992
REMARK  9 active torsions:
REMARK  status: ('A' for Active; 'I' for Inactive)
REMARK    1  A    between atoms: C_2  and  C_3 
REMARK    2  A    between atoms: C_5  and  O_6 
REMARK    3  A    between atoms: C_8  and  O_9 
REMARK    4  A    between atoms: O_9  and  C_10 
REMARK    5  A    between atoms: C_10  and  C_11 
REMARK       I    between atoms: C_11  and  N_12 
REMARK    6  A    between atoms: N_12  and  C_13 
REMARK    7  A    between atoms: C_13  and  C_14 
REMARK    8  A    between atoms: C_17  and  N_18 
REMARK       I    between atoms: N_18  and  C_19 
REMARK    9  A    between atoms: C_19  and  C_20 
ROOT
HETATM    1  C   UNL     1     -44.510  60.496 -56.267  1.00  0.00     0.242 C 
HETATM    2  N   UNL     1     -44.404  59.419 -55.436  1.00  0.00    -0.355 N 
HETATM    3  O   UNL     1     -43.686  61.408 -56.165  1.00  0.00    -0.271 OA
HETATM    4  H   UNL     1     -43.613  59.477 -54.808  1.00  0.00     0.162 HD
ENDROOT
BRANCH   2   5
HETATM    5  C   UNL     1     -45.125  58.164 -55.492  1.00  0.00     0.161 C 
BRANCH   5   6
HETATM    6  C   UNL     1     -44.210  57.025 -55.121  1.00  0.00    -0.040 A 
HETATM    7  C   UNL     1     -43.550  56.295 -56.118  1.00  0.00     0.011 A 
HETATM    8  C   UNL     1     -42.757  55.189 -55.793  1.00  0.00     0.030 A 
HETATM    9  C   UNL     1     -42.611  54.789 -54.466  1.00  0.00     0.035 A 
HETATM   10  C   UNL     1     -43.250  55.530 -53.464  1.00  0.00     0.030 A 
HETATM   11  C   UNL     1     -44.044  56.636 -53.786  1.00  0.00     0.011 A 
BRANCH   9  12
HETATM   12  N   UNL     1     -41.876  53.659 -54.061  1.00  0.00    -0.321 N 
HETATM   13  C   UNL     1     -40.572  53.323 -54.377  1.00  0.00     0.279 C 
HETATM   14  O   UNL     1     -39.794  54.014 -55.027  1.00  0.00    -0.265 OA
HETATM   15  H   UNL     1     -42.364  52.967 -53.502  1.00  0.00     0.169 HD
BRANCH  13  16
HETATM   16  C   UNL     1     -40.191  52.020 -53.859  1.00  0.00     0.142 A 
HETATM   17  O   UNL     1     -39.807  51.900 -52.545  1.00  0.00    -0.317 OA
HETATM   18  C   UNL     1     -39.528  50.589 -52.329  1.00  0.00     0.143 A 
HETATM   19  C   UNL     1     -39.722  49.857 -53.477  1.00  0.00     0.027 A 
HETATM   20  C   UNL     1     -40.147  50.778 -54.464  1.00  0.00     0.045 A 
ENDBRANCH  13  16
ENDBRANCH   9  12
ENDBRANCH   5   6
ENDBRANCH   2   5
BRANCH   1  21
HETATM   21  C   UNL     1     -45.619  60.535 -57.310  1.00  0.00     0.278 C 
BRANCH  21  22
HETATM   22  O   UNL     1     -45.056  60.285 -58.591  1.00  0.00    -0.339 OA
BRANCH  22  23
HETATM   23  C   UNL     1     -45.068  58.990 -59.041  1.00  0.00     0.102 A 
HETATM   24  C   UNL     1     -43.829  58.470 -59.464  1.00  0.00     0.102 A 
HETATM   25  C   UNL     1     -43.749  57.170 -59.977  1.00  0.00     0.054 A 
HETATM   26  C   UNL     1     -44.898  56.375 -60.056  1.00  0.00     0.012 A 
HETATM   27  C   UNL     1     -46.125  56.890 -59.617  1.00  0.00     0.018 A 
HETATM   28  C   UNL     1     -46.210  58.194 -59.118  1.00  0.00     0.040 A 
BRANCH  24  29
HETATM   29  O   UNL     1     -42.749  59.317 -59.377  1.00  0.00    -0.353 OA
HETATM   30  C   UNL     1     -41.844  59.077 -58.307  1.00  0.00     0.210 C 
ENDBRANCH  24  29
BRANCH  26  31
HETATM   31  C   UNL     1     -44.870  54.987 -60.606  1.00  0.00     0.155 C 
HETATM   32  C   UNL     1     -44.757  53.824 -59.656  1.00  0.00     0.096 C 
HETATM   33  O   UNL     1     -44.939  54.811 -61.821  1.00  0.00    -0.293 OA
ENDBRANCH  26  31
ENDBRANCH  22  23
ENDBRANCH  21  22
ENDBRANCH   1  21
TORSDOF 9
ENDMDL
MODEL 9
REMARK VINA RESULT:      -6.7      2.033      3.797
REMARK  9 active torsions:
REMARK  status: ('A' for Active; 'I' for Inactive)
REMARK    1  A    between atoms: C_2  and  C_3 
REMARK    2  A    between atoms: C_5  and  O_6 
REMARK    3  A    between atoms: C_8  and  O_9 
REMARK    4  A    between atoms: O_9  and  C_10 
REMARK    5  A    between atoms: C_10  and  C_11 
REMARK       I    between atoms: C_11  and  N_12 
REMARK    6  A    between atoms: N_12  and  C_13 
REMARK    7  A    between atoms: C_13  and  C_14 
REMARK    8  A    between atoms: C_17  and  N_18 
REMARK       I    between atoms: N_18  and  C_19 
REMARK    9  A    between atoms: C_19  and  C_20 
ROOT
HETATM    1  C   UNL     1     -43.708  61.703 -52.730  1.00  0.00     0.242 C 
HETATM    2  N   UNL     1     -43.638  60.949 -51.595  1.00  0.00    -0.355 N 
HETATM    3  O   UNL     1     -42.819  62.528 -52.950  1.00  0.00    -0.271 OA
HETATM    4  H   UNL     1     -42.816  61.142 -51.038  1.00  0.00     0.162 HD
ENDROOT
BRANCH   2   5
HETATM    5  C   UNL     1     -44.448  59.806 -51.222  1.00  0.00     0.161 C 
BRANCH   5   6
HETATM    6  C   UNL     1     -43.656  58.534 -51.396  1.00  0.00    -0.040 A 
HETATM    7  C   UNL     1     -42.306  58.588 -51.765  1.00  0.00     0.011 A 
HETATM    8  C   UNL     1     -41.579  57.416 -52.003  1.00  0.00     0.030 A 
HETATM    9  C   UNL     1     -42.189  56.168 -51.881  1.00  0.00     0.035 A 
HETATM   10  C   UNL     1     -43.532  56.110 -51.489  1.00  0.00     0.030 A 
HETATM   11  C   UNL     1     -44.262  57.280 -51.251  1.00  0.00     0.011 A 
BRANCH   9  12
HETATM   12  N   UNL     1     -41.544  54.947 -52.154  1.00  0.00    -0.321 N 
HETATM   13  C   UNL     1     -40.734  54.625 -53.228  1.00  0.00     0.279 C 
HETATM   14  O   UNL     1     -40.377  55.398 -54.111  1.00  0.00    -0.265 OA
HETATM   15  H   UNL     1     -41.721  54.178 -51.515  1.00  0.00     0.169 HD
BRANCH  13  16
HETATM   16  C   UNL     1     -40.334  53.228 -53.224  1.00  0.00     0.142 A 
HETATM   17  O   UNL     1     -39.823  52.673 -52.075  1.00  0.00    -0.317 OA
HETATM   18  C   UNL     1     -39.555  51.370 -52.347  1.00  0.00     0.143 A 
HETATM   19  C   UNL     1     -39.881  51.070 -53.649  1.00  0.00     0.027 A 
HETATM   20  C   UNL     1     -40.380  52.265 -54.216  1.00  0.00     0.045 A 
ENDBRANCH  13  16
ENDBRANCH   9  12
ENDBRANCH   5   6
ENDBRANCH   2   5
BRANCH   1  21
HETATM   21  C   UNL     1     -44.861  61.492 -53.703  1.00  0.00     0.278 C 
BRANCH  21  22
HETATM   22  O   UNL     1     -44.347  60.962 -54.917  1.00  0.00    -0.339 OA
BRANCH  22  23
HETATM   23  C   UNL     1     -44.184  59.602 -54.990  1.00  0.00     0.102 A 
HETATM   24  C   UNL     1     -42.917  59.153 -55.410  1.00  0.00     0.102 A 
HETATM   25  C   UNL     1     -42.668  57.782 -55.553  1.00  0.00     0.054 A 
HETATM   26  C   UNL     1     -43.673  56.852 -55.262  1.00  0.00     0.012 A 
HETATM   27  C   UNL     1     -44.925  57.304 -54.826  1.00  0.00     0.018 A 
HETATM   28  C   UNL     1     -45.181  58.672 -54.697  1.00  0.00     0.040 A 
BRANCH  24  29
HETATM   29  O   UNL     1     -41.989  60.124 -55.700  1.00  0.00    -0.353 OA
HETATM   30  C   UNL     1     -41.737  60.365 -57.079  1.00  0.00     0.210 C 
ENDBRANCH  24  29
BRANCH  26  31
HETATM   31  C   UNL     1     -43.463  55.382 -55.409  1.00  0.00     0.155 C 
HETATM   32  C   UNL     1     -42.800  54.856 -56.655  1.00  0.00     0.096 C 
HETATM   33  O   UNL     1     -43.830  54.621 -54.516  1.00  0.00    -0.293 OA
ENDBRANCH  26  31
ENDBRANCH  22  23
ENDBRANCH  21  22
ENDBRANCH   1  21
TORSDOF 9
ENDMDL
MODEL 10
REMARK VINA RESULT:      -6.7      2.837      5.104
REMARK  9 active torsions:
REMARK  status: ('A' for Active; 'I' for Inactive)
REMARK    1  A    between atoms: C_2  and  C_3 
REMARK    2  A    between atoms: C_5  and  O_6 
REMARK    3  A    between atoms: C_8  and  O_9 
REMARK    4  A    between atoms: O_9  and  C_10 
REMARK    5  A    between atoms: C_10  and  C_11 
REMARK       I    between atoms: C_11  and  N_12 
REMARK    6  A    between atoms: N_12  and  C_13 
REMARK    7  A    between atoms: C_13  and  C_14 
REMARK    8  A    between atoms: C_17  and  N_18 
REMARK       I    between atoms: N_18  and  C_19 
REMARK    9  A    between atoms: C_19  and  C_20 
ROOT
HETATM    1  C   UNL     1     -43.233  60.176 -53.342  1.00  0.00     0.242 C 
HETATM    2  N   UNL     1     -43.379  59.496 -52.168  1.00  0.00    -0.355 N 
HETATM    3  O   UNL     1     -42.238  60.888 -53.495  1.00  0.00    -0.271 OA
HETATM    4  H   UNL     1     -42.610  59.640 -51.526  1.00  0.00     0.162 HD
ENDROOT
BRANCH   2   5
HETATM    5  C   UNL     1     -44.347  58.470 -51.836  1.00  0.00     0.161 C 
BRANCH   5   6
HETATM    6  C   UNL     1     -43.752  57.104 -52.067  1.00  0.00    -0.040 A 
HETATM    7  C   UNL     1     -43.165  56.402 -51.006  1.00  0.00     0.011 A 
HETATM    8  C   UNL     1     -42.543  55.167 -51.221  1.00  0.00     0.030 A 
HETATM    9  C   UNL     1     -42.493  54.612 -52.499  1.00  0.00     0.035 A 
HETATM   10  C   UNL     1     -43.099  55.300 -53.556  1.00  0.00     0.030 A 
HETATM   11  C   UNL     1     -43.721  56.536 -53.346  1.00  0.00     0.011 A 
BRANCH   9  12
HETATM   12  N   UNL     1     -41.841  53.403 -52.807  1.00  0.00    -0.321 N 
HETATM   13  C   UNL     1     -40.587  52.977 -52.406  1.00  0.00     0.279 C 
HETATM   14  O   UNL     1     -39.843  53.572 -51.635  1.00  0.00    -0.265 OA
HETATM   15  H   UNL     1     -42.318  52.770 -53.440  1.00  0.00     0.169 HD
BRANCH  13  16
HETATM   16  C   UNL     1     -40.209  51.712 -53.014  1.00  0.00     0.142 A 
HETATM   17  O   UNL     1     -39.752  50.689 -52.219  1.00  0.00    -0.317 OA
HETATM   18  C   UNL     1     -39.493  49.635 -53.035  1.00  0.00     0.143 A 
HETATM   19  C   UNL     1     -39.773  49.955 -54.343  1.00  0.00     0.027 A 
HETATM   20  C   UNL     1     -40.232  51.293 -54.331  1.00  0.00     0.045 A 
ENDBRANCH  13  16
ENDBRANCH   9  12
ENDBRANCH   5   6
ENDBRANCH   2   5
BRANCH   1  21
HETATM   21  C   UNL     1     -44.281  60.021 -54.436  1.00  0.00     0.278 C 
BRANCH  21  22
HETATM   22  O   UNL     1     -43.695  60.359 -55.686  1.00  0.00    -0.339 OA
BRANCH  22  23
HETATM   23  C   UNL     1     -43.524  59.346 -56.594  1.00  0.00     0.102 A 
HETATM   24  C   UNL     1     -42.311  59.353 -57.309  1.00  0.00     0.102 A 
HETATM   25  C   UNL     1     -42.064  58.381 -58.287  1.00  0.00     0.054 A 
HETATM   26  C   UNL     1     -43.016  57.389 -58.545  1.00  0.00     0.012 A 
HETATM   27  C   UNL     1     -44.213  57.375 -57.819  1.00  0.00     0.018 A 
HETATM   28  C   UNL     1     -44.469  58.352 -56.852  1.00  0.00     0.040 A 
BRANCH  24  29
HETATM   29  O   UNL     1     -41.436  60.372 -57.017  1.00  0.00    -0.353 OA
HETATM   30  C   UNL     1     -41.264  61.364 -58.021  1.00  0.00     0.210 C 
ENDBRANCH  24  29
BRANCH  26  31
HETATM   31  C   UNL     1     -42.807  56.337 -59.585  1.00  0.00     0.155 C 
HETATM   32  C   UNL     1     -43.811  55.222 -59.713  1.00  0.00     0.096 C 
HETATM   33  O   UNL     1     -41.823  56.395 -60.320  1.00  0.00    -0.293 OA
ENDBRANCH  26  31
ENDBRANCH  22  23
ENDBRANCH  21  22
ENDBRANCH   1  21
TORSDOF 9
ENDMDL
