MODEL 1
REMARK VINA RESULT:      -8.9      0.000      0.000
REMARK  4 active torsions:
REMARK  status: ('A' for Active; 'I' for Inactive)
REMARK    1  A    between atoms: C_2  and  C_3 
REMARK    2  A    between atoms: C_4  and  C_5 
REMARK       I    between atoms: C_5  and  N_6 
REMARK    3  A    between atoms: N_6  and  C_7 
REMARK    4  A    between atoms: C_14  and  C_15 
REMARK       I    between atoms: C_15  and  N_16 
ROOT
HETATM    1  C   UNL     1     -42.775  56.675 -55.949  1.00  0.00     0.035 A 
HETATM    2  C   UNL     1     -43.335  55.839 -56.925  1.00  0.00     0.046 A 
HETATM    3  C   UNL     1     -43.272  56.216 -58.286  1.00  0.00     0.030 A 
HETATM    4  C   UNL     1     -42.660  57.415 -58.622  1.00  0.00     0.063 A 
HETATM    5  N   UNL     1     -42.761  57.504 -59.983  1.00  0.00    -0.277 N 
HETATM    6  H   UNL     1     -42.423  58.254 -60.575  1.00  0.00     0.189 HD
HETATM    7  N   UNL     1     -43.381  56.465 -60.565  1.00  0.00    -0.168 NA
HETATM    8  C   UNL     1     -43.701  55.657 -59.528  1.00  0.00     0.156 A 
HETATM    9  C   UNL     1     -42.094  58.273 -57.679  1.00  0.00     0.034 A 
HETATM   10  C   UNL     1     -42.163  57.875 -56.337  1.00  0.00     0.032 A 
ENDROOT
BRANCH   1  11
HETATM   11  N   UNL     1     -42.781  56.382 -54.568  1.00  0.00    -0.327 N 
HETATM   12  C   UNL     1     -41.695  56.286 -53.727  1.00  0.00     0.227 C 
HETATM   13  O   UNL     1     -40.518  56.456 -54.010  1.00  0.00    -0.273 OA
HETATM   14  H   UNL     1     -43.687  56.223 -54.153  1.00  0.00     0.169 HD
BRANCH  12  15
HETATM   15  C   UNL     1     -42.030  56.004 -52.302  1.00  0.00     0.087 A 
HETATM   16  C   UNL     1     -41.614  54.704 -51.631  1.00  0.00     0.032 A 
HETATM   17  C   UNL     1     -43.077  55.035 -51.829  1.00  0.00     0.025 A 
BRANCH  16  18
HETATM   18  C   UNL     1     -41.034  53.522 -52.375  1.00  0.00    -0.053 A 
HETATM   19  C   UNL     1     -40.012  52.728 -51.828  1.00  0.00     0.009 A 
HETATM   20  C   UNL     1     -39.496  51.623 -52.513  1.00  0.00     0.024 A 
HETATM   21  C   UNL     1     -40.010  51.281 -53.759  1.00  0.00     0.034 A 
HETATM   22  C   UNL     1     -41.036  52.033 -54.321  1.00  0.00     0.024 A 
HETATM   23 CL   UNL     1     -39.384  49.920 -54.604  1.00  0.00    -0.084 Cl
HETATM   24  C   UNL     1     -41.542  53.139 -53.631  1.00  0.00     0.009 A 
ENDBRANCH  16  18
ENDBRANCH  12  15
ENDBRANCH   1  11
BRANCH   8  25
HETATM   25  C   UNL     1     -44.402  54.384 -59.744  1.00  0.00     0.270 C 
HETATM   26  N   UNL     1     -44.965  54.259 -60.985  1.00  0.00    -0.365 N 
HETATM   27  H   UNL     1     -44.867  55.024 -61.642  1.00  0.00     0.159 HD
HETATM   28  H   UNL     1     -45.470  53.420 -61.222  1.00  0.00     0.159 HD
HETATM   29  O   UNL     1     -44.496  53.486 -58.915  1.00  0.00    -0.266 OA
ENDBRANCH   8  25
TORSDOF 4
ENDMDL
MODEL 2
REMARK VINA RESULT:      -8.7      2.471      3.891
REMARK  4 active torsions:
REMARK  status: ('A' for Active; 'I' for Inactive)
REMARK    1  A    between atoms: C_2  and  C_3 
REMARK    2  A    between atoms: C_4  and  C_5 
REMARK       I    between atoms: C_5  and  N_6 
REMARK    3  A    between atoms: N_6  and  C_7 
REMARK    4  A    between atoms: C_14  and  C_15 
REMARK       I    between atoms: C_15  and  N_16 
ROOT
HETATM    1  C   UNL     1     -42.846  56.911 -52.065  1.00  0.00     0.035 A 
HETATM    2  C   UNL     1     -42.754  56.659 -53.440  1.00  0.00     0.046 A 
HETATM    3  C   UNL     1     -43.715  57.210 -54.317  1.00  0.00     0.030 A 
HETATM    4  C   UNL     1     -44.736  57.988 -53.789  1.00  0.00     0.063 A 
HETATM    5  N   UNL     1     -45.496  58.366 -54.861  1.00  0.00    -0.277 N 
HETATM    6  H   UNL     1     -46.331  58.941 -54.850  1.00  0.00     0.189 HD
HETATM    7  N   UNL     1     -45.058  57.906 -56.044  1.00  0.00    -0.168 NA
HETATM    8  C   UNL     1     -43.954  57.192 -55.725  1.00  0.00     0.156 A 
HETATM    9  C   UNL     1     -44.861  58.260 -52.426  1.00  0.00     0.034 A 
HETATM   10  C   UNL     1     -43.892  57.707 -51.578  1.00  0.00     0.032 A 
ENDROOT
BRANCH   1  11
HETATM   11  N   UNL     1     -41.931  56.412 -51.113  1.00  0.00    -0.327 N 
HETATM   12  C   UNL     1     -42.053  55.271 -50.352  1.00  0.00     0.227 C 
HETATM   13  O   UNL     1     -42.968  54.460 -50.368  1.00  0.00    -0.273 OA
HETATM   14  H   UNL     1     -41.092  56.956 -50.976  1.00  0.00     0.169 HD
BRANCH  12  15
HETATM   15  C   UNL     1     -40.892  54.984 -49.462  1.00  0.00     0.087 A 
HETATM   16  C   UNL     1     -39.806  53.999 -49.866  1.00  0.00     0.032 A 
HETATM   17  C   UNL     1     -40.692  53.722 -48.671  1.00  0.00     0.025 A 
BRANCH  16  18
HETATM   18  C   UNL     1     -39.906  53.084 -51.067  1.00  0.00    -0.053 A 
HETATM   19  C   UNL     1     -40.157  53.577 -52.358  1.00  0.00     0.009 A 
HETATM   20  C   UNL     1     -40.226  52.726 -53.467  1.00  0.00     0.024 A 
HETATM   21  C   UNL     1     -40.026  51.360 -53.303  1.00  0.00     0.034 A 
HETATM   22  C   UNL     1     -39.755  50.841 -52.042  1.00  0.00     0.024 A 
HETATM   23 CL   UNL     1     -40.104  50.310 -54.663  1.00  0.00    -0.084 Cl
HETATM   24  C   UNL     1     -39.693  51.698 -50.939  1.00  0.00     0.009 A 
ENDBRANCH  16  18
ENDBRANCH  12  15
ENDBRANCH   1  11
BRANCH   8  25
HETATM   25  C   UNL     1     -43.160  56.515 -56.760  1.00  0.00     0.270 C 
HETATM   26  N   UNL     1     -43.236  55.149 -56.718  1.00  0.00    -0.365 N 
HETATM   27  H   UNL     1     -43.808  54.716 -56.003  1.00  0.00     0.159 HD
HETATM   28  H   UNL     1     -42.722  54.600 -57.389  1.00  0.00     0.159 HD
HETATM   29  O   UNL     1     -42.480  57.084 -57.605  1.00  0.00    -0.266 OA
ENDBRANCH   8  25
TORSDOF 4
ENDMDL
MODEL 3
REMARK VINA RESULT:      -8.7      3.639      5.838
REMARK  4 active torsions:
REMARK  status: ('A' for Active; 'I' for Inactive)
REMARK    1  A    between atoms: C_2  and  C_3 
REMARK    2  A    between atoms: C_4  and  C_5 
REMARK       I    between atoms: C_5  and  N_6 
REMARK    3  A    between atoms: N_6  and  C_7 
REMARK    4  A    between atoms: C_14  and  C_15 
REMARK       I    between atoms: C_15  and  N_16 
ROOT
HETATM    1  C   UNL     1     -43.994  56.970 -54.731  1.00  0.00     0.035 A 
HETATM    2  C   UNL     1     -44.277  57.473 -53.453  1.00  0.00     0.046 A 
HETATM    3  C   UNL     1     -44.938  58.715 -53.323  1.00  0.00     0.030 A 
HETATM    4  C   UNL     1     -45.286  59.413 -54.470  1.00  0.00     0.063 A 
HETATM    5  N   UNL     1     -45.893  60.556 -54.029  1.00  0.00    -0.277 N 
HETATM    6  H   UNL     1     -46.275  61.306 -54.594  1.00  0.00     0.189 HD
HETATM    7  N   UNL     1     -45.976  60.663 -52.693  1.00  0.00    -0.168 NA
HETATM    8  C   UNL     1     -45.392  59.529 -52.241  1.00  0.00     0.156 A 
HETATM    9  C   UNL     1     -45.020  58.946 -55.758  1.00  0.00     0.034 A 
HETATM   10  C   UNL     1     -44.369  57.710 -55.862  1.00  0.00     0.032 A 
ENDROOT
BRANCH   1  11
HETATM   11  N   UNL     1     -43.345  55.739 -54.963  1.00  0.00    -0.327 N 
HETATM   12  C   UNL     1     -41.997  55.470 -54.869  1.00  0.00     0.227 C 
HETATM   13  O   UNL     1     -41.106  56.241 -54.545  1.00  0.00    -0.273 OA
HETATM   14  H   UNL     1     -43.939  54.968 -55.230  1.00  0.00     0.169 HD
BRANCH  12  15
HETATM   15  C   UNL     1     -41.621  54.052 -55.134  1.00  0.00     0.087 A 
HETATM   16  C   UNL     1     -41.362  53.074 -53.998  1.00  0.00     0.032 A 
HETATM   17  C   UNL     1     -40.250  53.466 -54.947  1.00  0.00     0.025 A 
BRANCH  16  18
HETATM   18  C   UNL     1     -41.250  53.482 -52.546  1.00  0.00    -0.053 A 
HETATM   19  C   UNL     1     -42.352  53.972 -51.825  1.00  0.00     0.009 A 
HETATM   20  C   UNL     1     -42.245  54.327 -50.476  1.00  0.00     0.024 A 
HETATM   21  C   UNL     1     -41.030  54.179 -49.816  1.00  0.00     0.034 A 
HETATM   22  C   UNL     1     -39.924  53.677 -50.495  1.00  0.00     0.024 A 
HETATM   23 CL   UNL     1     -40.894  54.608 -48.156  1.00  0.00    -0.084 Cl
HETATM   24  C   UNL     1     -40.039  53.330 -51.844  1.00  0.00     0.009 A 
ENDBRANCH  16  18
ENDBRANCH  12  15
ENDBRANCH   1  11
BRANCH   8  25
HETATM   25  C   UNL     1     -45.281  59.252 -50.802  1.00  0.00     0.270 C 
HETATM   26  N   UNL     1     -44.063  59.569 -50.264  1.00  0.00    -0.365 N 
HETATM   27  H   UNL     1     -43.349  59.954 -50.871  1.00  0.00     0.159 HD
HETATM   28  H   UNL     1     -43.894  59.410 -49.283  1.00  0.00     0.159 HD
HETATM   29  O   UNL     1     -46.175  58.783 -50.108  1.00  0.00    -0.266 OA
ENDBRANCH   8  25
TORSDOF 4
ENDMDL
MODEL 4
REMARK VINA RESULT:      -8.5      2.598      3.698
REMARK  4 active torsions:
REMARK  status: ('A' for Active; 'I' for Inactive)
REMARK    1  A    between atoms: C_2  and  C_3 
REMARK    2  A    between atoms: C_4  and  C_5 
REMARK       I    between atoms: C_5  and  N_6 
REMARK    3  A    between atoms: N_6  and  C_7 
REMARK    4  A    between atoms: C_14  and  C_15 
REMARK       I    between atoms: C_15  and  N_16 
ROOT
HETATM    1  C   UNL     1     -42.740  55.425 -56.359  1.00  0.00     0.035 A 
HETATM    2  C   UNL     1     -43.377  55.037 -57.546  1.00  0.00     0.046 A 
HETATM    3  C   UNL     1     -43.521  55.970 -58.598  1.00  0.00     0.030 A 
HETATM    4  C   UNL     1     -43.031  57.257 -58.425  1.00  0.00     0.063 A 
HETATM    5  N   UNL     1     -43.320  57.914 -59.589  1.00  0.00    -0.277 N 
HETATM    6  H   UNL     1     -43.109  58.879 -59.817  1.00  0.00     0.189 HD
HETATM    7  N   UNL     1     -43.951  57.167 -60.509  1.00  0.00    -0.168 NA
HETATM    8  C   UNL     1     -44.080  55.960 -59.912  1.00  0.00     0.156 A 
HETATM    9  C   UNL     1     -42.394  57.680 -57.258  1.00  0.00     0.034 A 
HETATM   10  C   UNL     1     -42.257  56.736 -56.232  1.00  0.00     0.032 A 
ENDROOT
BRANCH   1  11
HETATM   11  N   UNL     1     -42.543  54.565 -55.258  1.00  0.00    -0.327 N 
HETATM   12  C   UNL     1     -41.352  54.257 -54.638  1.00  0.00     0.227 C 
HETATM   13  O   UNL     1     -40.240  54.686 -54.909  1.00  0.00    -0.273 OA
HETATM   14  H   UNL     1     -43.370  54.125 -54.885  1.00  0.00     0.169 HD
BRANCH  12  15
HETATM   15  C   UNL     1     -41.474  53.345 -53.466  1.00  0.00     0.087 A 
HETATM   16  C   UNL     1     -41.930  53.855 -52.107  1.00  0.00     0.032 A 
HETATM   17  C   UNL     1     -40.533  53.303 -52.294  1.00  0.00     0.025 A 
BRANCH  16  18
HETATM   18  C   UNL     1     -42.088  55.321 -51.769  1.00  0.00    -0.053 A 
HETATM   19  C   UNL     1     -41.063  56.055 -51.149  1.00  0.00     0.009 A 
HETATM   20  C   UNL     1     -41.209  57.416 -50.859  1.00  0.00     0.024 A 
HETATM   21  C   UNL     1     -42.384  58.074 -51.205  1.00  0.00     0.034 A 
HETATM   22  C   UNL     1     -43.411  57.382 -51.838  1.00  0.00     0.024 A 
HETATM   23 CL   UNL     1     -42.567  59.748 -50.856  1.00  0.00    -0.084 Cl
HETATM   24  C   UNL     1     -43.258  56.021 -52.119  1.00  0.00     0.009 A 
ENDBRANCH  16  18
ENDBRANCH  12  15
ENDBRANCH   1  11
BRANCH   8  25
HETATM   25  C   UNL     1     -44.728  54.836 -60.602  1.00  0.00     0.270 C 
HETATM   26  N   UNL     1     -45.161  53.842 -59.767  1.00  0.00    -0.365 N 
HETATM   27  H   UNL     1     -45.010  53.944 -58.771  1.00  0.00     0.159 HD
HETATM   28  H   UNL     1     -45.615  53.029 -60.152  1.00  0.00     0.159 HD
HETATM   29  O   UNL     1     -44.887  54.757 -61.815  1.00  0.00    -0.266 OA
ENDBRANCH   8  25
TORSDOF 4
ENDMDL
MODEL 5
REMARK VINA RESULT:      -8.5      1.765      2.987
REMARK  4 active torsions:
REMARK  status: ('A' for Active; 'I' for Inactive)
REMARK    1  A    between atoms: C_2  and  C_3 
REMARK    2  A    between atoms: C_4  and  C_5 
REMARK       I    between atoms: C_5  and  N_6 
REMARK    3  A    between atoms: N_6  and  C_7 
REMARK    4  A    between atoms: C_14  and  C_15 
REMARK       I    between atoms: C_15  and  N_16 
ROOT
HETATM    1  C   UNL     1     -42.653  56.630 -56.009  1.00  0.00     0.035 A 
HETATM    2  C   UNL     1     -42.333  57.884 -56.546  1.00  0.00     0.046 A 
HETATM    3  C   UNL     1     -42.334  58.064 -57.948  1.00  0.00     0.030 A 
HETATM    4  C   UNL     1     -42.647  56.985 -58.762  1.00  0.00     0.063 A 
HETATM    5  N   UNL     1     -42.560  57.459 -60.042  1.00  0.00    -0.277 N 
HETATM    6  H   UNL     1     -42.721  56.943 -60.899  1.00  0.00     0.189 HD
HETATM    7  N   UNL     1     -42.221  58.755 -60.134  1.00  0.00    -0.168 NA
HETATM    8  C   UNL     1     -42.080  59.145 -58.846  1.00  0.00     0.156 A 
HETATM    9  C   UNL     1     -42.970  55.722 -58.264  1.00  0.00     0.034 A 
HETATM   10  C   UNL     1     -42.968  55.570 -56.871  1.00  0.00     0.032 A 
ENDROOT
BRANCH   1  11
HETATM   11  N   UNL     1     -42.686  56.355 -54.625  1.00  0.00    -0.327 N 
HETATM   12  C   UNL     1     -41.621  56.313 -53.753  1.00  0.00     0.227 C 
HETATM   13  O   UNL     1     -40.444  56.527 -54.005  1.00  0.00    -0.273 OA
HETATM   14  H   UNL     1     -43.596  56.165 -54.232  1.00  0.00     0.169 HD
BRANCH  12  15
HETATM   15  C   UNL     1     -41.984  56.037 -52.334  1.00  0.00     0.087 A 
HETATM   16  C   UNL     1     -41.597  54.731 -51.655  1.00  0.00     0.032 A 
HETATM   17  C   UNL     1     -43.052  55.082 -51.879  1.00  0.00     0.025 A 
BRANCH  16  18
HETATM   18  C   UNL     1     -41.020  53.541 -52.389  1.00  0.00    -0.053 A 
HETATM   19  C   UNL     1     -40.003  52.747 -51.833  1.00  0.00     0.009 A 
HETATM   20  C   UNL     1     -39.489  51.635 -52.509  1.00  0.00     0.024 A 
HETATM   21  C   UNL     1     -40.002  51.285 -53.753  1.00  0.00     0.034 A 
HETATM   22  C   UNL     1     -41.023  52.037 -54.324  1.00  0.00     0.024 A 
HETATM   23 CL   UNL     1     -39.379  49.916 -54.586  1.00  0.00    -0.084 Cl
HETATM   24  C   UNL     1     -41.527  53.150 -53.643  1.00  0.00     0.009 A 
ENDBRANCH  16  18
ENDBRANCH  12  15
ENDBRANCH   1  11
BRANCH   8  25
HETATM   25  C   UNL     1     -41.711  60.526 -58.505  1.00  0.00     0.270 C 
HETATM   26  N   UNL     1     -42.412  61.478 -59.194  1.00  0.00    -0.365 N 
HETATM   27  H   UNL     1     -43.107  61.177 -59.867  1.00  0.00     0.159 HD
HETATM   28  H   UNL     1     -42.224  62.454 -59.028  1.00  0.00     0.159 HD
HETATM   29  O   UNL     1     -40.859  60.840 -57.682  1.00  0.00    -0.266 OA
ENDBRANCH   8  25
TORSDOF 4
ENDMDL
MODEL 6
REMARK VINA RESULT:      -8.5      3.973      7.872
REMARK  4 active torsions:
REMARK  status: ('A' for Active; 'I' for Inactive)
REMARK    1  A    between atoms: C_2  and  C_3 
REMARK    2  A    between atoms: C_4  and  C_5 
REMARK       I    between atoms: C_5  and  N_6 
REMARK    3  A    between atoms: N_6  and  C_7 
REMARK    4  A    between atoms: C_14  and  C_15 
REMARK       I    between atoms: C_15  and  N_16 
ROOT
HETATM    1  C   UNL     1     -40.810  54.378 -54.176  1.00  0.00     0.035 A 
HETATM    2  C   UNL     1     -41.018  54.471 -52.794  1.00  0.00     0.046 A 
HETATM    3  C   UNL     1     -40.642  53.395 -51.957  1.00  0.00     0.030 A 
HETATM    4  C   UNL     1     -40.080  52.264 -52.532  1.00  0.00     0.063 A 
HETATM    5  N   UNL     1     -39.834  51.412 -51.491  1.00  0.00    -0.277 N 
HETATM    6  H   UNL     1     -39.427  50.485 -51.539  1.00  0.00     0.189 HD
HETATM    7  N   UNL     1     -40.183  51.891 -50.286  1.00  0.00    -0.168 NA
HETATM    8  C   UNL     1     -40.682  53.119 -50.557  1.00  0.00     0.156 A 
HETATM    9  C   UNL     1     -39.860  52.134 -53.904  1.00  0.00     0.034 A 
HETATM   10  C   UNL     1     -40.235  53.217 -54.711  1.00  0.00     0.032 A 
ENDROOT
BRANCH   1  11
HETATM   11  N   UNL     1     -41.144  55.401 -55.090  1.00  0.00    -0.327 N 
HETATM   12  C   UNL     1     -42.401  55.877 -55.392  1.00  0.00     0.227 C 
HETATM   13  O   UNL     1     -43.467  55.521 -54.912  1.00  0.00    -0.273 OA
HETATM   14  H   UNL     1     -40.372  55.829 -55.578  1.00  0.00     0.169 HD
BRANCH  12  15
HETATM   15  C   UNL     1     -42.426  57.000 -56.372  1.00  0.00     0.087 A 
HETATM   16  C   UNL     1     -42.198  58.439 -55.937  1.00  0.00     0.032 A 
HETATM   17  C   UNL     1     -43.530  58.010 -56.510  1.00  0.00     0.025 A 
BRANCH  16  18
HETATM   18  C   UNL     1     -42.142  58.881 -54.491  1.00  0.00    -0.053 A 
HETATM   19  C   UNL     1     -40.966  58.785 -53.729  1.00  0.00     0.009 A 
HETATM   20  C   UNL     1     -40.917  59.216 -52.399  1.00  0.00     0.024 A 
HETATM   21  C   UNL     1     -42.048  59.772 -51.811  1.00  0.00     0.034 A 
HETATM   22  C   UNL     1     -43.223  59.902 -52.543  1.00  0.00     0.024 A 
HETATM   23 CL   UNL     1     -41.993  60.310 -50.178  1.00  0.00    -0.084 Cl
HETATM   24  C   UNL     1     -43.264  59.463 -53.870  1.00  0.00     0.009 A 
ENDBRANCH  16  18
ENDBRANCH  12  15
ENDBRANCH   1  11
BRANCH   8  25
HETATM   25  C   UNL     1     -41.180  53.992 -49.485  1.00  0.00     0.270 C 
HETATM   26  N   UNL     1     -40.346  54.079 -48.403  1.00  0.00    -0.365 N 
HETATM   27  H   UNL     1     -39.479  53.556 -48.414  1.00  0.00     0.159 HD
HETATM   28  H   UNL     1     -40.607  54.653 -47.617  1.00  0.00     0.159 HD
HETATM   29  O   UNL     1     -42.240  54.606 -49.517  1.00  0.00    -0.266 OA
ENDBRANCH   8  25
TORSDOF 4
ENDMDL
MODEL 7
REMARK VINA RESULT:      -8.4      4.550      7.312
REMARK  4 active torsions:
REMARK  status: ('A' for Active; 'I' for Inactive)
REMARK    1  A    between atoms: C_2  and  C_3 
REMARK    2  A    between atoms: C_4  and  C_5 
REMARK       I    between atoms: C_5  and  N_6 
REMARK    3  A    between atoms: N_6  and  C_7 
REMARK    4  A    between atoms: C_14  and  C_15 
REMARK       I    between atoms: C_15  and  N_16 
ROOT
HETATM    1  C   UNL     1     -41.760  54.941 -53.669  1.00  0.00     0.035 A 
HETATM    2  C   UNL     1     -41.443  54.172 -52.541  1.00  0.00     0.046 A 
HETATM    3  C   UNL     1     -40.620  53.031 -52.682  1.00  0.00     0.030 A 
HETATM    4  C   UNL     1     -40.149  52.697 -53.944  1.00  0.00     0.063 A 
HETATM    5  N   UNL     1     -39.401  51.566 -53.764  1.00  0.00    -0.277 N 
HETATM    6  H   UNL     1     -38.905  51.039 -54.473  1.00  0.00     0.189 HD
HETATM    7  N   UNL     1     -39.339  51.136 -52.493  1.00  0.00    -0.168 NA
HETATM    8  C   UNL     1     -40.086  52.034 -51.811  1.00  0.00     0.156 A 
HETATM    9  C   UNL     1     -40.444  53.437 -55.090  1.00  0.00     0.034 A 
HETATM   10  C   UNL     1     -41.257  54.566 -54.923  1.00  0.00     0.032 A 
ENDROOT
BRANCH   1  11
HETATM   11  N   UNL     1     -42.566  56.098 -53.627  1.00  0.00    -0.327 N 
HETATM   12  C   UNL     1     -43.438  56.477 -52.631  1.00  0.00     0.227 C 
HETATM   13  O   UNL     1     -43.666  55.894 -51.581  1.00  0.00    -0.273 OA
HETATM   14  H   UNL     1     -42.495  56.717 -54.421  1.00  0.00     0.169 HD
BRANCH  12  15
HETATM   15  C   UNL     1     -44.119  57.784 -52.857  1.00  0.00     0.087 A 
HETATM   16  C   UNL     1     -43.387  59.103 -52.665  1.00  0.00     0.032 A 
HETATM   17  C   UNL     1     -44.557  58.735 -51.779  1.00  0.00     0.025 A 
BRANCH  16  18
HETATM   18  C   UNL     1     -42.015  59.221 -52.038  1.00  0.00    -0.053 A 
HETATM   19  C   UNL     1     -41.844  59.527 -50.677  1.00  0.00     0.009 A 
HETATM   20  C   UNL     1     -40.572  59.613 -50.100  1.00  0.00     0.024 A 
HETATM   21  C   UNL     1     -39.444  59.373 -50.876  1.00  0.00     0.034 A 
HETATM   22  C   UNL     1     -39.578  59.047 -52.222  1.00  0.00     0.024 A 
HETATM   23 CL   UNL     1     -37.878  59.471 -50.171  1.00  0.00    -0.084 Cl
HETATM   24  C   UNL     1     -40.853  58.969 -52.791  1.00  0.00     0.009 A 
ENDBRANCH  16  18
ENDBRANCH  12  15
ENDBRANCH   1  11
BRANCH   8  25
HETATM   25  C   UNL     1     -40.271  51.921 -50.357  1.00  0.00     0.270 C 
HETATM   26  N   UNL     1     -40.376  50.634 -49.905  1.00  0.00    -0.365 N 
HETATM   27  H   UNL     1     -40.324  49.878 -50.577  1.00  0.00     0.159 HD
HETATM   28  H   UNL     1     -40.508  50.460 -48.922  1.00  0.00     0.159 HD
HETATM   29  O   UNL     1     -40.329  52.870 -49.583  1.00  0.00    -0.266 OA
ENDBRANCH   8  25
TORSDOF 4
ENDMDL
MODEL 8
REMARK VINA RESULT:      -8.3      4.422      7.348
REMARK  4 active torsions:
REMARK  status: ('A' for Active; 'I' for Inactive)
REMARK    1  A    between atoms: C_2  and  C_3 
REMARK    2  A    between atoms: C_4  and  C_5 
REMARK       I    between atoms: C_5  and  N_6 
REMARK    3  A    between atoms: N_6  and  C_7 
REMARK    4  A    between atoms: C_14  and  C_15 
REMARK       I    between atoms: C_15  and  N_16 
ROOT
HETATM    1  C   UNL     1     -40.843  54.700 -52.957  1.00  0.00     0.035 A 
HETATM    2  C   UNL     1     -40.575  53.577 -52.162  1.00  0.00     0.046 A 
HETATM    3  C   UNL     1     -40.201  52.361 -52.776  1.00  0.00     0.030 A 
HETATM    4  C   UNL     1     -40.114  52.307 -54.160  1.00  0.00     0.063 A 
HETATM    5  N   UNL     1     -39.744  51.023 -54.451  1.00  0.00    -0.277 N 
HETATM    6  H   UNL     1     -39.588  50.622 -55.368  1.00  0.00     0.189 HD
HETATM    7  N   UNL     1     -39.577  50.235 -53.376  1.00  0.00    -0.168 NA
HETATM    8  C   UNL     1     -39.853  51.049 -52.332  1.00  0.00     0.156 A 
HETATM    9  C   UNL     1     -40.374  53.403 -54.984  1.00  0.00     0.034 A 
HETATM   10  C   UNL     1     -40.738  54.599 -54.352  1.00  0.00     0.032 A 
ENDROOT
BRANCH   1  11
HETATM   11  N   UNL     1     -41.216  55.958 -52.437  1.00  0.00    -0.327 N 
HETATM   12  C   UNL     1     -42.388  56.284 -51.791  1.00  0.00     0.227 C 
HETATM   13  O   UNL     1     -43.322  55.541 -51.525  1.00  0.00    -0.273 OA
HETATM   14  H   UNL     1     -40.546  56.703 -52.556  1.00  0.00     0.169 HD
BRANCH  12  15
HETATM   15  C   UNL     1     -42.470  57.695 -51.317  1.00  0.00     0.087 A 
HETATM   16  C   UNL     1     -43.099  58.784 -52.172  1.00  0.00     0.032 A 
HETATM   17  C   UNL     1     -41.628  58.833 -51.822  1.00  0.00     0.025 A 
BRANCH  16  18
HETATM   18  C   UNL     1     -43.490  58.595 -53.622  1.00  0.00    -0.053 A 
HETATM   19  C   UNL     1     -42.549  58.679 -54.662  1.00  0.00     0.009 A 
HETATM   20  C   UNL     1     -42.915  58.481 -55.998  1.00  0.00     0.024 A 
HETATM   21  C   UNL     1     -44.234  58.176 -56.315  1.00  0.00     0.034 A 
HETATM   22  C   UNL     1     -45.187  58.064 -55.308  1.00  0.00     0.024 A 
HETATM   23 CL   UNL     1     -44.689  57.926 -57.955  1.00  0.00    -0.084 Cl
HETATM   24  C   UNL     1     -44.813  58.269 -53.976  1.00  0.00     0.009 A 
ENDBRANCH  16  18
ENDBRANCH  12  15
ENDBRANCH   1  11
BRANCH   8  25
HETATM   25  C   UNL     1     -39.780  50.561 -50.947  1.00  0.00     0.270 C 
HETATM   26  N   UNL     1     -39.039  49.421 -50.795  1.00  0.00    -0.365 N 
HETATM   27  H   UNL     1     -38.612  49.006 -51.615  1.00  0.00     0.159 HD
HETATM   28  H   UNL     1     -38.936  49.011 -49.880  1.00  0.00     0.159 HD
HETATM   29  O   UNL     1     -40.317  51.099 -49.986  1.00  0.00    -0.266 OA
ENDBRANCH   8  25
TORSDOF 4
ENDMDL
MODEL 9
REMARK VINA RESULT:      -8.3      3.899      7.392
REMARK  4 active torsions:
REMARK  status: ('A' for Active; 'I' for Inactive)
REMARK    1  A    between atoms: C_2  and  C_3 
REMARK    2  A    between atoms: C_4  and  C_5 
REMARK       I    between atoms: C_5  and  N_6 
REMARK    3  A    between atoms: N_6  and  C_7 
REMARK    4  A    between atoms: C_14  and  C_15 
REMARK       I    between atoms: C_15  and  N_16 
ROOT
HETATM    1  C   UNL     1     -41.416  55.298 -53.572  1.00  0.00     0.035 A 
HETATM    2  C   UNL     1     -41.187  54.444 -52.485  1.00  0.00     0.046 A 
HETATM    3  C   UNL     1     -40.491  53.230 -52.685  1.00  0.00     0.030 A 
HETATM    4  C   UNL     1     -40.055  52.910 -53.963  1.00  0.00     0.063 A 
HETATM    5  N   UNL     1     -39.434  51.698 -53.841  1.00  0.00    -0.277 N 
HETATM    6  H   UNL     1     -38.995  51.157 -54.578  1.00  0.00     0.189 HD
HETATM    7  N   UNL     1     -39.422  51.201 -52.594  1.00  0.00    -0.168 NA
HETATM    8  C   UNL     1     -40.070  52.139 -51.866  1.00  0.00     0.156 A 
HETATM    9  C   UNL     1     -40.266  53.734 -55.069  1.00  0.00     0.034 A 
HETATM   10  C   UNL     1     -40.953  54.934 -54.844  1.00  0.00     0.032 A 
ENDROOT
BRANCH   1  11
HETATM   11  N   UNL     1     -42.094  56.532 -53.470  1.00  0.00    -0.327 N 
HETATM   12  C   UNL     1     -41.539  57.791 -53.419  1.00  0.00     0.227 C 
HETATM   13  O   UNL     1     -40.353  58.084 -53.473  1.00  0.00    -0.273 OA
HETATM   14  H   UNL     1     -43.101  56.483 -53.429  1.00  0.00     0.169 HD
BRANCH  12  15
HETATM   15  C   UNL     1     -42.524  58.908 -53.357  1.00  0.00     0.087 A 
HETATM   16  C   UNL     1     -43.257  59.390 -54.599  1.00  0.00     0.032 A 
HETATM   17  C   UNL     1     -42.293  60.301 -53.870  1.00  0.00     0.025 A 
BRANCH  16  18
HETATM   18  C   UNL     1     -42.911  58.949 -56.004  1.00  0.00    -0.053 A 
HETATM   19  C   UNL     1     -42.084  59.717 -56.841  1.00  0.00     0.009 A 
HETATM   20  C   UNL     1     -41.751  59.291 -58.132  1.00  0.00     0.024 A 
HETATM   21  C   UNL     1     -42.228  58.072 -58.602  1.00  0.00     0.034 A 
HETATM   22  C   UNL     1     -43.032  57.278 -57.792  1.00  0.00     0.024 A 
HETATM   23 CL   UNL     1     -41.818  57.541 -60.185  1.00  0.00    -0.084 Cl
HETATM   24  C   UNL     1     -43.364  57.714 -56.505  1.00  0.00     0.009 A 
ENDBRANCH  16  18
ENDBRANCH  12  15
ENDBRANCH   1  11
BRANCH   8  25
HETATM   25  C   UNL     1     -40.271  51.974 -50.419  1.00  0.00     0.270 C 
HETATM   26  N   UNL     1     -40.351  50.670 -50.011  1.00  0.00    -0.365 N 
HETATM   27  H   UNL     1     -40.273  49.938 -50.707  1.00  0.00     0.159 HD
HETATM   28  H   UNL     1     -40.492  50.461 -49.035  1.00  0.00     0.159 HD
HETATM   29  O   UNL     1     -40.361  52.895 -49.615  1.00  0.00    -0.266 OA
ENDBRANCH   8  25
TORSDOF 4
ENDMDL
MODEL 10
REMARK VINA RESULT:      -8.1      2.633      3.061
REMARK  4 active torsions:
REMARK  status: ('A' for Active; 'I' for Inactive)
REMARK    1  A    between atoms: C_2  and  C_3 
REMARK    2  A    between atoms: C_4  and  C_5 
REMARK       I    between atoms: C_5  and  N_6 
REMARK    3  A    between atoms: N_6  and  C_7 
REMARK    4  A    between atoms: C_14  and  C_15 
REMARK       I    between atoms: C_15  and  N_16 
ROOT
HETATM    1  C   UNL     1     -43.381  57.095 -56.548  1.00  0.00     0.035 A 
HETATM    2  C   UNL     1     -44.441  57.862 -57.050  1.00  0.00     0.046 A 
HETATM    3  C   UNL     1     -44.985  57.556 -58.318  1.00  0.00     0.030 A 
HETATM    4  C   UNL     1     -44.447  56.502 -59.042  1.00  0.00     0.063 A 
HETATM    5  N   UNL     1     -45.164  56.458 -60.206  1.00  0.00    -0.277 N 
HETATM    6  H   UNL     1     -45.043  55.811 -60.976  1.00  0.00     0.189 HD
HETATM    7  N   UNL     1     -46.126  57.389 -60.303  1.00  0.00    -0.168 NA
HETATM    8  C   UNL     1     -46.030  58.076 -59.140  1.00  0.00     0.156 A 
HETATM    9  C   UNL     1     -43.391  55.717 -58.576  1.00  0.00     0.034 A 
HETATM   10  C   UNL     1     -42.873  56.036 -57.314  1.00  0.00     0.032 A 
ENDROOT
BRANCH   1  11
HETATM   11  N   UNL     1     -42.777  57.318 -55.292  1.00  0.00    -0.327 N 
HETATM   12  C   UNL     1     -43.133  56.765 -54.082  1.00  0.00     0.227 C 
HETATM   13  O   UNL     1     -44.025  55.958 -53.866  1.00  0.00    -0.273 OA
HETATM   14  H   UNL     1     -41.998  57.958 -55.282  1.00  0.00     0.169 HD
BRANCH  12  15
HETATM   15  C   UNL     1     -42.270  57.165 -52.933  1.00  0.00     0.087 A 
HETATM   16  C   UNL     1     -41.097  56.306 -52.486  1.00  0.00     0.032 A 
HETATM   17  C   UNL     1     -42.283  56.527 -51.572  1.00  0.00     0.025 A 
BRANCH  16  18
HETATM   18  C   UNL     1     -40.832  54.909 -53.001  1.00  0.00    -0.053 A 
HETATM   19  C   UNL     1     -40.509  54.663 -54.346  1.00  0.00     0.009 A 
HETATM   20  C   UNL     1     -40.244  53.369 -54.811  1.00  0.00     0.024 A 
HETATM   21  C   UNL     1     -40.279  52.297 -53.926  1.00  0.00     0.034 A 
HETATM   22  C   UNL     1     -40.575  52.508 -52.584  1.00  0.00     0.024 A 
HETATM   23 CL   UNL     1     -39.949  50.706 -54.490  1.00  0.00    -0.084 Cl
HETATM   24  C   UNL     1     -40.844  53.803 -52.130  1.00  0.00     0.009 A 
ENDBRANCH  16  18
ENDBRANCH  12  15
ENDBRANCH   1  11
BRANCH   8  25
HETATM   25  C   UNL     1     -46.930  59.200 -58.845  1.00  0.00     0.270 C 
HETATM   26  N   UNL     1     -47.664  59.042 -57.701  1.00  0.00    -0.365 N 
HETATM   27  H   UNL     1     -47.543  58.195 -57.159  1.00  0.00     0.159 HD
HETATM   28  H   UNL     1     -48.310  59.762 -57.420  1.00  0.00     0.159 HD
HETATM   29  O   UNL     1     -47.042  60.207 -59.534  1.00  0.00    -0.266 OA
ENDBRANCH   8  25
TORSDOF 4
ENDMDL
