MODEL 1
REMARK VINA RESULT:      -8.4      0.000      0.000
REMARK  7 active torsions:
REMARK  status: ('A' for Active; 'I' for Inactive)
REMARK    1  A    between atoms: C_2  and  O_3 
REMARK    2  A    between atoms: O_3  and  C_4 
REMARK    3  A    between atoms: C_5  and  N_6 
REMARK       I    between atoms: N_6  and  C_7 
REMARK    4  A    between atoms: C_7  and  C_8 
REMARK    5  A    between atoms: C_8  and  S_9 
REMARK    6  A    between atoms: S_9  and  C_10 
REMARK    7  A    between atoms: N_11  and  C_12 
ROOT
HETATM    1  C   UNL     1     -42.725  57.004 -56.482  1.00  0.00     0.177 A 
HETATM    2  N   UNL     1     -42.530  58.388 -56.273  1.00  0.00    -0.276 N 
HETATM    3  C   UNL     1     -42.269  59.209 -57.432  1.00  0.00     0.124 A 
HETATM    4  N   UNL     1     -41.990  60.497 -57.357  1.00  0.00    -0.384 N 
HETATM    5  H   UNL     1     -41.790  61.034 -58.187  1.00  0.00     0.157 HD
HETATM    6  H   UNL     1     -41.952  60.956 -56.457  1.00  0.00     0.157 HD
HETATM    7  C   UNL     1     -42.278  58.544 -58.695  1.00  0.00     0.081 A 
HETATM    8  C   UNL     1     -42.482  57.169 -58.723  1.00  0.00     0.187 A 
HETATM    9  N   UNL     1     -42.460  56.678 -59.954  1.00  0.00    -0.153 NA
HETATM   10  N   UNL     1     -42.250  57.764 -60.720  1.00  0.00    -0.280 N 
HETATM   11  H   UNL     1     -42.205  57.633 -61.727  1.00  0.00     0.189 HD
HETATM   12  C   UNL     1     -42.113  58.935 -60.005  1.00  0.00     0.042 A 
HETATM   13  C   UNL     1     -41.852  60.229 -60.673  1.00  0.00     0.071 C 
HETATM   14  N   UNL     1     -42.682  56.360 -57.612  1.00  0.00    -0.202 NA
ENDROOT
BRANCH   1  15
HETATM   15  S   UNL     1     -43.028  55.946 -55.074  1.00  0.00    -0.082 SA
BRANCH  15  16
HETATM   16  C   UNL     1     -41.329  55.414 -54.719  1.00  0.00     0.185 C 
BRANCH  16  17
HETATM   17  C   UNL     1     -41.329  54.147 -53.880  1.00  0.00     0.232 C 
HETATM   18  N   UNL     1     -40.099  53.503 -53.874  1.00  0.00    -0.324 N 
HETATM   19  H   UNL     1     -39.283  54.101 -53.843  1.00  0.00     0.169 HD
HETATM   20  O   UNL     1     -42.308  53.787 -53.227  1.00  0.00    -0.272 OA
BRANCH  18  21
HETATM   21  C   UNL     1     -39.934  52.174 -53.432  1.00  0.00     0.068 A 
HETATM   22  C   UNL     1     -39.541  51.856 -52.120  1.00  0.00     0.095 A 
HETATM   23  C   UNL     1     -39.416  50.520 -51.730  1.00  0.00     0.039 A 
HETATM   24  C   UNL     1     -39.668  49.498 -52.648  1.00  0.00     0.003 A 
HETATM   25  C   UNL     1     -40.088  49.808 -53.941  1.00  0.00     0.002 A 
HETATM   26  C   UNL     1     -40.241  51.142 -54.326  1.00  0.00     0.032 A 
BRANCH  22  27
HETATM   27  O   UNL     1     -39.511  52.844 -51.165  1.00  0.00    -0.349 OA
BRANCH  27  28
HETATM   28  C   UNL     1     -40.541  52.717 -50.182  1.00  0.00     0.171 C 
HETATM   29  C   UNL     1     -40.371  53.788 -49.122  1.00  0.00     0.034 C 
ENDBRANCH  27  28
ENDBRANCH  22  27
ENDBRANCH  18  21
ENDBRANCH  16  17
ENDBRANCH  15  16
ENDBRANCH   1  15
BRANCH   2  30
HETATM   30  C   UNL     1     -42.597  58.979 -54.977  1.00  0.00     0.043 A 
HETATM   31  C   UNL     1     -43.821  59.410 -54.443  1.00  0.00     0.031 A 
HETATM   32  C   UNL     1     -43.888  59.918 -53.143  1.00  0.00     0.021 A 
HETATM   33  C   UNL     1     -42.732  59.983 -52.365  1.00  0.00     0.011 A 
HETATM   34 BR   UNL     1     -42.826  60.654 -50.602  1.00  0.00    -0.051 Br
HETATM   35  C   UNL     1     -41.511  59.551 -52.878  1.00  0.00     0.021 A 
HETATM   36  C   UNL     1     -41.444  59.051 -54.181  1.00  0.00     0.031 A 
ENDBRANCH   2  30
TORSDOF 7
ENDMDL
MODEL 2
REMARK VINA RESULT:      -8.2      2.669      8.137
REMARK  7 active torsions:
REMARK  status: ('A' for Active; 'I' for Inactive)
REMARK    1  A    between atoms: C_2  and  O_3 
REMARK    2  A    between atoms: O_3  and  C_4 
REMARK    3  A    between atoms: C_5  and  N_6 
REMARK       I    between atoms: N_6  and  C_7 
REMARK    4  A    between atoms: C_7  and  C_8 
REMARK    5  A    between atoms: C_8  and  S_9 
REMARK    6  A    between atoms: S_9  and  C_10 
REMARK    7  A    between atoms: N_11  and  C_12 
ROOT
HETATM    1  C   UNL     1     -41.006  55.251 -53.657  1.00  0.00     0.177 A 
HETATM    2  N   UNL     1     -41.354  55.428 -52.299  1.00  0.00    -0.276 N 
HETATM    3  C   UNL     1     -41.153  54.312 -51.406  1.00  0.00     0.124 A 
HETATM    4  N   UNL     1     -41.515  54.327 -50.137  1.00  0.00    -0.384 N 
HETATM    5  H   UNL     1     -41.380  53.519 -49.548  1.00  0.00     0.157 HD
HETATM    6  H   UNL     1     -41.955  55.149 -49.745  1.00  0.00     0.157 HD
HETATM    7  C   UNL     1     -40.574  53.139 -51.978  1.00  0.00     0.081 A 
HETATM    8  C   UNL     1     -40.294  53.130 -53.340  1.00  0.00     0.187 A 
HETATM    9  N   UNL     1     -39.767  51.981 -53.741  1.00  0.00    -0.153 NA
HETATM   10  N   UNL     1     -39.701  51.255 -52.611  1.00  0.00    -0.280 N 
HETATM   11  H   UNL     1     -39.311  50.319 -52.670  1.00  0.00     0.189 HD
HETATM   12  C   UNL     1     -40.196  51.904 -51.499  1.00  0.00     0.042 A 
HETATM   13  C   UNL     1     -40.230  51.256 -50.170  1.00  0.00     0.071 C 
HETATM   14  N   UNL     1     -40.531  54.177 -54.220  1.00  0.00    -0.202 NA
ENDROOT
BRANCH   1  15
HETATM   15  S   UNL     1     -41.259  56.599 -54.804  1.00  0.00    -0.082 SA
BRANCH  15  16
HETATM   16  C   UNL     1     -42.799  56.046 -55.590  1.00  0.00     0.185 C 
BRANCH  16  17
HETATM   17  C   UNL     1     -43.117  56.903 -56.805  1.00  0.00     0.232 C 
HETATM   18  N   UNL     1     -42.007  57.141 -57.605  1.00  0.00    -0.324 N 
HETATM   19  H   UNL     1     -41.366  56.366 -57.716  1.00  0.00     0.169 HD
HETATM   20  O   UNL     1     -44.260  57.278 -57.068  1.00  0.00    -0.272 OA
BRANCH  18  21
HETATM   21  C   UNL     1     -41.981  58.142 -58.597  1.00  0.00     0.068 A 
HETATM   22  C   UNL     1     -42.105  57.852 -59.967  1.00  0.00     0.095 A 
HETATM   23  C   UNL     1     -42.095  58.888 -60.906  1.00  0.00     0.039 A 
HETATM   24  C   UNL     1     -41.947  60.211 -60.485  1.00  0.00     0.003 A 
HETATM   25  C   UNL     1     -41.855  60.505 -59.125  1.00  0.00     0.002 A 
HETATM   26  C   UNL     1     -41.892  59.475 -58.182  1.00  0.00     0.032 A 
BRANCH  22  27
HETATM   27  O   UNL     1     -42.470  56.587 -60.361  1.00  0.00    -0.349 OA
BRANCH  27  28
HETATM   28  C   UNL     1     -43.885  56.407 -60.453  1.00  0.00     0.171 C 
HETATM   29  C   UNL     1     -44.262  55.038 -59.917  1.00  0.00     0.034 C 
ENDBRANCH  27  28
ENDBRANCH  22  27
ENDBRANCH  18  21
ENDBRANCH  16  17
ENDBRANCH  15  16
ENDBRANCH   1  15
BRANCH   2  30
HETATM   30  C   UNL     1     -41.873  56.659 -51.801  1.00  0.00     0.043 A 
HETATM   31  C   UNL     1     -41.017  57.664 -51.325  1.00  0.00     0.031 A 
HETATM   32  C   UNL     1     -41.531  58.896 -50.911  1.00  0.00     0.021 A 
HETATM   33  C   UNL     1     -42.903  59.133 -50.984  1.00  0.00     0.011 A 
HETATM   34 BR   UNL     1     -43.596  60.803 -50.439  1.00  0.00    -0.051 Br
HETATM   35  C   UNL     1     -43.765  58.149 -51.462  1.00  0.00     0.021 A 
HETATM   36  C   UNL     1     -43.252  56.915 -51.869  1.00  0.00     0.031 A 
ENDBRANCH   2  30
TORSDOF 7
ENDMDL
MODEL 3
REMARK VINA RESULT:      -8.1      2.554      3.604
REMARK  7 active torsions:
REMARK  status: ('A' for Active; 'I' for Inactive)
REMARK    1  A    between atoms: C_2  and  O_3 
REMARK    2  A    between atoms: O_3  and  C_4 
REMARK    3  A    between atoms: C_5  and  N_6 
REMARK       I    between atoms: N_6  and  C_7 
REMARK    4  A    between atoms: C_7  and  C_8 
REMARK    5  A    between atoms: C_8  and  S_9 
REMARK    6  A    between atoms: S_9  and  C_10 
REMARK    7  A    between atoms: N_11  and  C_12 
ROOT
HETATM    1  C   UNL     1     -43.619  56.795 -57.865  1.00  0.00     0.177 A 
HETATM    2  N   UNL     1     -44.729  57.638 -57.632  1.00  0.00    -0.276 N 
HETATM    3  C   UNL     1     -45.790  57.633 -58.610  1.00  0.00     0.124 A 
HETATM    4  N   UNL     1     -46.837  58.434 -58.546  1.00  0.00    -0.384 N 
HETATM    5  H   UNL     1     -47.548  58.419 -59.261  1.00  0.00     0.157 HD
HETATM    6  H   UNL     1     -46.924  59.094 -57.785  1.00  0.00     0.157 HD
HETATM    7  C   UNL     1     -45.637  56.732 -59.707  1.00  0.00     0.081 A 
HETATM    8  C   UNL     1     -44.475  55.972 -59.788  1.00  0.00     0.187 A 
HETATM    9  N   UNL     1     -44.457  55.185 -60.855  1.00  0.00    -0.153 NA
HETATM   10  N   UNL     1     -45.634  55.443 -61.453  1.00  0.00    -0.280 N 
HETATM   11  H   UNL     1     -45.853  54.936 -62.306  1.00  0.00     0.189 HD
HETATM   12  C   UNL     1     -46.394  56.395 -60.807  1.00  0.00     0.042 A 
HETATM   13  C   UNL     1     -47.708  56.828 -61.330  1.00  0.00     0.071 C 
HETATM   14  N   UNL     1     -43.423  56.007 -58.882  1.00  0.00    -0.202 NA
ENDROOT
BRANCH   1  15
HETATM   15  S   UNL     1     -42.271  56.787 -56.692  1.00  0.00    -0.082 SA
BRANCH  15  16
HETATM   16  C   UNL     1     -42.493  55.132 -55.981  1.00  0.00     0.185 C 
BRANCH  16  17
HETATM   17  C   UNL     1     -41.486  54.887 -54.869  1.00  0.00     0.232 C 
HETATM   18  N   UNL     1     -41.900  53.914 -53.969  1.00  0.00    -0.324 N 
HETATM   19  H   UNL     1     -42.383  53.118 -54.366  1.00  0.00     0.169 HD
HETATM   20  O   UNL     1     -40.394  55.454 -54.830  1.00  0.00    -0.272 OA
BRANCH  18  21
HETATM   21  C   UNL     1     -41.297  53.733 -52.707  1.00  0.00     0.068 A 
HETATM   22  C   UNL     1     -40.312  52.758 -52.473  1.00  0.00     0.095 A 
HETATM   23  C   UNL     1     -39.731  52.638 -51.208  1.00  0.00     0.039 A 
HETATM   24  C   UNL     1     -40.139  53.479 -50.170  1.00  0.00     0.003 A 
HETATM   25  C   UNL     1     -41.092  54.468 -50.406  1.00  0.00     0.002 A 
HETATM   26  C   UNL     1     -41.656  54.609 -51.677  1.00  0.00     0.032 A 
BRANCH  22  27
HETATM   27  O   UNL     1     -39.757  52.087 -53.537  1.00  0.00    -0.349 OA
BRANCH  27  28
HETATM   28  C   UNL     1     -39.609  50.684 -53.309  1.00  0.00     0.171 C 
HETATM   29  C   UNL     1     -40.049  49.917 -54.542  1.00  0.00     0.034 C 
ENDBRANCH  27  28
ENDBRANCH  22  27
ENDBRANCH  18  21
ENDBRANCH  16  17
ENDBRANCH  15  16
ENDBRANCH   1  15
BRANCH   2  30
HETATM   30  C   UNL     1     -44.827  58.465 -56.474  1.00  0.00     0.043 A 
HETATM   31  C   UNL     1     -45.240  57.935 -55.242  1.00  0.00     0.031 A 
HETATM   32  C   UNL     1     -45.259  58.735 -54.096  1.00  0.00     0.021 A 
HETATM   33  C   UNL     1     -44.851  60.066 -54.176  1.00  0.00     0.011 A 
HETATM   34 BR   UNL     1     -44.862  61.144 -52.624  1.00  0.00    -0.051 Br
HETATM   35  C   UNL     1     -44.431  60.605 -55.390  1.00  0.00     0.021 A 
HETATM   36  C   UNL     1     -44.419  59.807 -56.536  1.00  0.00     0.031 A 
ENDBRANCH   2  30
TORSDOF 7
ENDMDL
MODEL 4
REMARK VINA RESULT:      -8.0      2.564      3.033
REMARK  7 active torsions:
REMARK  status: ('A' for Active; 'I' for Inactive)
REMARK    1  A    between atoms: C_2  and  O_3 
REMARK    2  A    between atoms: O_3  and  C_4 
REMARK    3  A    between atoms: C_5  and  N_6 
REMARK       I    between atoms: N_6  and  C_7 
REMARK    4  A    between atoms: C_7  and  C_8 
REMARK    5  A    between atoms: C_8  and  S_9 
REMARK    6  A    between atoms: S_9  and  C_10 
REMARK    7  A    between atoms: N_11  and  C_12 
ROOT
HETATM    1  C   UNL     1     -43.597  56.879 -57.791  1.00  0.00     0.177 A 
HETATM    2  N   UNL     1     -44.708  57.734 -57.613  1.00  0.00    -0.276 N 
HETATM    3  C   UNL     1     -45.758  57.682 -58.603  1.00  0.00     0.124 A 
HETATM    4  N   UNL     1     -46.803  58.487 -58.591  1.00  0.00    -0.384 N 
HETATM    5  H   UNL     1     -47.506  58.437 -59.313  1.00  0.00     0.157 HD
HETATM    6  H   UNL     1     -46.899  59.183 -57.863  1.00  0.00     0.157 HD
HETATM    7  C   UNL     1     -45.593  56.729 -59.653  1.00  0.00     0.081 A 
HETATM    8  C   UNL     1     -44.431  55.965 -59.682  1.00  0.00     0.187 A 
HETATM    9  N   UNL     1     -44.402  55.126 -60.709  1.00  0.00    -0.153 NA
HETATM   10  N   UNL     1     -45.571  55.356 -61.334  1.00  0.00    -0.280 N 
HETATM   11  H   UNL     1     -45.781  54.809 -62.164  1.00  0.00     0.189 HD
HETATM   12  C   UNL     1     -46.337  56.339 -60.743  1.00  0.00     0.042 A 
HETATM   13  C   UNL     1     -47.644  56.748 -61.303  1.00  0.00     0.071 C 
HETATM   14  N   UNL     1     -43.390  56.042 -58.767  1.00  0.00    -0.202 NA
ENDROOT
BRANCH   1  15
HETATM   15  S   UNL     1     -42.263  56.927 -56.603  1.00  0.00    -0.082 SA
BRANCH  15  16
HETATM   16  C   UNL     1     -42.792  55.591 -55.495  1.00  0.00     0.185 C 
BRANCH  16  17
HETATM   17  C   UNL     1     -41.588  54.838 -54.951  1.00  0.00     0.232 C 
HETATM   18  N   UNL     1     -41.922  53.605 -54.407  1.00  0.00    -0.324 N 
HETATM   19  H   UNL     1     -42.637  53.082 -54.896  1.00  0.00     0.169 HD
HETATM   20  O   UNL     1     -40.439  55.266 -55.056  1.00  0.00    -0.272 OA
BRANCH  18  21
HETATM   21  C   UNL     1     -41.047  52.873 -53.578  1.00  0.00     0.068 A 
HETATM   22  C   UNL     1     -40.885  53.157 -52.211  1.00  0.00     0.095 A 
HETATM   23  C   UNL     1     -40.020  52.384 -51.432  1.00  0.00     0.039 A 
HETATM   24  C   UNL     1     -39.304  51.335 -52.015  1.00  0.00     0.003 A 
HETATM   25  C   UNL     1     -39.486  51.031 -53.363  1.00  0.00     0.002 A 
HETATM   26  C   UNL     1     -40.370  51.785 -54.139  1.00  0.00     0.032 A 
BRANCH  22  27
HETATM   27  O   UNL     1     -41.745  54.035 -51.596  1.00  0.00    -0.349 OA
BRANCH  27  28
HETATM   28  C   UNL     1     -41.129  55.272 -51.229  1.00  0.00     0.171 C 
HETATM   29  C   UNL     1     -41.541  55.648 -49.818  1.00  0.00     0.034 C 
ENDBRANCH  27  28
ENDBRANCH  22  27
ENDBRANCH  18  21
ENDBRANCH  16  17
ENDBRANCH  15  16
ENDBRANCH   1  15
BRANCH   2  30
HETATM   30  C   UNL     1     -44.818  58.616 -56.498  1.00  0.00     0.043 A 
HETATM   31  C   UNL     1     -45.315  58.163 -55.266  1.00  0.00     0.031 A 
HETATM   32  C   UNL     1     -45.347  59.015 -54.158  1.00  0.00     0.021 A 
HETATM   33  C   UNL     1     -44.870  60.320 -54.275  1.00  0.00     0.011 A 
HETATM   34 BR   UNL     1     -44.900  61.466 -52.774  1.00  0.00    -0.051 Br
HETATM   35  C   UNL     1     -44.368  60.783 -55.489  1.00  0.00     0.021 A 
HETATM   36  C   UNL     1     -44.342  59.933 -56.598  1.00  0.00     0.031 A 
ENDBRANCH   2  30
TORSDOF 7
ENDMDL
MODEL 5
REMARK VINA RESULT:      -7.9      2.789      3.977
REMARK  7 active torsions:
REMARK  status: ('A' for Active; 'I' for Inactive)
REMARK    1  A    between atoms: C_2  and  O_3 
REMARK    2  A    between atoms: O_3  and  C_4 
REMARK    3  A    between atoms: C_5  and  N_6 
REMARK       I    between atoms: N_6  and  C_7 
REMARK    4  A    between atoms: C_7  and  C_8 
REMARK    5  A    between atoms: C_8  and  S_9 
REMARK    6  A    between atoms: S_9  and  C_10 
REMARK    7  A    between atoms: N_11  and  C_12 
ROOT
HETATM    1  C   UNL     1     -43.278  57.992 -53.227  1.00  0.00     0.177 A 
HETATM    2  N   UNL     1     -44.197  59.047 -53.031  1.00  0.00    -0.276 N 
HETATM    3  C   UNL     1     -45.029  59.425 -54.148  1.00  0.00     0.124 A 
HETATM    4  N   UNL     1     -45.865  60.445 -54.115  1.00  0.00    -0.384 N 
HETATM    5  H   UNL     1     -46.414  60.695 -54.923  1.00  0.00     0.157 HD
HETATM    6  H   UNL     1     -45.947  61.006 -53.277  1.00  0.00     0.157 HD
HETATM    7  C   UNL     1     -44.874  58.658 -55.343  1.00  0.00     0.081 A 
HETATM    8  C   UNL     1     -43.915  57.651 -55.368  1.00  0.00     0.187 A 
HETATM    9  N   UNL     1     -43.870  57.023 -56.535  1.00  0.00    -0.153 NA
HETATM   10  N   UNL     1     -44.826  57.636 -57.257  1.00  0.00    -0.280 N 
HETATM   11  H   UNL     1     -44.986  57.309 -58.206  1.00  0.00     0.189 HD
HETATM   12  C   UNL     1     -45.465  58.658 -56.586  1.00  0.00     0.042 A 
HETATM   13  C   UNL     1     -46.528  59.463 -57.226  1.00  0.00     0.071 C 
HETATM   14  N   UNL     1     -43.072  57.312 -54.318  1.00  0.00    -0.202 NA
ENDROOT
BRANCH   1  15
HETATM   15  S   UNL     1     -42.211  57.505 -51.878  1.00  0.00    -0.082 SA
BRANCH  15  16
HETATM   16  C   UNL     1     -43.274  56.271 -51.077  1.00  0.00     0.185 C 
BRANCH  16  17
HETATM   17  C   UNL     1     -42.798  54.864 -51.402  1.00  0.00     0.232 C 
HETATM   18  N   UNL     1     -41.418  54.777 -51.534  1.00  0.00    -0.324 N 
HETATM   19  H   UNL     1     -40.873  55.333 -50.887  1.00  0.00     0.169 HD
HETATM   20  O   UNL     1     -43.567  53.905 -51.466  1.00  0.00    -0.272 OA
BRANCH  18  21
HETATM   21  C   UNL     1     -40.776  53.670 -52.126  1.00  0.00     0.068 A 
HETATM   22  C   UNL     1     -40.579  53.562 -53.514  1.00  0.00     0.095 A 
HETATM   23  C   UNL     1     -39.915  52.453 -54.044  1.00  0.00     0.039 A 
HETATM   24  C   UNL     1     -39.458  51.442 -53.195  1.00  0.00     0.003 A 
HETATM   25  C   UNL     1     -39.623  51.560 -51.816  1.00  0.00     0.002 A 
HETATM   26  C   UNL     1     -40.262  52.680 -51.281  1.00  0.00     0.032 A 
BRANCH  22  27
HETATM   27  O   UNL     1     -40.827  54.649 -54.318  1.00  0.00    -0.349 OA
BRANCH  27  28
HETATM   28  C   UNL     1     -41.568  54.325 -55.497  1.00  0.00     0.171 C 
HETATM   29  C   UNL     1     -42.982  53.926 -55.119  1.00  0.00     0.034 C 
ENDBRANCH  27  28
ENDBRANCH  22  27
ENDBRANCH  18  21
ENDBRANCH  16  17
ENDBRANCH  15  16
ENDBRANCH   1  15
BRANCH   2  30
HETATM   30  C   UNL     1     -44.327  59.721 -51.781  1.00  0.00     0.043 A 
HETATM   31  C   UNL     1     -43.516  60.822 -51.467  1.00  0.00     0.031 A 
HETATM   32  C   UNL     1     -43.703  61.522 -50.272  1.00  0.00     0.021 A 
HETATM   33  C   UNL     1     -44.711  61.133 -49.393  1.00  0.00     0.011 A 
HETATM   34 BR   UNL     1     -44.974  62.090 -47.785  1.00  0.00    -0.051 Br
HETATM   35  C   UNL     1     -45.530  60.047 -49.693  1.00  0.00     0.021 A 
HETATM   36  C   UNL     1     -45.338  59.342 -50.884  1.00  0.00     0.031 A 
ENDBRANCH   2  30
TORSDOF 7
ENDMDL
MODEL 6
REMARK VINA RESULT:      -7.8      1.884      2.220
REMARK  7 active torsions:
REMARK  status: ('A' for Active; 'I' for Inactive)
REMARK    1  A    between atoms: C_2  and  O_3 
REMARK    2  A    between atoms: O_3  and  C_4 
REMARK    3  A    between atoms: C_5  and  N_6 
REMARK       I    between atoms: N_6  and  C_7 
REMARK    4  A    between atoms: C_7  and  C_8 
REMARK    5  A    between atoms: C_8  and  S_9 
REMARK    6  A    between atoms: S_9  and  C_10 
REMARK    7  A    between atoms: N_11  and  C_12 
ROOT
HETATM    1  C   UNL     1     -43.205  57.381 -55.445  1.00  0.00     0.177 A 
HETATM    2  N   UNL     1     -44.063  58.431 -55.050  1.00  0.00    -0.276 N 
HETATM    3  C   UNL     1     -45.054  58.879 -56.000  1.00  0.00     0.124 A 
HETATM    4  N   UNL     1     -45.856  59.903 -55.779  1.00  0.00    -0.384 N 
HETATM    5  H   UNL     1     -46.520  60.203 -56.476  1.00  0.00     0.157 HD
HETATM    6  H   UNL     1     -45.795  60.417 -54.910  1.00  0.00     0.157 HD
HETATM    7  C   UNL     1     -45.102  58.180 -57.243  1.00  0.00     0.081 A 
HETATM    8  C   UNL     1     -44.176  57.168 -57.474  1.00  0.00     0.187 A 
HETATM    9  N   UNL     1     -44.326  56.606 -58.666  1.00  0.00    -0.153 NA
HETATM   10  N   UNL     1     -45.373  57.267 -59.194  1.00  0.00    -0.280 N 
HETATM   11  H   UNL     1     -45.686  56.996 -60.122  1.00  0.00     0.189 HD
HETATM   12  C   UNL     1     -45.880  58.255 -58.376  1.00  0.00     0.042 A 
HETATM   13  C   UNL     1     -47.016  59.105 -58.796  1.00  0.00     0.071 C 
HETATM   14  N   UNL     1     -43.185  56.762 -56.590  1.00  0.00    -0.202 NA
ENDROOT
BRANCH   1  15
HETATM   15  S   UNL     1     -41.949  56.809 -54.309  1.00  0.00    -0.082 SA
BRANCH  15  16
HETATM   16  C   UNL     1     -41.437  55.289 -55.159  1.00  0.00     0.185 C 
BRANCH  16  17
HETATM   17  C   UNL     1     -41.406  54.119 -54.189  1.00  0.00     0.232 C 
HETATM   18  N   UNL     1     -40.165  53.499 -54.128  1.00  0.00    -0.324 N 
HETATM   19  H   UNL     1     -39.360  54.112 -54.170  1.00  0.00     0.169 HD
HETATM   20  O   UNL     1     -42.373  53.814 -53.491  1.00  0.00    -0.272 OA
BRANCH  18  21
HETATM   21  C   UNL     1     -39.973  52.228 -53.550  1.00  0.00     0.068 A 
HETATM   22  C   UNL     1     -39.701  52.053 -52.181  1.00  0.00     0.095 A 
HETATM   23  C   UNL     1     -39.541  50.768 -51.657  1.00  0.00     0.039 A 
HETATM   24  C   UNL     1     -39.639  49.655 -52.495  1.00  0.00     0.003 A 
HETATM   25  C   UNL     1     -39.940  49.822 -53.846  1.00  0.00     0.002 A 
HETATM   26  C   UNL     1     -40.126  51.104 -54.368  1.00  0.00     0.032 A 
BRANCH  22  27
HETATM   27  O   UNL     1     -39.824  53.121 -51.325  1.00  0.00    -0.349 OA
BRANCH  27  28
HETATM   28  C   UNL     1     -40.374  52.769 -50.053  1.00  0.00     0.171 C 
HETATM   29  C   UNL     1     -40.890  54.015 -49.357  1.00  0.00     0.034 C 
ENDBRANCH  27  28
ENDBRANCH  22  27
ENDBRANCH  18  21
ENDBRANCH  16  17
ENDBRANCH  15  16
ENDBRANCH   1  15
BRANCH   2  30
HETATM   30  C   UNL     1     -43.983  59.035 -53.760  1.00  0.00     0.043 A 
HETATM   31  C   UNL     1     -43.228  60.199 -53.554  1.00  0.00     0.031 A 
HETATM   32  C   UNL     1     -43.217  60.825 -52.304  1.00  0.00     0.021 A 
HETATM   33  C   UNL     1     -43.974  60.297 -51.260  1.00  0.00     0.011 A 
HETATM   34 BR   UNL     1     -43.973  61.153 -49.576  1.00  0.00    -0.051 Br
HETATM   35  C   UNL     1     -44.736  59.147 -51.451  1.00  0.00     0.021 A 
HETATM   36  C   UNL     1     -44.740  58.517 -52.697  1.00  0.00     0.031 A 
ENDBRANCH   2  30
TORSDOF 7
ENDMDL
MODEL 7
REMARK VINA RESULT:      -7.8      1.617      2.052
REMARK  7 active torsions:
REMARK  status: ('A' for Active; 'I' for Inactive)
REMARK    1  A    between atoms: C_2  and  O_3 
REMARK    2  A    between atoms: O_3  and  C_4 
REMARK    3  A    between atoms: C_5  and  N_6 
REMARK       I    between atoms: N_6  and  C_7 
REMARK    4  A    between atoms: C_7  and  C_8 
REMARK    5  A    between atoms: C_8  and  S_9 
REMARK    6  A    between atoms: S_9  and  C_10 
REMARK    7  A    between atoms: N_11  and  C_12 
ROOT
HETATM    1  C   UNL     1     -43.668  57.381 -54.745  1.00  0.00     0.177 A 
HETATM    2  N   UNL     1     -43.498  58.708 -55.200  1.00  0.00    -0.276 N 
HETATM    3  C   UNL     1     -43.042  58.897 -56.556  1.00  0.00     0.124 A 
HETATM    4  N   UNL     1     -42.768  60.082 -57.068  1.00  0.00    -0.384 N 
HETATM    5  H   UNL     1     -42.428  60.174 -58.014  1.00  0.00     0.157 HD
HETATM    6  H   UNL     1     -42.874  60.915 -56.505  1.00  0.00     0.157 HD
HETATM    7  C   UNL     1     -42.849  57.714 -57.331  1.00  0.00     0.081 A 
HETATM    8  C   UNL     1     -43.058  56.480 -56.726  1.00  0.00     0.187 A 
HETATM    9  N   UNL     1     -42.839  55.466 -57.552  1.00  0.00    -0.153 NA
HETATM   10  N   UNL     1     -42.495  56.070 -58.704  1.00  0.00    -0.280 N 
HETATM   11  H   UNL     1     -42.286  55.481 -59.505  1.00  0.00     0.189 HD
HETATM   12  C   UNL     1     -42.467  57.447 -58.627  1.00  0.00     0.042 A 
HETATM   13  C   UNL     1     -42.088  58.283 -59.786  1.00  0.00     0.071 C 
HETATM   14  N   UNL     1     -43.446  56.282 -55.407  1.00  0.00    -0.202 NA
ENDROOT
BRANCH   1  15
HETATM   15  S   UNL     1     -44.209  57.099 -53.065  1.00  0.00    -0.082 SA
BRANCH  15  16
HETATM   16  C   UNL     1     -42.597  56.912 -52.253  1.00  0.00     0.185 C 
BRANCH  16  17
HETATM   17  C   UNL     1     -42.253  55.441 -52.077  1.00  0.00     0.232 C 
HETATM   18  N   UNL     1     -41.003  55.114 -52.586  1.00  0.00    -0.324 N 
HETATM   19  H   UNL     1     -40.272  55.799 -52.445  1.00  0.00     0.169 HD
HETATM   20  O   UNL     1     -42.992  54.657 -51.482  1.00  0.00    -0.272 OA
BRANCH  18  21
HETATM   21  C   UNL     1     -40.597  53.783 -52.818  1.00  0.00     0.068 A 
HETATM   22  C   UNL     1     -39.821  53.059 -51.896  1.00  0.00     0.095 A 
HETATM   23  C   UNL     1     -39.466  51.734 -52.168  1.00  0.00     0.039 A 
HETATM   24  C   UNL     1     -39.871  51.134 -53.362  1.00  0.00     0.003 A 
HETATM   25  C   UNL     1     -40.667  51.839 -54.263  1.00  0.00     0.002 A 
HETATM   26  C   UNL     1     -41.047  53.154 -53.983  1.00  0.00     0.032 A 
BRANCH  22  27
HETATM   27  O   UNL     1     -39.613  53.569 -50.637  1.00  0.00    -0.349 OA
BRANCH  27  28
HETATM   28  C   UNL     1     -40.474  53.004 -49.646  1.00  0.00     0.171 C 
HETATM   29  C   UNL     1     -40.464  53.875 -48.404  1.00  0.00     0.034 C 
ENDBRANCH  27  28
ENDBRANCH  22  27
ENDBRANCH  18  21
ENDBRANCH  16  17
ENDBRANCH  15  16
ENDBRANCH   1  15
BRANCH   2  30
HETATM   30  C   UNL     1     -43.772  59.837 -54.373  1.00  0.00     0.043 A 
HETATM   31  C   UNL     1     -45.075  60.346 -54.255  1.00  0.00     0.031 A 
HETATM   32  C   UNL     1     -45.346  61.404 -53.383  1.00  0.00     0.021 A 
HETATM   33  C   UNL     1     -44.318  61.948 -52.615  1.00  0.00     0.011 A 
HETATM   34 BR   UNL     1     -44.689  63.368 -51.425  1.00  0.00    -0.051 Br
HETATM   35  C   UNL     1     -43.022  61.449 -52.714  1.00  0.00     0.021 A 
HETATM   36  C   UNL     1     -42.749  60.397 -53.592  1.00  0.00     0.031 A 
ENDBRANCH   2  30
TORSDOF 7
ENDMDL
MODEL 8
REMARK VINA RESULT:      -7.7      3.352      5.018
REMARK  7 active torsions:
REMARK  status: ('A' for Active; 'I' for Inactive)
REMARK    1  A    between atoms: C_2  and  O_3 
REMARK    2  A    between atoms: O_3  and  C_4 
REMARK    3  A    between atoms: C_5  and  N_6 
REMARK       I    between atoms: N_6  and  C_7 
REMARK    4  A    between atoms: C_7  and  C_8 
REMARK    5  A    between atoms: C_8  and  S_9 
REMARK    6  A    between atoms: S_9  and  C_10 
REMARK    7  A    between atoms: N_11  and  C_12 
ROOT
HETATM    1  C   UNL     1     -43.469  57.593 -56.747  1.00  0.00     0.177 A 
HETATM    2  N   UNL     1     -43.285  56.209 -56.968  1.00  0.00    -0.276 N 
HETATM    3  C   UNL     1     -43.809  55.652 -58.192  1.00  0.00     0.124 A 
HETATM    4  N   UNL     1     -43.772  54.363 -58.473  1.00  0.00    -0.384 N 
HETATM    5  H   UNL     1     -44.170  54.006 -59.329  1.00  0.00     0.157 HD
HETATM    6  H   UNL     1     -43.362  53.712 -57.817  1.00  0.00     0.157 HD
HETATM    7  C   UNL     1     -44.429  56.570 -59.092  1.00  0.00     0.081 A 
HETATM    8  C   UNL     1     -44.532  57.905 -58.717  1.00  0.00     0.187 A 
HETATM    9  N   UNL     1     -45.132  58.646 -59.638  1.00  0.00    -0.153 NA
HETATM   10  N   UNL     1     -45.403  57.766 -60.619  1.00  0.00    -0.280 N 
HETATM   11  H   UNL     1     -45.864  58.115 -61.455  1.00  0.00     0.189 HD
HETATM   12  C   UNL     1     -45.012  56.474 -60.336  1.00  0.00     0.042 A 
HETATM   13  C   UNL     1     -45.249  55.364 -61.285  1.00  0.00     0.071 C 
HETATM   14  N   UNL     1     -44.079  58.444 -57.520  1.00  0.00    -0.202 NA
ENDROOT
BRANCH   1  15
HETATM   15  S   UNL     1     -42.857  58.321 -55.234  1.00  0.00    -0.082 SA
BRANCH  15  16
HETATM   16  C   UNL     1     -44.379  58.298 -54.245  1.00  0.00     0.185 C 
BRANCH  16  17
HETATM   17  C   UNL     1     -44.113  57.713 -52.867  1.00  0.00     0.232 C 
HETATM   18  N   UNL     1     -42.838  57.177 -52.744  1.00  0.00    -0.324 N 
HETATM   19  H   UNL     1     -42.094  57.689 -53.202  1.00  0.00     0.169 HD
HETATM   20  O   UNL     1     -44.933  57.782 -51.951  1.00  0.00    -0.272 OA
BRANCH  18  21
HETATM   21  C   UNL     1     -42.469  56.320 -51.688  1.00  0.00     0.068 A 
HETATM   22  C   UNL     1     -41.648  56.738 -50.626  1.00  0.00     0.095 A 
HETATM   23  C   UNL     1     -41.332  55.851 -49.593  1.00  0.00     0.039 A 
HETATM   24  C   UNL     1     -41.821  54.543 -49.621  1.00  0.00     0.003 A 
HETATM   25  C   UNL     1     -42.660  54.134 -50.656  1.00  0.00     0.002 A 
HETATM   26  C   UNL     1     -43.000  55.026 -51.677  1.00  0.00     0.032 A 
BRANCH  22  27
HETATM   27  O   UNL     1     -41.353  58.073 -50.484  1.00  0.00    -0.349 OA
BRANCH  27  28
HETATM   28  C   UNL     1     -40.180  58.475 -51.195  1.00  0.00     0.171 C 
HETATM   29  C   UNL     1     -39.511  59.626 -50.467  1.00  0.00     0.034 C 
ENDBRANCH  27  28
ENDBRANCH  22  27
ENDBRANCH  18  21
ENDBRANCH  16  17
ENDBRANCH  15  16
ENDBRANCH   1  15
BRANCH   2  30
HETATM   30  C   UNL     1     -42.599  55.375 -56.037  1.00  0.00     0.043 A 
HETATM   31  C   UNL     1     -43.249  54.296 -55.419  1.00  0.00     0.031 A 
HETATM   32  C   UNL     1     -42.547  53.439 -54.567  1.00  0.00     0.021 A 
HETATM   33  C   UNL     1     -41.187  53.649 -54.341  1.00  0.00     0.011 A 
HETATM   34 BR   UNL     1     -40.235  52.481 -53.202  1.00  0.00    -0.051 Br
HETATM   35  C   UNL     1     -40.525  54.711 -54.953  1.00  0.00     0.021 A 
HETATM   36  C   UNL     1     -41.229  55.572 -55.798  1.00  0.00     0.031 A 
ENDBRANCH   2  30
TORSDOF 7
ENDMDL
MODEL 9
REMARK VINA RESULT:      -7.7      2.633      3.956
REMARK  7 active torsions:
REMARK  status: ('A' for Active; 'I' for Inactive)
REMARK    1  A    between atoms: C_2  and  O_3 
REMARK    2  A    between atoms: O_3  and  C_4 
REMARK    3  A    between atoms: C_5  and  N_6 
REMARK       I    between atoms: N_6  and  C_7 
REMARK    4  A    between atoms: C_7  and  C_8 
REMARK    5  A    between atoms: C_8  and  S_9 
REMARK    6  A    between atoms: S_9  and  C_10 
REMARK    7  A    between atoms: N_11  and  C_12 
ROOT
HETATM    1  C   UNL     1     -43.475  56.754 -57.857  1.00  0.00     0.177 A 
HETATM    2  N   UNL     1     -44.618  57.530 -57.562  1.00  0.00    -0.276 N 
HETATM    3  C   UNL     1     -45.707  57.503 -58.509  1.00  0.00     0.124 A 
HETATM    4  N   UNL     1     -46.790  58.247 -58.387  1.00  0.00    -0.384 N 
HETATM    5  H   UNL     1     -47.521  58.219 -59.081  1.00  0.00     0.157 HD
HETATM    6  H   UNL     1     -46.888  58.875 -57.600  1.00  0.00     0.157 HD
HETATM    7  C   UNL     1     -45.542  56.650 -59.642  1.00  0.00     0.081 A 
HETATM    8  C   UNL     1     -44.346  55.954 -59.783  1.00  0.00     0.187 A 
HETATM    9  N   UNL     1     -44.321  55.206 -60.877  1.00  0.00    -0.153 NA
HETATM   10  N   UNL     1     -45.527  55.423 -61.432  1.00  0.00    -0.280 N 
HETATM   11  H   UNL     1     -45.747  54.935 -62.296  1.00  0.00     0.189 HD
HETATM   12  C   UNL     1     -46.314  56.312 -60.730  1.00  0.00     0.042 A 
HETATM   13  C   UNL     1     -47.664  56.694 -61.199  1.00  0.00     0.071 C 
HETATM   14  N   UNL     1     -43.270  56.012 -58.907  1.00  0.00    -0.202 NA
ENDROOT
BRANCH   1  15
HETATM   15  S   UNL     1     -42.092  56.775 -56.725  1.00  0.00    -0.082 SA
BRANCH  15  16
HETATM   16  C   UNL     1     -42.302  55.145 -55.955  1.00  0.00     0.185 C 
BRANCH  16  17
HETATM   17  C   UNL     1     -41.359  54.986 -54.772  1.00  0.00     0.232 C 
HETATM   18  N   UNL     1     -42.012  54.603 -53.608  1.00  0.00    -0.324 N 
HETATM   19  H   UNL     1     -42.763  53.933 -53.719  1.00  0.00     0.169 HD
HETATM   20  O   UNL     1     -40.140  55.121 -54.877  1.00  0.00    -0.272 OA
BRANCH  18  21
HETATM   21  C   UNL     1     -41.415  54.690 -52.334  1.00  0.00     0.068 A 
HETATM   22  C   UNL     1     -41.513  55.840 -51.530  1.00  0.00     0.095 A 
HETATM   23  C   UNL     1     -40.921  55.863 -50.265  1.00  0.00     0.039 A 
HETATM   24  C   UNL     1     -40.218  54.748 -49.802  1.00  0.00     0.003 A 
HETATM   25  C   UNL     1     -40.145  53.595 -50.583  1.00  0.00     0.002 A 
HETATM   26  C   UNL     1     -40.759  53.559 -51.837  1.00  0.00     0.032 A 
BRANCH  22  27
HETATM   27  O   UNL     1     -42.382  56.843 -51.887  1.00  0.00    -0.349 OA
BRANCH  27  28
HETATM   28  C   UNL     1     -41.767  58.132 -51.950  1.00  0.00     0.171 C 
HETATM   29  C   UNL     1     -41.579  58.539 -53.399  1.00  0.00     0.034 C 
ENDBRANCH  27  28
ENDBRANCH  22  27
ENDBRANCH  18  21
ENDBRANCH  16  17
ENDBRANCH  15  16
ENDBRANCH   1  15
BRANCH   2  30
HETATM   30  C   UNL     1     -44.722  58.310 -56.373  1.00  0.00     0.043 A 
HETATM   31  C   UNL     1     -44.546  59.702 -56.405  1.00  0.00     0.031 A 
HETATM   32  C   UNL     1     -44.725  60.466 -55.249  1.00  0.00     0.021 A 
HETATM   33  C   UNL     1     -45.095  59.843 -54.058  1.00  0.00     0.011 A 
HETATM   34 BR   UNL     1     -45.352  60.878 -52.499  1.00  0.00    -0.051 Br
HETATM   35  C   UNL     1     -45.281  58.463 -54.012  1.00  0.00     0.021 A 
HETATM   36  C   UNL     1     -45.095  57.699 -55.166  1.00  0.00     0.031 A 
ENDBRANCH   2  30
TORSDOF 7
ENDMDL
MODEL 10
REMARK VINA RESULT:      -7.7      3.813      8.294
REMARK  7 active torsions:
REMARK  status: ('A' for Active; 'I' for Inactive)
REMARK    1  A    between atoms: C_2  and  O_3 
REMARK    2  A    between atoms: O_3  and  C_4 
REMARK    3  A    between atoms: C_5  and  N_6 
REMARK       I    between atoms: N_6  and  C_7 
REMARK    4  A    between atoms: C_7  and  C_8 
REMARK    5  A    between atoms: C_8  and  S_9 
REMARK    6  A    between atoms: S_9  and  C_10 
REMARK    7  A    between atoms: N_11  and  C_12 
ROOT
HETATM    1  C   UNL     1     -41.563  54.876 -51.457  1.00  0.00     0.177 A 
HETATM    2  N   UNL     1     -41.609  54.864 -52.869  1.00  0.00    -0.276 N 
HETATM    3  C   UNL     1     -41.013  53.738 -53.548  1.00  0.00     0.124 A 
HETATM    4  N   UNL     1     -40.920  53.652 -54.862  1.00  0.00    -0.384 N 
HETATM    5  H   UNL     1     -40.476  52.860 -55.301  1.00  0.00     0.157 HD
HETATM    6  H   UNL     1     -41.276  54.398 -55.445  1.00  0.00     0.157 HD
HETATM    7  C   UNL     1     -40.470  52.711 -52.718  1.00  0.00     0.081 A 
HETATM    8  C   UNL     1     -40.503  52.883 -51.338  1.00  0.00     0.187 A 
HETATM    9  N   UNL     1     -39.962  51.863 -50.687  1.00  0.00    -0.153 NA
HETATM   10  N   UNL     1     -39.591  51.025 -51.672  1.00  0.00    -0.280 N 
HETATM   11  H   UNL     1     -39.152  50.147 -51.408  1.00  0.00     0.189 HD
HETATM   12  C   UNL     1     -39.860  51.497 -52.939  1.00  0.00     0.042 A 
HETATM   13  C   UNL     1     -39.501  50.726 -54.149  1.00  0.00     0.071 C 
HETATM   14  N   UNL     1     -41.025  53.985 -50.674  1.00  0.00    -0.202 NA
ENDROOT
BRANCH   1  15
HETATM   15  S   UNL     1     -42.268  56.261 -50.575  1.00  0.00    -0.082 SA
BRANCH  15  16
HETATM   16  C   UNL     1     -40.801  57.324 -50.454  1.00  0.00     0.185 C 
BRANCH  16  17
HETATM   17  C   UNL     1     -41.194  58.790 -50.542  1.00  0.00     0.232 C 
HETATM   18  N   UNL     1     -42.481  58.977 -51.029  1.00  0.00    -0.324 N 
HETATM   19  H   UNL     1     -43.176  58.310 -50.717  1.00  0.00     0.169 HD
HETATM   20  O   UNL     1     -40.457  59.696 -50.152  1.00  0.00    -0.272 OA
BRANCH  18  21
HETATM   21  C   UNL     1     -42.952  60.225 -51.485  1.00  0.00     0.068 A 
HETATM   22  C   UNL     1     -43.672  61.109 -50.662  1.00  0.00     0.095 A 
HETATM   23  C   UNL     1     -44.094  62.344 -51.161  1.00  0.00     0.039 A 
HETATM   24  C   UNL     1     -43.814  62.696 -52.483  1.00  0.00     0.003 A 
HETATM   25  C   UNL     1     -43.074  61.836 -53.293  1.00  0.00     0.002 A 
HETATM   26  C   UNL     1     -42.626  60.612 -52.789  1.00  0.00     0.032 A 
BRANCH  22  27
HETATM   27  O   UNL     1     -43.753  60.862 -49.313  1.00  0.00    -0.349 OA
BRANCH  27  28
HETATM   28  C   UNL     1     -44.601  61.779 -48.617  1.00  0.00     0.171 C 
HETATM   29  C   UNL     1     -45.563  61.013 -47.729  1.00  0.00     0.034 C 
ENDBRANCH  27  28
ENDBRANCH  22  27
ENDBRANCH  18  21
ENDBRANCH  16  17
ENDBRANCH  15  16
ENDBRANCH   1  15
BRANCH   2  30
HETATM   30  C   UNL     1     -42.227  55.907 -53.619  1.00  0.00     0.043 A 
HETATM   31  C   UNL     1     -41.468  56.964 -54.146  1.00  0.00     0.031 A 
HETATM   32  C   UNL     1     -42.071  57.941 -54.943  1.00  0.00     0.021 A 
HETATM   33  C   UNL     1     -43.433  57.857 -55.229  1.00  0.00     0.011 A 
HETATM   34 BR   UNL     1     -44.244  59.168 -56.321  1.00  0.00    -0.051 Br
HETATM   35  C   UNL     1     -44.198  56.809 -54.721  1.00  0.00     0.021 A 
HETATM   36  C   UNL     1     -43.596  55.838 -53.917  1.00  0.00     0.031 A 
ENDBRANCH   2  30
TORSDOF 7
ENDMDL
