MODEL 1
REMARK VINA RESULT:      -8.7      0.000      0.000
REMARK  7 active torsions:
REMARK  status: ('A' for Active; 'I' for Inactive)
REMARK    1  A    between atoms: O_2  and  C_3 
REMARK    2  A    between atoms: C_4  and  O_5 
REMARK    3  A    between atoms: C_7  and  C_8 
REMARK    4  A    between atoms: N_9  and  N_10 
REMARK    5  A    between atoms: C_21  and  C_22 
REMARK       I    between atoms: C_22  and  N_23 
REMARK    6  A    between atoms: N_23  and  C_24 
REMARK    7  A    between atoms: C_31  and  N_32 
ROOT
HETATM    1  N   UNL     1     -42.820  56.917 -53.570  1.00  0.00    -0.197 N 
HETATM    2  C   UNL     1     -43.086  58.187 -53.078  1.00  0.00     0.183 A 
HETATM    3  C   UNL     1     -43.885  58.834 -54.011  1.00  0.00     0.125 A 
HETATM    4  N   UNL     1     -44.210  60.148 -53.886  1.00  0.00    -0.242 NA
HETATM    5  C   UNL     1     -43.759  60.728 -52.765  1.00  0.00     0.086 A 
HETATM    6  C   UNL     1     -42.970  60.040 -51.803  1.00  0.00     0.088 A 
HETATM    7  N   UNL     1     -42.593  58.757 -51.951  1.00  0.00    -0.225 NA
HETATM    8  C   UNL     1     -44.089  62.058 -52.541  1.00  0.00     0.034 A 
HETATM    9  C   UNL     1     -43.678  62.730 -51.388  1.00  0.00     0.002 A 
HETATM   10  C   UNL     1     -42.921  62.057 -50.441  1.00  0.00     0.002 A 
HETATM   11  C   UNL     1     -42.572  60.721 -50.658  1.00  0.00     0.034 A 
HETATM   12  C   UNL     1     -44.202  57.925 -55.045  1.00  0.00     0.110 C 
HETATM   13  C   UNL     1     -43.679  56.697 -54.663  1.00  0.00     0.143 C 
ENDROOT
BRANCH   1  14
HETATM   14  N   UNL     1     -41.628  56.257 -53.368  1.00  0.00    -0.176 NA
HETATM   15  C   UNL     1     -41.673  55.312 -52.488  1.00  0.00     0.153 C 
BRANCH  15  16
HETATM   16  C   UNL     1     -40.829  54.108 -52.626  1.00  0.00     0.019 A 
HETATM   17  C   UNL     1     -40.564  53.308 -51.511  1.00  0.00     0.113 A 
HETATM   18  C   UNL     1     -40.092  52.000 -51.697  1.00  0.00     0.102 A 
HETATM   19  C   UNL     1     -39.774  51.549 -52.980  1.00  0.00     0.040 A 
HETATM   20  C   UNL     1     -39.976  52.372 -54.086  1.00  0.00     0.004 A 
HETATM   21  C   UNL     1     -40.516  53.646 -53.913  1.00  0.00     0.016 A 
BRANCH  17  22
HETATM   22  O   UNL     1     -40.805  53.792 -50.250  1.00  0.00    -0.352 OA
HETATM   23  C   UNL     1     -39.594  54.346 -49.724  1.00  0.00     0.210 C 
ENDBRANCH  17  22
BRANCH  18  24
HETATM   24  O   UNL     1     -39.888  51.101 -50.682  1.00  0.00    -0.353 OA
HETATM   25  C   UNL     1     -39.518  49.804 -51.152  1.00  0.00     0.210 C 
ENDBRANCH  18  24
ENDBRANCH  15  16
ENDBRANCH   1  14
BRANCH  13  26
HETATM   26  N   UNL     1     -43.779  55.512 -55.334  1.00  0.00    -0.383 N 
HETATM   27  H   UNL     1     -44.629  54.958 -55.318  1.00  0.00     0.157 HD
HETATM   28  H   UNL     1     -43.329  55.469 -56.255  1.00  0.00     0.157 HD
ENDBRANCH  13  26
BRANCH  12  29
HETATM   29  C   UNL     1     -44.868  58.173 -56.315  1.00  0.00     0.258 C 
HETATM   30  N   UNL     1     -44.011  58.370 -57.377  1.00  0.00    -0.352 N 
HETATM   31  H   UNL     1     -43.017  58.359 -57.161  1.00  0.00     0.163 HD
HETATM   32  O   UNL     1     -46.088  58.104 -56.446  1.00  0.00    -0.267 OA
BRANCH  30  33
HETATM   33  C   UNL     1     -44.420  58.043 -58.736  1.00  0.00     0.084 C 
HETATM   34  C   UNL     1     -43.591  58.824 -59.758  1.00  0.00     0.025 C 
HETATM   35  C   UNL     1     -42.148  58.334 -59.855  1.00  0.00     0.002 C 
HETATM   36  C   UNL     1     -42.074  56.830 -60.105  1.00  0.00     0.000 C 
HETATM   37  C   UNL     1     -42.866  56.045 -59.066  1.00  0.00     0.002 C 
HETATM   38  C   UNL     1     -44.315  56.526 -58.980  1.00  0.00     0.025 C 
ENDBRANCH  30  33
ENDBRANCH  12  29
TORSDOF 7
ENDMDL
MODEL 2
REMARK VINA RESULT:      -8.4      2.052      8.169
REMARK  7 active torsions:
REMARK  status: ('A' for Active; 'I' for Inactive)
REMARK    1  A    between atoms: O_2  and  C_3 
REMARK    2  A    between atoms: C_4  and  O_5 
REMARK    3  A    between atoms: C_7  and  C_8 
REMARK    4  A    between atoms: N_9  and  N_10 
REMARK    5  A    between atoms: C_21  and  C_22 
REMARK       I    between atoms: C_22  and  N_23 
REMARK    6  A    between atoms: N_23  and  C_24 
REMARK    7  A    between atoms: C_31  and  N_32 
ROOT
HETATM    1  N   UNL     1     -43.044  55.895 -54.998  1.00  0.00    -0.197 N 
HETATM    2  C   UNL     1     -42.373  54.957 -54.225  1.00  0.00     0.183 A 
HETATM    3  C   UNL     1     -42.637  55.250 -52.894  1.00  0.00     0.125 A 
HETATM    4  N   UNL     1     -42.015  54.594 -51.879  1.00  0.00    -0.242 NA
HETATM    5  C   UNL     1     -41.196  53.609 -52.274  1.00  0.00     0.086 A 
HETATM    6  C   UNL     1     -40.963  53.300 -53.642  1.00  0.00     0.088 A 
HETATM    7  N   UNL     1     -41.529  53.986 -54.652  1.00  0.00    -0.225 NA
HETATM    8  C   UNL     1     -40.559  52.860 -51.294  1.00  0.00     0.034 A 
HETATM    9  C   UNL     1     -39.708  51.802 -51.620  1.00  0.00     0.002 A 
HETATM   10  C   UNL     1     -39.490  51.488 -52.953  1.00  0.00     0.002 A 
HETATM   11  C   UNL     1     -40.117  52.241 -53.951  1.00  0.00     0.034 A 
HETATM   12  C   UNL     1     -43.562  56.318 -52.840  1.00  0.00     0.110 C 
HETATM   13  C   UNL     1     -43.933  56.584 -54.152  1.00  0.00     0.143 C 
ENDROOT
BRANCH   1  14
HETATM   14  N   UNL     1     -42.557  56.389 -56.188  1.00  0.00    -0.176 NA
HETATM   15  C   UNL     1     -43.248  56.066 -57.231  1.00  0.00     0.153 C 
BRANCH  15  16
HETATM   16  C   UNL     1     -43.353  56.986 -58.383  1.00  0.00     0.019 A 
HETATM   17  C   UNL     1     -44.167  58.118 -58.301  1.00  0.00     0.113 A 
HETATM   18  C   UNL     1     -43.987  59.165 -59.217  1.00  0.00     0.102 A 
HETATM   19  C   UNL     1     -43.087  59.019 -60.276  1.00  0.00     0.040 A 
HETATM   20  C   UNL     1     -42.323  57.859 -60.395  1.00  0.00     0.004 A 
HETATM   21  C   UNL     1     -42.444  56.849 -59.442  1.00  0.00     0.016 A 
BRANCH  17  22
HETATM   22  O   UNL     1     -45.104  58.217 -57.303  1.00  0.00    -0.352 OA
HETATM   23  C   UNL     1     -46.403  57.989 -57.861  1.00  0.00     0.210 C 
ENDBRANCH  17  22
BRANCH  18  24
HETATM   24  O   UNL     1     -44.664  60.356 -59.173  1.00  0.00    -0.353 OA
HETATM   25  C   UNL     1     -43.955  61.376 -58.467  1.00  0.00     0.210 C 
ENDBRANCH  18  24
ENDBRANCH  15  16
ENDBRANCH   1  14
BRANCH  13  26
HETATM   26  N   UNL     1     -44.841  57.508 -54.581  1.00  0.00    -0.383 N 
HETATM   27  H   UNL     1     -45.275  57.448 -55.496  1.00  0.00     0.157 HD
HETATM   28  H   UNL     1     -45.505  57.856 -53.881  1.00  0.00     0.157 HD
ENDBRANCH  13  26
BRANCH  12  29
HETATM   29  C   UNL     1     -44.016  57.083 -51.688  1.00  0.00     0.258 C 
HETATM   30  N   UNL     1     -43.626  58.406 -51.695  1.00  0.00    -0.352 N 
HETATM   31  H   UNL     1     -43.040  58.698 -52.473  1.00  0.00     0.163 HD
HETATM   32  O   UNL     1     -44.772  56.614 -50.841  1.00  0.00    -0.267 OA
BRANCH  30  33
HETATM   33  C   UNL     1     -44.422  59.421 -51.019  1.00  0.00     0.084 C 
HETATM   34  C   UNL     1     -43.546  60.595 -50.575  1.00  0.00     0.025 C 
HETATM   35  C   UNL     1     -43.066  61.455 -51.742  1.00  0.00     0.002 C 
HETATM   36  C   UNL     1     -44.224  61.921 -52.619  1.00  0.00     0.000 C 
HETATM   37  C   UNL     1     -45.078  60.751 -53.097  1.00  0.00     0.002 C 
HETATM   38  C   UNL     1     -45.570  59.899 -51.927  1.00  0.00     0.025 C 
ENDBRANCH  30  33
ENDBRANCH  12  29
TORSDOF 7
ENDMDL
MODEL 3
REMARK VINA RESULT:      -8.4      1.789      2.252
REMARK  7 active torsions:
REMARK  status: ('A' for Active; 'I' for Inactive)
REMARK    1  A    between atoms: O_2  and  C_3 
REMARK    2  A    between atoms: C_4  and  O_5 
REMARK    3  A    between atoms: C_7  and  C_8 
REMARK    4  A    between atoms: N_9  and  N_10 
REMARK    5  A    between atoms: C_21  and  C_22 
REMARK       I    between atoms: C_22  and  N_23 
REMARK    6  A    between atoms: N_23  and  C_24 
REMARK    7  A    between atoms: C_31  and  N_32 
ROOT
HETATM    1  N   UNL     1     -43.182  56.297 -54.367  1.00  0.00    -0.197 N 
HETATM    2  C   UNL     1     -43.932  57.305 -53.777  1.00  0.00     0.183 A 
HETATM    3  C   UNL     1     -44.477  58.070 -54.799  1.00  0.00     0.125 A 
HETATM    4  N   UNL     1     -45.157  59.220 -54.549  1.00  0.00    -0.242 NA
HETATM    5  C   UNL     1     -45.314  59.500 -53.247  1.00  0.00     0.086 A 
HETATM    6  C   UNL     1     -44.778  58.686 -52.212  1.00  0.00     0.088 A 
HETATM    7  N   UNL     1     -44.051  57.580 -52.455  1.00  0.00    -0.225 NA
HETATM    8  C   UNL     1     -46.039  60.634 -52.908  1.00  0.00     0.034 A 
HETATM    9  C   UNL     1     -46.268  60.985 -51.576  1.00  0.00     0.002 A 
HETATM   10  C   UNL     1     -45.759  60.186 -50.563  1.00  0.00     0.002 A 
HETATM   11  C   UNL     1     -45.017  59.047 -50.891  1.00  0.00     0.034 A 
HETATM   12  C   UNL     1     -44.145  57.474 -56.037  1.00  0.00     0.110 C 
HETATM   13  C   UNL     1     -43.494  56.284 -55.739  1.00  0.00     0.143 C 
ENDROOT
BRANCH   1  14
HETATM   14  N   UNL     1     -42.016  55.800 -53.827  1.00  0.00    -0.176 NA
HETATM   15  C   UNL     1     -42.168  54.758 -53.077  1.00  0.00     0.153 C 
BRANCH  15  16
HETATM   16  C   UNL     1     -41.122  53.717 -53.008  1.00  0.00     0.019 A 
HETATM   17  C   UNL     1     -40.824  53.106 -51.787  1.00  0.00     0.113 A 
HETATM   18  C   UNL     1     -40.122  51.892 -51.777  1.00  0.00     0.102 A 
HETATM   19  C   UNL     1     -39.621  51.365 -52.970  1.00  0.00     0.040 A 
HETATM   20  C   UNL     1     -39.863  52.011 -54.181  1.00  0.00     0.004 A 
HETATM   21  C   UNL     1     -40.625  53.179 -54.204  1.00  0.00     0.016 A 
BRANCH  17  22
HETATM   22  O   UNL     1     -41.253  53.675 -50.614  1.00  0.00    -0.352 OA
HETATM   23  C   UNL     1     -40.175  54.421 -50.038  1.00  0.00     0.210 C 
ENDBRANCH  17  22
BRANCH  18  24
HETATM   24  O   UNL     1     -39.857  51.162 -50.647  1.00  0.00    -0.353 OA
HETATM   25  C   UNL     1     -39.487  49.811 -50.929  1.00  0.00     0.210 C 
ENDBRANCH  18  24
ENDBRANCH  15  16
ENDBRANCH   1  14
BRANCH  13  26
HETATM   26  N   UNL     1     -43.029  55.354 -56.623  1.00  0.00    -0.383 N 
HETATM   27  H   UNL     1     -42.110  55.428 -57.046  1.00  0.00     0.157 HD
HETATM   28  H   UNL     1     -43.264  54.375 -56.422  1.00  0.00     0.157 HD
ENDBRANCH  13  26
BRANCH  12  29
HETATM   29  C   UNL     1     -44.344  57.985 -57.385  1.00  0.00     0.258 C 
HETATM   30  N   UNL     1     -44.065  59.328 -57.531  1.00  0.00    -0.352 N 
HETATM   31  H   UNL     1     -43.789  59.824 -56.687  1.00  0.00     0.163 HD
HETATM   32  O   UNL     1     -44.630  57.256 -58.333  1.00  0.00    -0.267 OA
BRANCH  30  33
HETATM   33  C   UNL     1     -43.631  59.864 -58.813  1.00  0.00     0.084 C 
HETATM   34  C   UNL     1     -44.108  61.307 -58.991  1.00  0.00     0.025 C 
HETATM   35  C   UNL     1     -43.365  62.295 -58.093  1.00  0.00     0.002 C 
HETATM   36  C   UNL     1     -41.852  62.182 -58.254  1.00  0.00     0.000 C 
HETATM   37  C   UNL     1     -41.367  60.753 -58.039  1.00  0.00     0.002 C 
HETATM   38  C   UNL     1     -42.100  59.766 -58.948  1.00  0.00     0.025 C 
ENDBRANCH  30  33
ENDBRANCH  12  29
TORSDOF 7
ENDMDL
MODEL 4
REMARK VINA RESULT:      -8.4     16.537     18.985
REMARK  7 active torsions:
REMARK  status: ('A' for Active; 'I' for Inactive)
REMARK    1  A    between atoms: O_2  and  C_3 
REMARK    2  A    between atoms: C_4  and  O_5 
REMARK    3  A    between atoms: C_7  and  C_8 
REMARK    4  A    between atoms: N_9  and  N_10 
REMARK    5  A    between atoms: C_21  and  C_22 
REMARK       I    between atoms: C_22  and  N_23 
REMARK    6  A    between atoms: N_23  and  C_24 
REMARK    7  A    between atoms: C_31  and  N_32 
ROOT
HETATM    1  N   UNL     1     -37.794  39.527 -50.939  1.00  0.00    -0.197 N 
HETATM    2  C   UNL     1     -36.520  39.487 -50.392  1.00  0.00     0.183 A 
HETATM    3  C   UNL     1     -35.717  40.333 -51.145  1.00  0.00     0.125 A 
HETATM    4  N   UNL     1     -34.375  40.412 -50.947  1.00  0.00    -0.242 NA
HETATM    5  C   UNL     1     -33.919  39.668 -49.929  1.00  0.00     0.086 A 
HETATM    6  C   UNL     1     -34.761  38.832 -49.146  1.00  0.00     0.088 A 
HETATM    7  N   UNL     1     -36.081  38.703 -49.376  1.00  0.00    -0.225 NA
HETATM    8  C   UNL     1     -32.564  39.730 -49.632  1.00  0.00     0.034 A 
HETATM    9  C   UNL     1     -32.013  39.005 -48.574  1.00  0.00     0.002 A 
HETATM   10  C   UNL     1     -32.834  38.200 -47.798  1.00  0.00     0.002 A 
HETATM   11  C   UNL     1     -34.199  38.119 -48.093  1.00  0.00     0.034 A 
HETATM   12  C   UNL     1     -36.523  40.983 -52.107  1.00  0.00     0.110 C 
HETATM   13  C   UNL     1     -37.832  40.603 -51.847  1.00  0.00     0.143 C 
ENDROOT
BRANCH   1  14
HETATM   14  N   UNL     1     -38.641  38.442 -50.979  1.00  0.00    -0.176 NA
HETATM   15  C   UNL     1     -39.462  38.358 -49.985  1.00  0.00     0.153 C 
BRANCH  15  16
HETATM   16  C   UNL     1     -40.811  37.782 -50.165  1.00  0.00     0.019 A 
HETATM   17  C   UNL     1     -41.875  38.235 -49.380  1.00  0.00     0.113 A 
HETATM   18  C   UNL     1     -43.192  37.976 -49.787  1.00  0.00     0.102 A 
HETATM   19  C   UNL     1     -43.431  37.165 -50.900  1.00  0.00     0.040 A 
HETATM   20  C   UNL     1     -42.367  36.658 -51.643  1.00  0.00     0.004 A 
HETATM   21  C   UNL     1     -41.058  36.977 -51.286  1.00  0.00     0.016 A 
BRANCH  17  22
HETATM   22  O   UNL     1     -41.625  38.964 -48.244  1.00  0.00    -0.352 OA
HETATM   23  C   UNL     1     -41.533  38.070 -47.130  1.00  0.00     0.210 C 
ENDBRANCH  17  22
BRANCH  18  24
HETATM   24  O   UNL     1     -44.307  38.450 -49.146  1.00  0.00    -0.353 OA
HETATM   25  C   UNL     1     -44.963  37.456 -48.357  1.00  0.00     0.210 C 
ENDBRANCH  18  24
ENDBRANCH  15  16
ENDBRANCH   1  14
BRANCH  13  26
HETATM   26  N   UNL     1     -38.958  41.019 -52.497  1.00  0.00    -0.383 N 
HETATM   27  H   UNL     1     -39.176  40.714 -53.439  1.00  0.00     0.157 HD
HETATM   28  H   UNL     1     -39.810  41.100 -51.930  1.00  0.00     0.157 HD
ENDBRANCH  13  26
BRANCH  12  29
HETATM   29  C   UNL     1     -36.121  41.829 -53.221  1.00  0.00     0.258 C 
HETATM   30  N   UNL     1     -36.378  41.291 -54.466  1.00  0.00    -0.352 N 
HETATM   31  H   UNL     1     -36.782  40.358 -54.477  1.00  0.00     0.163 HD
HETATM   32  O   UNL     1     -35.691  42.969 -53.063  1.00  0.00    -0.267 OA
BRANCH  30  33
HETATM   33  C   UNL     1     -36.612  42.152 -55.616  1.00  0.00     0.084 C 
HETATM   34  C   UNL     1     -35.357  42.252 -56.487  1.00  0.00     0.025 C 
HETATM   35  C   UNL     1     -35.059  40.964 -57.252  1.00  0.00     0.002 C 
HETATM   36  C   UNL     1     -36.265  40.490 -58.058  1.00  0.00     0.000 C 
HETATM   37  C   UNL     1     -37.508  40.351 -57.187  1.00  0.00     0.002 C 
HETATM   38  C   UNL     1     -37.815  41.645 -56.433  1.00  0.00     0.025 C 
ENDBRANCH  30  33
ENDBRANCH  12  29
TORSDOF 7
ENDMDL
MODEL 5
REMARK VINA RESULT:      -8.2      1.941      2.530
REMARK  7 active torsions:
REMARK  status: ('A' for Active; 'I' for Inactive)
REMARK    1  A    between atoms: O_2  and  C_3 
REMARK    2  A    between atoms: C_4  and  O_5 
REMARK    3  A    between atoms: C_7  and  C_8 
REMARK    4  A    between atoms: N_9  and  N_10 
REMARK    5  A    between atoms: C_21  and  C_22 
REMARK       I    between atoms: C_22  and  N_23 
REMARK    6  A    between atoms: N_23  and  C_24 
REMARK    7  A    between atoms: C_31  and  N_32 
ROOT
HETATM    1  N   UNL     1     -42.864  56.083 -54.456  1.00  0.00    -0.197 N 
HETATM    2  C   UNL     1     -43.682  57.051 -53.890  1.00  0.00     0.183 A 
HETATM    3  C   UNL     1     -44.067  57.915 -54.906  1.00  0.00     0.125 A 
HETATM    4  N   UNL     1     -44.765  59.053 -54.652  1.00  0.00    -0.242 NA
HETATM    5  C   UNL     1     -45.105  59.221 -53.366  1.00  0.00     0.086 A 
HETATM    6  C   UNL     1     -44.731  58.308 -52.343  1.00  0.00     0.088 A 
HETATM    7  N   UNL     1     -43.987  57.212 -52.579  1.00  0.00    -0.225 NA
HETATM    8  C   UNL     1     -45.861  60.337 -53.032  1.00  0.00     0.034 A 
HETATM    9  C   UNL     1     -46.275  60.574 -51.721  1.00  0.00     0.002 A 
HETATM   10  C   UNL     1     -45.925  59.677 -50.722  1.00  0.00     0.002 A 
HETATM   11  C   UNL     1     -45.155  58.556 -51.042  1.00  0.00     0.034 A 
HETATM   12  C   UNL     1     -43.566  57.423 -56.133  1.00  0.00     0.110 C 
HETATM   13  C   UNL     1     -42.976  56.198 -55.854  1.00  0.00     0.143 C 
ENDROOT
BRANCH   1  14
HETATM   14  N   UNL     1     -41.793  55.514 -53.802  1.00  0.00    -0.176 NA
HETATM   15  C   UNL     1     -42.041  54.373 -53.249  1.00  0.00     0.153 C 
BRANCH  15  16
HETATM   16  C   UNL     1     -40.993  53.336 -53.154  1.00  0.00     0.019 A 
HETATM   17  C   UNL     1     -40.665  52.784 -51.912  1.00  0.00     0.113 A 
HETATM   18  C   UNL     1     -39.963  51.571 -51.859  1.00  0.00     0.102 A 
HETATM   19  C   UNL     1     -39.490  50.987 -53.037  1.00  0.00     0.040 A 
HETATM   20  C   UNL     1     -39.761  51.574 -54.272  1.00  0.00     0.004 A 
HETATM   21  C   UNL     1     -40.524  52.739 -54.333  1.00  0.00     0.016 A 
BRANCH  17  22
HETATM   22  O   UNL     1     -41.067  53.410 -50.758  1.00  0.00    -0.352 OA
HETATM   23  C   UNL     1     -39.974  54.175 -50.240  1.00  0.00     0.210 C 
ENDBRANCH  17  22
BRANCH  18  24
HETATM   24  O   UNL     1     -39.671  50.897 -50.702  1.00  0.00    -0.353 OA
HETATM   25  C   UNL     1     -39.554  49.486 -50.891  1.00  0.00     0.210 C 
ENDBRANCH  18  24
ENDBRANCH  15  16
ENDBRANCH   1  14
BRANCH  13  26
HETATM   26  N   UNL     1     -42.397  55.339 -56.743  1.00  0.00    -0.383 N 
HETATM   27  H   UNL     1     -42.941  54.849 -57.446  1.00  0.00     0.157 HD
HETATM   28  H   UNL     1     -41.480  55.613 -57.112  1.00  0.00     0.157 HD
ENDBRANCH  13  26
BRANCH  12  29
HETATM   29  C   UNL     1     -43.563  58.055 -57.444  1.00  0.00     0.258 C 
HETATM   30  N   UNL     1     -44.806  58.468 -57.878  1.00  0.00    -0.352 N 
HETATM   31  H   UNL     1     -45.589  58.259 -57.263  1.00  0.00     0.163 HD
HETATM   32  O   UNL     1     -42.527  58.296 -58.059  1.00  0.00    -0.267 OA
BRANCH  30  33
HETATM   33  C   UNL     1     -44.940  59.587 -58.801  1.00  0.00     0.084 C 
HETATM   34  C   UNL     1     -45.257  59.093 -60.214  1.00  0.00     0.025 C 
HETATM   35  C   UNL     1     -46.677  58.546 -60.349  1.00  0.00     0.002 C 
HETATM   36  C   UNL     1     -47.720  59.545 -59.857  1.00  0.00     0.000 C 
HETATM   37  C   UNL     1     -47.430  60.010 -58.434  1.00  0.00     0.002 C 
HETATM   38  C   UNL     1     -46.013  60.572 -58.303  1.00  0.00     0.025 C 
ENDBRANCH  30  33
ENDBRANCH  12  29
TORSDOF 7
ENDMDL
MODEL 6
REMARK VINA RESULT:      -8.1      2.296      5.285
REMARK  7 active torsions:
REMARK  status: ('A' for Active; 'I' for Inactive)
REMARK    1  A    between atoms: O_2  and  C_3 
REMARK    2  A    between atoms: C_4  and  O_5 
REMARK    3  A    between atoms: C_7  and  C_8 
REMARK    4  A    between atoms: N_9  and  N_10 
REMARK    5  A    between atoms: C_21  and  C_22 
REMARK       I    between atoms: C_22  and  N_23 
REMARK    6  A    between atoms: N_23  and  C_24 
REMARK    7  A    between atoms: C_31  and  N_32 
ROOT
HETATM    1  N   UNL     1     -41.827  56.613 -54.711  1.00  0.00    -0.197 N 
HETATM    2  C   UNL     1     -42.302  56.908 -55.980  1.00  0.00     0.183 A 
HETATM    3  C   UNL     1     -42.510  58.279 -56.038  1.00  0.00     0.125 A 
HETATM    4  N   UNL     1     -43.102  58.870 -57.110  1.00  0.00    -0.242 NA
HETATM    5  C   UNL     1     -43.394  58.032 -58.115  1.00  0.00     0.086 A 
HETATM    6  C   UNL     1     -43.143  56.634 -58.052  1.00  0.00     0.088 A 
HETATM    7  N   UNL     1     -42.614  56.034 -56.970  1.00  0.00    -0.225 NA
HETATM    8  C   UNL     1     -43.958  58.566 -59.265  1.00  0.00     0.034 A 
HETATM    9  C   UNL     1     -44.271  57.767 -60.366  1.00  0.00     0.002 A 
HETATM   10  C   UNL     1     -44.015  56.404 -60.314  1.00  0.00     0.002 A 
HETATM   11  C   UNL     1     -43.457  55.851 -59.158  1.00  0.00     0.034 A 
HETATM   12  C   UNL     1     -42.064  58.856 -54.827  1.00  0.00     0.110 C 
HETATM   13  C   UNL     1     -41.485  57.830 -54.092  1.00  0.00     0.143 C 
ENDROOT
BRANCH   1  14
HETATM   14  N   UNL     1     -42.132  55.452 -54.034  1.00  0.00    -0.176 NA
HETATM   15  C   UNL     1     -41.144  54.630 -53.897  1.00  0.00     0.153 C 
BRANCH  15  16
HETATM   16  C   UNL     1     -41.036  53.770 -52.700  1.00  0.00     0.019 A 
HETATM   17  C   UNL     1     -40.232  52.628 -52.730  1.00  0.00     0.113 A 
HETATM   18  C   UNL     1     -39.835  52.032 -51.524  1.00  0.00     0.102 A 
HETATM   19  C   UNL     1     -40.344  52.505 -50.312  1.00  0.00     0.040 A 
HETATM   20  C   UNL     1     -41.200  53.604 -50.288  1.00  0.00     0.004 A 
HETATM   21  C   UNL     1     -41.536  54.247 -51.479  1.00  0.00     0.016 A 
BRANCH  17  22
HETATM   22  O   UNL     1     -39.803  52.125 -53.933  1.00  0.00    -0.352 OA
HETATM   23  C   UNL     1     -40.644  51.028 -54.304  1.00  0.00     0.210 C 
ENDBRANCH  17  22
BRANCH  18  24
HETATM   24  O   UNL     1     -38.975  50.968 -51.434  1.00  0.00    -0.353 OA
HETATM   25  C   UNL     1     -39.590  49.798 -50.892  1.00  0.00     0.210 C 
ENDBRANCH  18  24
ENDBRANCH  15  16
ENDBRANCH   1  14
BRANCH  13  26
HETATM   26  N   UNL     1     -40.879  57.928 -52.873  1.00  0.00    -0.383 N 
HETATM   27  H   UNL     1     -40.951  57.192 -52.179  1.00  0.00     0.157 HD
HETATM   28  H   UNL     1     -39.948  58.358 -52.859  1.00  0.00     0.157 HD
ENDBRANCH  13  26
BRANCH  12  29
HETATM   29  C   UNL     1     -42.218  60.221 -54.348  1.00  0.00     0.258 C 
HETATM   30  N   UNL     1     -42.583  61.128 -55.323  1.00  0.00    -0.352 N 
HETATM   31  H   UNL     1     -42.670  60.761 -56.267  1.00  0.00     0.163 HD
HETATM   32  O   UNL     1     -42.137  60.517 -53.158  1.00  0.00    -0.267 OA
BRANCH  30  33
HETATM   33  C   UNL     1     -43.337  62.326 -54.981  1.00  0.00     0.084 C 
HETATM   34  C   UNL     1     -43.279  63.349 -56.118  1.00  0.00     0.025 C 
HETATM   35  C   UNL     1     -44.099  62.931 -57.337  1.00  0.00     0.002 C 
HETATM   36  C   UNL     1     -45.538  62.590 -56.964  1.00  0.00     0.000 C 
HETATM   37  C   UNL     1     -45.602  61.541 -55.858  1.00  0.00     0.002 C 
HETATM   38  C   UNL     1     -44.792  61.966 -54.632  1.00  0.00     0.025 C 
ENDBRANCH  30  33
ENDBRANCH  12  29
TORSDOF 7
ENDMDL
MODEL 7
REMARK VINA RESULT:      -8.1      2.245      3.226
REMARK  7 active torsions:
REMARK  status: ('A' for Active; 'I' for Inactive)
REMARK    1  A    between atoms: O_2  and  C_3 
REMARK    2  A    between atoms: C_4  and  O_5 
REMARK    3  A    between atoms: C_7  and  C_8 
REMARK    4  A    between atoms: N_9  and  N_10 
REMARK    5  A    between atoms: C_21  and  C_22 
REMARK       I    between atoms: C_22  and  N_23 
REMARK    6  A    between atoms: N_23  and  C_24 
REMARK    7  A    between atoms: C_31  and  N_32 
ROOT
HETATM    1  N   UNL     1     -43.547  55.651 -54.624  1.00  0.00    -0.197 N 
HETATM    2  C   UNL     1     -44.026  56.760 -53.941  1.00  0.00     0.183 A 
HETATM    3  C   UNL     1     -43.931  57.849 -54.797  1.00  0.00     0.125 A 
HETATM    4  N   UNL     1     -44.197  59.114 -54.380  1.00  0.00    -0.242 NA
HETATM    5  C   UNL     1     -44.622  59.203 -53.111  1.00  0.00     0.086 A 
HETATM    6  C   UNL     1     -44.746  58.073 -52.258  1.00  0.00     0.088 A 
HETATM    7  N   UNL     1     -44.425  56.825 -52.647  1.00  0.00    -0.225 NA
HETATM    8  C   UNL     1     -44.960  60.458 -52.623  1.00  0.00     0.034 A 
HETATM    9  C   UNL     1     -45.432  60.634 -51.321  1.00  0.00     0.002 A 
HETATM   10  C   UNL     1     -45.568  59.532 -50.490  1.00  0.00     0.002 A 
HETATM   11  C   UNL     1     -45.222  58.263 -50.965  1.00  0.00     0.034 A 
HETATM   12  C   UNL     1     -43.483  57.394 -56.059  1.00  0.00     0.110 C 
HETATM   13  C   UNL     1     -43.420  56.010 -55.979  1.00  0.00     0.143 C 
ENDROOT
BRANCH   1  14
HETATM   14  N   UNL     1     -42.853  54.626 -54.019  1.00  0.00    -0.176 NA
HETATM   15  C   UNL     1     -41.639  54.915 -53.686  1.00  0.00     0.153 C 
BRANCH  15  16
HETATM   16  C   UNL     1     -41.018  54.310 -52.490  1.00  0.00     0.019 A 
HETATM   17  C   UNL     1     -41.340  54.790 -51.217  1.00  0.00     0.113 A 
HETATM   18  C   UNL     1     -41.057  54.003 -50.091  1.00  0.00     0.102 A 
HETATM   19  C   UNL     1     -40.348  52.807 -50.236  1.00  0.00     0.040 A 
HETATM   20  C   UNL     1     -39.969  52.362 -51.501  1.00  0.00     0.004 A 
HETATM   21  C   UNL     1     -40.316  53.104 -52.630  1.00  0.00     0.016 A 
BRANCH  17  22
HETATM   22  O   UNL     1     -41.965  56.004 -51.082  1.00  0.00    -0.352 OA
HETATM   23  C   UNL     1     -40.982  57.002 -50.783  1.00  0.00     0.210 C 
ENDBRANCH  17  22
BRANCH  18  24
HETATM   24  O   UNL     1     -41.411  54.333 -48.809  1.00  0.00    -0.353 OA
HETATM   25  C   UNL     1     -40.425  53.962 -47.844  1.00  0.00     0.210 C 
ENDBRANCH  18  24
ENDBRANCH  15  16
ENDBRANCH   1  14
BRANCH  13  26
HETATM   26  N   UNL     1     -43.079  55.140 -56.974  1.00  0.00    -0.383 N 
HETATM   27  H   UNL     1     -43.731  54.882 -57.707  1.00  0.00     0.157 HD
HETATM   28  H   UNL     1     -42.124  55.219 -57.342  1.00  0.00     0.157 HD
ENDBRANCH  13  26
BRANCH  12  29
HETATM   29  C   UNL     1     -43.076  58.168 -57.222  1.00  0.00     0.258 C 
HETATM   30  N   UNL     1     -43.791  59.333 -57.409  1.00  0.00    -0.352 N 
HETATM   31  H   UNL     1     -44.542  59.511 -56.746  1.00  0.00     0.163 HD
HETATM   32  O   UNL     1     -42.107  57.862 -57.913  1.00  0.00    -0.267 OA
BRANCH  30  33
HETATM   33  C   UNL     1     -43.193  60.474 -58.088  1.00  0.00     0.084 C 
HETATM   34  C   UNL     1     -44.265  61.324 -58.774  1.00  0.00     0.025 C 
HETATM   35  C   UNL     1     -45.129  62.104 -57.785  1.00  0.00     0.002 C 
HETATM   36  C   UNL     1     -44.284  62.936 -56.825  1.00  0.00     0.000 C 
HETATM   37  C   UNL     1     -43.240  62.086 -56.109  1.00  0.00     0.002 C 
HETATM   38  C   UNL     1     -42.365  61.316 -57.100  1.00  0.00     0.025 C 
ENDBRANCH  30  33
ENDBRANCH  12  29
TORSDOF 7
ENDMDL
MODEL 8
REMARK VINA RESULT:      -7.9      2.127      3.082
REMARK  7 active torsions:
REMARK  status: ('A' for Active; 'I' for Inactive)
REMARK    1  A    between atoms: O_2  and  C_3 
REMARK    2  A    between atoms: C_4  and  O_5 
REMARK    3  A    between atoms: C_7  and  C_8 
REMARK    4  A    between atoms: N_9  and  N_10 
REMARK    5  A    between atoms: C_21  and  C_22 
REMARK       I    between atoms: C_22  and  N_23 
REMARK    6  A    between atoms: N_23  and  C_24 
REMARK    7  A    between atoms: C_31  and  N_32 
ROOT
HETATM    1  N   UNL     1     -43.176  55.899 -55.105  1.00  0.00    -0.197 N 
HETATM    2  C   UNL     1     -43.163  57.105 -54.419  1.00  0.00     0.183 A 
HETATM    3  C   UNL     1     -42.915  58.107 -55.347  1.00  0.00     0.125 A 
HETATM    4  N   UNL     1     -42.706  59.397 -54.971  1.00  0.00    -0.242 NA
HETATM    5  C   UNL     1     -42.833  59.618 -53.655  1.00  0.00     0.086 A 
HETATM    6  C   UNL     1     -43.122  58.586 -52.722  1.00  0.00     0.088 A 
HETATM    7  N   UNL     1     -43.269  57.297 -53.081  1.00  0.00    -0.225 NA
HETATM    8  C   UNL     1     -42.681  60.920 -53.195  1.00  0.00     0.034 A 
HETATM    9  C   UNL     1     -42.821  61.240 -51.844  1.00  0.00     0.002 A 
HETATM   10  C   UNL     1     -43.117  60.237 -50.933  1.00  0.00     0.002 A 
HETATM   11  C   UNL     1     -43.262  58.920 -51.379  1.00  0.00     0.034 A 
HETATM   12  C   UNL     1     -42.873  57.530 -56.637  1.00  0.00     0.110 C 
HETATM   13  C   UNL     1     -43.212  56.193 -56.480  1.00  0.00     0.143 C 
ENDROOT
BRANCH   1  14
HETATM   14  N   UNL     1     -42.718  54.715 -54.571  1.00  0.00    -0.176 NA
HETATM   15  C   UNL     1     -41.612  54.811 -53.909  1.00  0.00     0.153 C 
BRANCH  15  16
HETATM   16  C   UNL     1     -41.349  53.939 -52.745  1.00  0.00     0.019 A 
HETATM   17  C   UNL     1     -40.447  52.878 -52.857  1.00  0.00     0.113 A 
HETATM   18  C   UNL     1     -39.921  52.294 -51.695  1.00  0.00     0.102 A 
HETATM   19  C   UNL     1     -40.390  52.691 -50.441  1.00  0.00     0.040 A 
HETATM   20  C   UNL     1     -41.340  53.706 -50.333  1.00  0.00     0.004 A 
HETATM   21  C   UNL     1     -41.809  54.340 -51.483  1.00  0.00     0.016 A 
BRANCH  17  22
HETATM   22  O   UNL     1     -40.053  52.442 -54.098  1.00  0.00    -0.352 OA
HETATM   23  C   UNL     1     -40.762  51.239 -54.415  1.00  0.00     0.210 C 
ENDBRANCH  17  22
BRANCH  18  24
HETATM   24  O   UNL     1     -38.964  51.313 -51.689  1.00  0.00    -0.353 OA
HETATM   25  C   UNL     1     -39.431  50.080 -51.137  1.00  0.00     0.210 C 
ENDBRANCH  18  24
ENDBRANCH  15  16
ENDBRANCH   1  14
BRANCH  13  26
HETATM   26  N   UNL     1     -43.343  55.254 -57.463  1.00  0.00    -0.383 N 
HETATM   27  H   UNL     1     -43.401  54.264 -57.253  1.00  0.00     0.157 HD
HETATM   28  H   UNL     1     -43.952  55.500 -58.252  1.00  0.00     0.157 HD
ENDBRANCH  13  26
BRANCH  12  29
HETATM   29  C   UNL     1     -42.485  58.135 -57.902  1.00  0.00     0.258 C 
HETATM   30  N   UNL     1     -42.594  59.511 -57.931  1.00  0.00    -0.352 N 
HETATM   31  H   UNL     1     -42.963  59.950 -57.092  1.00  0.00     0.163 HD
HETATM   32  O   UNL     1     -42.000  57.484 -58.824  1.00  0.00    -0.267 OA
BRANCH  30  33
HETATM   33  C   UNL     1     -41.743  60.307 -58.804  1.00  0.00     0.084 C 
HETATM   34  C   UNL     1     -42.487  60.702 -60.081  1.00  0.00     0.025 C 
HETATM   35  C   UNL     1     -43.571  61.751 -59.838  1.00  0.00     0.002 C 
HETATM   36  C   UNL     1     -43.024  62.974 -59.108  1.00  0.00     0.000 C 
HETATM   37  C   UNL     1     -42.315  62.589 -57.814  1.00  0.00     0.002 C 
HETATM   38  C   UNL     1     -41.220  61.550 -58.060  1.00  0.00     0.025 C 
ENDBRANCH  30  33
ENDBRANCH  12  29
TORSDOF 7
ENDMDL
MODEL 9
REMARK VINA RESULT:      -7.9      1.919      6.011
REMARK  7 active torsions:
REMARK  status: ('A' for Active; 'I' for Inactive)
REMARK    1  A    between atoms: O_2  and  C_3 
REMARK    2  A    between atoms: C_4  and  O_5 
REMARK    3  A    between atoms: C_7  and  C_8 
REMARK    4  A    between atoms: N_9  and  N_10 
REMARK    5  A    between atoms: C_21  and  C_22 
REMARK       I    between atoms: C_22  and  N_23 
REMARK    6  A    between atoms: N_23  and  C_24 
REMARK    7  A    between atoms: C_31  and  N_32 
ROOT
HETATM    1  N   UNL     1     -42.161  58.744 -55.523  1.00  0.00    -0.197 N 
HETATM    2  C   UNL     1     -42.866  58.194 -56.584  1.00  0.00     0.183 A 
HETATM    3  C   UNL     1     -44.059  58.894 -56.697  1.00  0.00     0.125 A 
HETATM    4  N   UNL     1     -45.037  58.510 -57.560  1.00  0.00    -0.242 NA
HETATM    5  C   UNL     1     -44.717  57.460 -58.329  1.00  0.00     0.086 A 
HETATM    6  C   UNL     1     -43.475  56.775 -58.224  1.00  0.00     0.088 A 
HETATM    7  N   UNL     1     -42.529  57.112 -57.328  1.00  0.00    -0.225 NA
HETATM    8  C   UNL     1     -45.644  57.035 -59.271  1.00  0.00     0.034 A 
HETATM    9  C   UNL     1     -45.381  55.964 -60.126  1.00  0.00     0.002 A 
HETATM   10  C   UNL     1     -44.165  55.302 -60.036  1.00  0.00     0.002 A 
HETATM   11  C   UNL     1     -43.226  55.712 -59.085  1.00  0.00     0.034 A 
HETATM   12  C   UNL     1     -44.053  59.954 -55.762  1.00  0.00     0.110 C 
HETATM   13  C   UNL     1     -42.797  59.948 -55.169  1.00  0.00     0.143 C 
ENDROOT
BRANCH   1  14
HETATM   14  N   UNL     1     -41.359  58.007 -54.679  1.00  0.00    -0.176 NA
HETATM   15  C   UNL     1     -41.977  57.102 -53.995  1.00  0.00     0.153 C 
BRANCH  15  16
HETATM   16  C   UNL     1     -41.307  55.836 -53.635  1.00  0.00     0.019 A 
HETATM   17  C   UNL     1     -41.529  55.260 -52.382  1.00  0.00     0.113 A 
HETATM   18  C   UNL     1     -41.207  53.910 -52.176  1.00  0.00     0.102 A 
HETATM   19  C   UNL     1     -40.557  53.187 -53.179  1.00  0.00     0.040 A 
HETATM   20  C   UNL     1     -40.276  53.784 -54.407  1.00  0.00     0.004 A 
HETATM   21  C   UNL     1     -40.663  55.102 -54.642  1.00  0.00     0.016 A 
BRANCH  17  22
HETATM   22  O   UNL     1     -42.096  56.004 -51.377  1.00  0.00    -0.352 OA
HETATM   23  C   UNL     1     -41.056  56.537 -50.550  1.00  0.00     0.210 C 
ENDBRANCH  17  22
BRANCH  18  24
HETATM   24  O   UNL     1     -41.467  53.221 -51.019  1.00  0.00    -0.353 OA
HETATM   25  C   UNL     1     -40.362  52.426 -50.583  1.00  0.00     0.210 C 
ENDBRANCH  18  24
ENDBRANCH  15  16
ENDBRANCH   1  14
BRANCH  13  26
HETATM   26  N   UNL     1     -42.321  60.822 -54.235  1.00  0.00    -0.383 N 
HETATM   27  H   UNL     1     -42.900  61.160 -53.473  1.00  0.00     0.157 HD
HETATM   28  H   UNL     1     -41.353  60.679 -53.926  1.00  0.00     0.157 HD
ENDBRANCH  13  26
BRANCH  12  29
HETATM   29  C   UNL     1     -45.132  60.856 -55.387  1.00  0.00     0.258 C 
HETATM   30  N   UNL     1     -45.678  60.605 -54.145  1.00  0.00    -0.352 N 
HETATM   31  H   UNL     1     -45.301  59.806 -53.642  1.00  0.00     0.163 HD
HETATM   32  O   UNL     1     -45.452  61.824 -56.074  1.00  0.00    -0.267 OA
BRANCH  30  33
HETATM   33  C   UNL     1     -46.291  61.675 -53.371  1.00  0.00     0.084 C 
HETATM   34  C   UNL     1     -47.138  61.106 -52.231  1.00  0.00     0.025 C 
HETATM   35  C   UNL     1     -46.297  60.497 -51.110  1.00  0.00     0.002 C 
HETATM   36  C   UNL     1     -45.246  61.475 -50.593  1.00  0.00     0.000 C 
HETATM   37  C   UNL     1     -44.374  62.015 -51.721  1.00  0.00     0.002 C 
HETATM   38  C   UNL     1     -45.215  62.638 -52.835  1.00  0.00     0.025 C 
ENDBRANCH  30  33
ENDBRANCH  12  29
TORSDOF 7
ENDMDL
MODEL 10
REMARK VINA RESULT:      -7.8      2.811      6.991
REMARK  7 active torsions:
REMARK  status: ('A' for Active; 'I' for Inactive)
REMARK    1  A    between atoms: O_2  and  C_3 
REMARK    2  A    between atoms: C_4  and  O_5 
REMARK    3  A    between atoms: C_7  and  C_8 
REMARK    4  A    between atoms: N_9  and  N_10 
REMARK    5  A    between atoms: C_21  and  C_22 
REMARK       I    between atoms: C_22  and  N_23 
REMARK    6  A    between atoms: N_23  and  C_24 
REMARK    7  A    between atoms: C_31  and  N_32 
ROOT
HETATM    1  N   UNL     1     -42.460  59.058 -53.411  1.00  0.00    -0.197 N 
HETATM    2  C   UNL     1     -42.033  57.750 -53.594  1.00  0.00     0.183 A 
HETATM    3  C   UNL     1     -41.784  57.580 -54.949  1.00  0.00     0.125 A 
HETATM    4  N   UNL     1     -41.479  56.364 -55.475  1.00  0.00    -0.242 NA
HETATM    5  C   UNL     1     -41.371  55.380 -54.571  1.00  0.00     0.086 A 
HETATM    6  C   UNL     1     -41.597  55.578 -53.182  1.00  0.00     0.088 A 
HETATM    7  N   UNL     1     -41.960  56.766 -52.663  1.00  0.00    -0.225 NA
HETATM    8  C   UNL     1     -41.016  54.116 -55.024  1.00  0.00     0.034 A 
HETATM    9  C   UNL     1     -40.861  53.042 -54.146  1.00  0.00     0.002 A 
HETATM   10  C   UNL     1     -41.066  53.235 -52.788  1.00  0.00     0.002 A 
HETATM   11  C   UNL     1     -41.435  54.500 -52.320  1.00  0.00     0.034 A 
HETATM   12  C   UNL     1     -41.960  58.822 -55.601  1.00  0.00     0.110 C 
HETATM   13  C   UNL     1     -42.205  59.758 -54.605  1.00  0.00     0.143 C 
ENDROOT
BRANCH   1  14
HETATM   14  N   UNL     1     -43.398  59.428 -52.473  1.00  0.00    -0.176 NA
HETATM   15  C   UNL     1     -42.910  59.938 -51.390  1.00  0.00     0.153 C 
BRANCH  15  16
HETATM   16  C   UNL     1     -43.645  60.982 -50.647  1.00  0.00     0.019 A 
HETATM   17  C   UNL     1     -44.787  60.645 -49.915  1.00  0.00     0.113 A 
HETATM   18  C   UNL     1     -45.261  61.527 -48.932  1.00  0.00     0.102 A 
HETATM   19  C   UNL     1     -44.668  62.782 -48.776  1.00  0.00     0.040 A 
HETATM   20  C   UNL     1     -43.570  63.143 -49.555  1.00  0.00     0.004 A 
HETATM   21  C   UNL     1     -43.048  62.240 -50.480  1.00  0.00     0.016 A 
BRANCH  17  22
HETATM   22  O   UNL     1     -45.409  59.441 -50.132  1.00  0.00    -0.352 OA
HETATM   23  C   UNL     1     -46.416  59.613 -51.135  1.00  0.00     0.210 C 
ENDBRANCH  17  22
BRANCH  18  24
HETATM   24  O   UNL     1     -46.313  61.257 -48.095  1.00  0.00    -0.353 OA
HETATM   25  C   UNL     1     -45.901  60.730 -46.833  1.00  0.00     0.210 C 
ENDBRANCH  18  24
ENDBRANCH  15  16
ENDBRANCH   1  14
BRANCH  13  26
HETATM   26  N   UNL     1     -42.393  61.101 -54.762  1.00  0.00    -0.383 N 
HETATM   27  H   UNL     1     -43.105  61.473 -55.381  1.00  0.00     0.157 HD
HETATM   28  H   UNL     1     -42.302  61.677 -53.918  1.00  0.00     0.157 HD
ENDBRANCH  13  26
BRANCH  12  29
HETATM   29  C   UNL     1     -41.973  59.118 -57.026  1.00  0.00     0.258 C 
HETATM   30  N   UNL     1     -42.725  58.242 -57.781  1.00  0.00    -0.352 N 
HETATM   31  H   UNL     1     -43.156  57.471 -57.278  1.00  0.00     0.163 HD
HETATM   32  O   UNL     1     -41.448  60.125 -57.496  1.00  0.00    -0.267 OA
BRANCH  30  33
HETATM   33  C   UNL     1     -43.336  58.671 -59.031  1.00  0.00     0.084 C 
HETATM   34  C   UNL     1     -42.994  57.704 -60.166  1.00  0.00     0.025 C 
HETATM   35  C   UNL     1     -43.709  56.360 -60.039  1.00  0.00     0.002 C 
HETATM   36  C   UNL     1     -45.217  56.531 -59.884  1.00  0.00     0.000 C 
HETATM   37  C   UNL     1     -45.565  57.464 -58.729  1.00  0.00     0.002 C 
HETATM   38  C   UNL     1     -44.860  58.815 -58.865  1.00  0.00     0.025 C 
ENDBRANCH  30  33
ENDBRANCH  12  29
TORSDOF 7
ENDMDL
