MODEL 1
REMARK VINA RESULT:      -7.7      0.000      0.000
REMARK  6 active torsions:
REMARK  status: ('A' for Active; 'I' for Inactive)
REMARK    1  A    between atoms: C_2  and  O_3 
REMARK    2  A    between atoms: O_3  and  C_4 
REMARK    3  A    between atoms: C_4  and  C_6 
REMARK    4  A    between atoms: C_8  and  N_9 
REMARK    5  A    between atoms: N_9  and  C_10 
REMARK    6  A    between atoms: C_18  and  C_19 
ROOT
HETATM    1  C   UNL     1     -41.345  58.527 -53.688  1.00  0.00     0.115 A 
HETATM    2  S   UNL     1     -42.161  59.812 -54.485  1.00  0.00    -0.043 SA
HETATM    3  C   UNL     1     -43.243  58.689 -55.222  1.00  0.00     0.172 A 
HETATM    4  N   UNL     1     -42.988  57.436 -54.930  1.00  0.00    -0.220 NA
HETATM    5  C   UNL     1     -41.904  57.325 -54.068  1.00  0.00     0.118 A 
ENDROOT
BRANCH   3   6
HETATM    6  N   UNL     1     -44.248  59.165 -55.992  1.00  0.00    -0.335 N 
HETATM    7  H   UNL     1     -44.605  60.083 -55.755  1.00  0.00     0.168 HD
BRANCH   6   8
HETATM    8  C   UNL     1     -44.938  58.528 -57.039  1.00  0.00     0.034 A 
HETATM    9  C   UNL     1     -44.190  58.002 -58.108  1.00  0.00     0.031 A 
HETATM   10  C   UNL     1     -44.813  57.396 -59.205  1.00  0.00     0.021 A 
HETATM   11  C   UNL     1     -46.200  57.306 -59.245  1.00  0.00     0.011 A 
HETATM   12 BR   UNL     1     -47.049  56.495 -60.725  1.00  0.00    -0.051 Br
HETATM   13  C   UNL     1     -46.963  57.816 -58.202  1.00  0.00     0.021 A 
HETATM   14  C   UNL     1     -46.333  58.425 -57.110  1.00  0.00     0.031 A 
ENDBRANCH   6   8
ENDBRANCH   3   6
BRANCH   1  15
HETATM   15  C   UNL     1     -40.317  58.814 -52.722  1.00  0.00     0.302 C 
HETATM   16  O   UNL     1     -39.167  59.146 -52.977  1.00  0.00    -0.259 OA
BRANCH  15  17
HETATM   17  O   UNL     1     -40.792  58.588 -51.459  1.00  0.00    -0.317 OA
BRANCH  17  18
HETATM   18  C   UNL     1     -40.676  59.687 -50.543  1.00  0.00     0.174 C 
HETATM   19  C   UNL     1     -41.933  60.537 -50.588  1.00  0.00     0.034 C 
ENDBRANCH  17  18
ENDBRANCH  15  17
ENDBRANCH   1  15
BRANCH   5  20
HETATM   20  C   UNL     1     -41.404  55.971 -53.639  1.00  0.00     0.129 A 
HETATM   21  N   UNL     1     -40.947  55.080 -54.491  1.00  0.00    -0.238 NA
HETATM   22  C   UNL     1     -40.549  53.938 -53.816  1.00  0.00     0.075 A 
HETATM   23  C   UNL     1     -39.981  52.787 -54.400  1.00  0.00     0.033 A 
HETATM   24  C   UNL     1     -40.743  53.961 -52.434  1.00  0.00     0.035 A 
HETATM   25  C   UNL     1     -39.624  51.701 -53.592  1.00  0.00     0.002 A 
HETATM   26  C   UNL     1     -39.828  51.747 -52.217  1.00  0.00     0.002 A 
HETATM   27  C   UNL     1     -40.391  52.877 -51.615  1.00  0.00     0.021 A 
HETATM   28  S   UNL     1     -41.444  55.469 -51.996  1.00  0.00    -0.066 SA
ENDBRANCH   5  20
TORSDOF 6
ENDMDL
MODEL 2
REMARK VINA RESULT:      -7.6      1.652      2.288
REMARK  6 active torsions:
REMARK  status: ('A' for Active; 'I' for Inactive)
REMARK    1  A    between atoms: C_2  and  O_3 
REMARK    2  A    between atoms: O_3  and  C_4 
REMARK    3  A    between atoms: C_4  and  C_6 
REMARK    4  A    between atoms: C_8  and  N_9 
REMARK    5  A    between atoms: N_9  and  C_10 
REMARK    6  A    between atoms: C_18  and  C_19 
ROOT
HETATM    1  C   UNL     1     -41.833  56.331 -53.434  1.00  0.00     0.115 A 
HETATM    2  S   UNL     1     -42.242  57.620 -54.494  1.00  0.00    -0.043 SA
HETATM    3  C   UNL     1     -41.970  56.603 -55.861  1.00  0.00     0.172 A 
HETATM    4  N   UNL     1     -41.560  55.396 -55.552  1.00  0.00    -0.220 NA
HETATM    5  C   UNL     1     -41.466  55.228 -54.176  1.00  0.00     0.118 A 
ENDROOT
BRANCH   3   6
HETATM    6  N   UNL     1     -42.216  57.097 -57.096  1.00  0.00    -0.335 N 
HETATM    7  H   UNL     1     -41.499  57.685 -57.501  1.00  0.00     0.168 HD
BRANCH   6   8
HETATM    8  C   UNL     1     -43.378  56.976 -57.881  1.00  0.00     0.034 A 
HETATM    9  C   UNL     1     -43.428  55.956 -58.847  1.00  0.00     0.031 A 
HETATM   10  C   UNL     1     -44.533  55.807 -59.694  1.00  0.00     0.021 A 
HETATM   11  C   UNL     1     -45.608  56.682 -59.581  1.00  0.00     0.011 A 
HETATM   12 BR   UNL     1     -47.101  56.491 -60.723  1.00  0.00    -0.051 Br
HETATM   13  C   UNL     1     -45.586  57.698 -58.633  1.00  0.00     0.021 A 
HETATM   14  C   UNL     1     -44.475  57.843 -57.793  1.00  0.00     0.031 A 
ENDBRANCH   6   8
ENDBRANCH   3   6
BRANCH   1  15
HETATM   15  C   UNL     1     -41.991  56.488 -52.012  1.00  0.00     0.302 C 
HETATM   16  O   UNL     1     -42.945  56.102 -51.350  1.00  0.00    -0.259 OA
BRANCH  15  17
HETATM   17  O   UNL     1     -40.943  57.208 -51.506  1.00  0.00    -0.317 OA
BRANCH  17  18
HETATM   18  C   UNL     1     -41.291  58.416 -50.815  1.00  0.00     0.174 C 
HETATM   19  C   UNL     1     -40.051  59.263 -50.592  1.00  0.00     0.034 C 
ENDBRANCH  17  18
ENDBRANCH  15  17
ENDBRANCH   1  15
BRANCH   5  20
HETATM   20  C   UNL     1     -40.966  53.931 -53.597  1.00  0.00     0.129 A 
HETATM   21  N   UNL     1     -40.836  52.836 -54.314  1.00  0.00    -0.238 NA
HETATM   22  C   UNL     1     -40.348  51.807 -53.527  1.00  0.00     0.075 A 
HETATM   23  C   UNL     1     -40.056  50.499 -53.962  1.00  0.00     0.033 A 
HETATM   24  C   UNL     1     -40.140  52.128 -52.184  1.00  0.00     0.035 A 
HETATM   25  C   UNL     1     -39.566  49.555 -53.051  1.00  0.00     0.002 A 
HETATM   26  C   UNL     1     -39.367  49.899 -51.718  1.00  0.00     0.002 A 
HETATM   27  C   UNL     1     -39.651  51.189 -51.262  1.00  0.00     0.021 A 
HETATM   28  S   UNL     1     -40.574  53.772 -51.932  1.00  0.00    -0.066 SA
ENDBRANCH   5  20
TORSDOF 6
ENDMDL
MODEL 3
REMARK VINA RESULT:      -7.5      3.301      7.448
REMARK  6 active torsions:
REMARK  status: ('A' for Active; 'I' for Inactive)
REMARK    1  A    between atoms: C_2  and  O_3 
REMARK    2  A    between atoms: O_3  and  C_4 
REMARK    3  A    between atoms: C_4  and  C_6 
REMARK    4  A    between atoms: C_8  and  N_9 
REMARK    5  A    between atoms: N_9  and  C_10 
REMARK    6  A    between atoms: C_18  and  C_19 
ROOT
HETATM    1  C   UNL     1     -42.256  58.813 -55.381  1.00  0.00     0.115 A 
HETATM    2  S   UNL     1     -41.315  58.545 -53.968  1.00  0.00    -0.043 SA
HETATM    3  C   UNL     1     -41.745  56.875 -53.978  1.00  0.00     0.172 A 
HETATM    4  N   UNL     1     -42.570  56.544 -54.943  1.00  0.00    -0.220 NA
HETATM    5  C   UNL     1     -42.880  57.637 -55.743  1.00  0.00     0.118 A 
ENDROOT
BRANCH   3   6
HETATM    6  N   UNL     1     -41.202  56.059 -53.046  1.00  0.00    -0.335 N 
HETATM    7  H   UNL     1     -40.991  56.474 -52.147  1.00  0.00     0.168 HD
BRANCH   6   8
HETATM    8  C   UNL     1     -40.803  54.716 -53.172  1.00  0.00     0.034 A 
HETATM    9  C   UNL     1     -40.639  54.186 -54.464  1.00  0.00     0.031 A 
HETATM   10  C   UNL     1     -40.290  52.846 -54.664  1.00  0.00     0.021 A 
HETATM   11  C   UNL     1     -40.097  52.014 -53.566  1.00  0.00     0.011 A 
HETATM   12 BR   UNL     1     -39.631  50.202 -53.827  1.00  0.00    -0.051 Br
HETATM   13  C   UNL     1     -40.252  52.512 -52.278  1.00  0.00     0.021 A 
HETATM   14  C   UNL     1     -40.606  53.852 -52.086  1.00  0.00     0.031 A 
ENDBRANCH   6   8
ENDBRANCH   3   6
BRANCH   1  15
HETATM   15  C   UNL     1     -42.226  60.093 -56.036  1.00  0.00     0.302 C 
HETATM   16  O   UNL     1     -42.914  61.063 -55.746  1.00  0.00    -0.259 OA
BRANCH  15  17
HETATM   17  O   UNL     1     -41.361  60.052 -57.095  1.00  0.00    -0.317 OA
BRANCH  17  18
HETATM   18  C   UNL     1     -41.761  60.790 -58.258  1.00  0.00     0.174 C 
HETATM   19  C   UNL     1     -42.322  59.846 -59.306  1.00  0.00     0.034 C 
ENDBRANCH  17  18
ENDBRANCH  15  17
ENDBRANCH   1  15
BRANCH   5  20
HETATM   20  C   UNL     1     -43.852  57.496 -56.885  1.00  0.00     0.129 A 
HETATM   21  N   UNL     1     -43.636  56.697 -57.907  1.00  0.00    -0.238 NA
HETATM   22  C   UNL     1     -44.697  56.763 -58.793  1.00  0.00     0.075 A 
HETATM   23  C   UNL     1     -44.827  56.022 -59.986  1.00  0.00     0.033 A 
HETATM   24  C   UNL     1     -45.713  57.655 -58.446  1.00  0.00     0.035 A 
HETATM   25  C   UNL     1     -45.959  56.192 -60.791  1.00  0.00     0.002 A 
HETATM   26  C   UNL     1     -46.959  57.087 -60.424  1.00  0.00     0.002 A 
HETATM   27  C   UNL     1     -46.852  57.834 -59.247  1.00  0.00     0.021 A 
HETATM   28  S   UNL     1     -45.301  58.417 -56.961  1.00  0.00    -0.066 SA
ENDBRANCH   5  20
TORSDOF 6
ENDMDL
MODEL 4
REMARK VINA RESULT:      -7.4      2.420      5.050
REMARK  6 active torsions:
REMARK  status: ('A' for Active; 'I' for Inactive)
REMARK    1  A    between atoms: C_2  and  O_3 
REMARK    2  A    between atoms: O_3  and  C_4 
REMARK    3  A    between atoms: C_4  and  C_6 
REMARK    4  A    between atoms: C_8  and  N_9 
REMARK    5  A    between atoms: N_9  and  C_10 
REMARK    6  A    between atoms: C_18  and  C_19 
ROOT
HETATM    1  C   UNL     1     -42.739  54.902 -54.353  1.00  0.00     0.115 A 
HETATM    2  S   UNL     1     -43.060  54.161 -55.871  1.00  0.00    -0.043 SA
HETATM    3  C   UNL     1     -42.733  55.647 -56.683  1.00  0.00     0.172 A 
HETATM    4  N   UNL     1     -42.446  56.642 -55.878  1.00  0.00    -0.220 NA
HETATM    5  C   UNL     1     -42.456  56.238 -54.548  1.00  0.00     0.118 A 
ENDROOT
BRANCH   3   6
HETATM    6  N   UNL     1     -42.769  55.669 -58.035  1.00  0.00    -0.335 N 
HETATM    7  H   UNL     1     -41.879  55.601 -58.513  1.00  0.00     0.168 HD
BRANCH   6   8
HETATM    8  C   UNL     1     -43.872  55.858 -58.887  1.00  0.00     0.034 A 
HETATM    9  C   UNL     1     -44.657  57.012 -58.719  1.00  0.00     0.031 A 
HETATM   10  C   UNL     1     -45.795  57.241 -59.499  1.00  0.00     0.021 A 
HETATM   11  C   UNL     1     -46.164  56.312 -60.467  1.00  0.00     0.011 A 
HETATM   12 BR   UNL     1     -47.702  56.611 -61.522  1.00  0.00    -0.051 Br
HETATM   13  C   UNL     1     -45.406  55.163 -60.656  1.00  0.00     0.021 A 
HETATM   14  C   UNL     1     -44.271  54.939 -59.867  1.00  0.00     0.031 A 
ENDBRANCH   6   8
ENDBRANCH   3   6
BRANCH   1  15
HETATM   15  C   UNL     1     -42.707  54.107 -53.154  1.00  0.00     0.302 C 
HETATM   16  O   UNL     1     -43.478  54.204 -52.209  1.00  0.00    -0.259 OA
BRANCH  15  17
HETATM   17  O   UNL     1     -41.632  53.262 -53.187  1.00  0.00    -0.317 OA
BRANCH  17  18
HETATM   18  C   UNL     1     -40.464  53.710 -52.483  1.00  0.00     0.174 C 
HETATM   19  C   UNL     1     -39.981  52.627 -51.536  1.00  0.00     0.034 C 
ENDBRANCH  17  18
ENDBRANCH  15  17
ENDBRANCH   1  15
BRANCH   5  20
HETATM   20  C   UNL     1     -42.201  57.232 -53.446  1.00  0.00     0.129 A 
HETATM   21  N   UNL     1     -41.027  57.367 -52.869  1.00  0.00    -0.238 NA
HETATM   22  C   UNL     1     -41.083  58.358 -51.904  1.00  0.00     0.075 A 
HETATM   23  C   UNL     1     -40.008  58.797 -51.105  1.00  0.00     0.033 A 
HETATM   24  C   UNL     1     -42.334  58.953 -51.729  1.00  0.00     0.035 A 
HETATM   25  C   UNL     1     -40.210  59.812 -50.163  1.00  0.00     0.002 A 
HETATM   26  C   UNL     1     -41.466  60.390 -50.006  1.00  0.00     0.002 A 
HETATM   27  C   UNL     1     -42.548  59.970 -50.785  1.00  0.00     0.021 A 
HETATM   28  S   UNL     1     -43.450  58.233 -52.820  1.00  0.00    -0.066 SA
ENDBRANCH   5  20
TORSDOF 6
ENDMDL
MODEL 5
REMARK VINA RESULT:      -7.3      2.367      5.422
REMARK  6 active torsions:
REMARK  status: ('A' for Active; 'I' for Inactive)
REMARK    1  A    between atoms: C_2  and  O_3 
REMARK    2  A    between atoms: O_3  and  C_4 
REMARK    3  A    between atoms: C_4  and  C_6 
REMARK    4  A    between atoms: C_8  and  N_9 
REMARK    5  A    between atoms: N_9  and  C_10 
REMARK    6  A    between atoms: C_18  and  C_19 
ROOT
HETATM    1  C   UNL     1     -42.637  55.194 -54.226  1.00  0.00     0.115 A 
HETATM    2  S   UNL     1     -42.719  54.350 -55.720  1.00  0.00    -0.043 SA
HETATM    3  C   UNL     1     -42.764  55.844 -56.580  1.00  0.00     0.172 A 
HETATM    4  N   UNL     1     -42.762  56.904 -55.807  1.00  0.00    -0.220 NA
HETATM    5  C   UNL     1     -42.702  56.552 -54.464  1.00  0.00     0.118 A 
ENDROOT
BRANCH   3   6
HETATM    6  N   UNL     1     -42.769  55.814 -57.933  1.00  0.00    -0.335 N 
HETATM    7  H   UNL     1     -41.868  55.740 -58.389  1.00  0.00     0.168 HD
BRANCH   6   8
HETATM    8  C   UNL     1     -43.856  55.956 -58.816  1.00  0.00     0.034 A 
HETATM    9  C   UNL     1     -44.624  57.132 -58.745  1.00  0.00     0.031 A 
HETATM   10  C   UNL     1     -45.746  57.320 -59.560  1.00  0.00     0.021 A 
HETATM   11  C   UNL     1     -46.113  56.328 -60.464  1.00  0.00     0.011 A 
HETATM   12 BR   UNL     1     -47.629  56.571 -61.564  1.00  0.00    -0.051 Br
HETATM   13  C   UNL     1     -45.371  55.157 -60.556  1.00  0.00     0.021 A 
HETATM   14  C   UNL     1     -44.253  54.975 -59.733  1.00  0.00     0.031 A 
ENDBRANCH   6   8
ENDBRANCH   3   6
BRANCH   1  15
HETATM   15  C   UNL     1     -42.434  54.472 -52.998  1.00  0.00     0.302 C 
HETATM   16  O   UNL     1     -43.313  54.071 -52.247  1.00  0.00    -0.259 OA
BRANCH  15  17
HETATM   17  O   UNL     1     -41.094  54.356 -52.745  1.00  0.00    -0.317 OA
BRANCH  17  18
HETATM   18  C   UNL     1     -40.620  53.027 -52.487  1.00  0.00     0.174 C 
HETATM   19  C   UNL     1     -40.111  52.398 -53.772  1.00  0.00     0.034 C 
ENDBRANCH  17  18
ENDBRANCH  15  17
ENDBRANCH   1  15
BRANCH   5  20
HETATM   20  C   UNL     1     -42.739  57.611 -53.394  1.00  0.00     0.129 A 
HETATM   21  N   UNL     1     -43.862  58.085 -52.902  1.00  0.00    -0.238 NA
HETATM   22  C   UNL     1     -43.592  59.034 -51.931  1.00  0.00     0.075 A 
HETATM   23  C   UNL     1     -44.549  59.733 -51.167  1.00  0.00     0.033 A 
HETATM   24  C   UNL     1     -42.239  59.302 -51.715  1.00  0.00     0.035 A 
HETATM   25  C   UNL     1     -44.131  60.670 -50.216  1.00  0.00     0.002 A 
HETATM   26  C   UNL     1     -42.777  60.920 -50.018  1.00  0.00     0.002 A 
HETATM   27  C   UNL     1     -41.809  60.241 -50.764  1.00  0.00     0.021 A 
HETATM   28  S   UNL     1     -41.303  58.320 -52.771  1.00  0.00    -0.066 SA
ENDBRANCH   5  20
TORSDOF 6
ENDMDL
MODEL 6
REMARK VINA RESULT:      -7.2      3.353      7.230
REMARK  6 active torsions:
REMARK  status: ('A' for Active; 'I' for Inactive)
REMARK    1  A    between atoms: C_2  and  O_3 
REMARK    2  A    between atoms: O_3  and  C_4 
REMARK    3  A    between atoms: C_4  and  C_6 
REMARK    4  A    between atoms: C_8  and  N_9 
REMARK    5  A    between atoms: N_9  and  C_10 
REMARK    6  A    between atoms: C_18  and  C_19 
ROOT
HETATM    1  C   UNL     1     -43.081  58.444 -53.079  1.00  0.00     0.115 A 
HETATM    2  S   UNL     1     -42.932  57.389 -51.731  1.00  0.00    -0.043 SA
HETATM    3  C   UNL     1     -41.824  56.400 -52.607  1.00  0.00     0.172 A 
HETATM    4  N   UNL     1     -41.609  56.801 -53.837  1.00  0.00    -0.220 NA
HETATM    5  C   UNL     1     -42.326  57.956 -54.126  1.00  0.00     0.118 A 
ENDROOT
BRANCH   3   6
HETATM    6  N   UNL     1     -41.259  55.344 -51.977  1.00  0.00    -0.335 N 
HETATM    7  H   UNL     1     -40.990  55.482 -51.011  1.00  0.00     0.168 HD
BRANCH   6   8
HETATM    8  C   UNL     1     -40.911  54.085 -52.502  1.00  0.00     0.034 A 
HETATM    9  C   UNL     1     -40.140  53.220 -51.706  1.00  0.00     0.031 A 
HETATM   10  C   UNL     1     -39.719  51.973 -52.180  1.00  0.00     0.021 A 
HETATM   11  C   UNL     1     -40.068  51.573 -53.466  1.00  0.00     0.011 A 
HETATM   12 BR   UNL     1     -39.500  49.893 -54.117  1.00  0.00    -0.051 Br
HETATM   13  C   UNL     1     -40.832  52.407 -54.274  1.00  0.00     0.021 A 
HETATM   14  C   UNL     1     -41.245  53.655 -53.793  1.00  0.00     0.031 A 
ENDBRANCH   6   8
ENDBRANCH   3   6
BRANCH   1  15
HETATM   15  C   UNL     1     -43.832  59.665 -52.961  1.00  0.00     0.302 C 
HETATM   16  O   UNL     1     -45.022  59.803 -53.215  1.00  0.00    -0.259 OA
BRANCH  15  17
HETATM   17  O   UNL     1     -43.001  60.687 -52.589  1.00  0.00    -0.317 OA
BRANCH  17  18
HETATM   18  C   UNL     1     -43.568  61.662 -51.703  1.00  0.00     0.174 C 
HETATM   19  C   UNL     1     -43.197  61.337 -50.267  1.00  0.00     0.034 C 
ENDBRANCH  17  18
ENDBRANCH  15  17
ENDBRANCH   1  15
BRANCH   5  20
HETATM   20  C   UNL     1     -42.268  58.567 -55.502  1.00  0.00     0.129 A 
HETATM   21  N   UNL     1     -41.829  59.787 -55.719  1.00  0.00    -0.238 NA
HETATM   22  C   UNL     1     -41.880  60.076 -57.072  1.00  0.00     0.075 A 
HETATM   23  C   UNL     1     -41.462  61.278 -57.678  1.00  0.00     0.033 A 
HETATM   24  C   UNL     1     -42.399  59.064 -57.881  1.00  0.00     0.035 A 
HETATM   25  C   UNL     1     -41.572  61.434 -59.065  1.00  0.00     0.002 A 
HETATM   26  C   UNL     1     -42.093  60.411 -59.851  1.00  0.00     0.002 A 
HETATM   27  C   UNL     1     -42.516  59.210 -59.273  1.00  0.00     0.021 A 
HETATM   28  S   UNL     1     -42.825  57.724 -56.892  1.00  0.00    -0.066 SA
ENDBRANCH   5  20
TORSDOF 6
ENDMDL
MODEL 7
REMARK VINA RESULT:      -7.0      1.532      2.239
REMARK  6 active torsions:
REMARK  status: ('A' for Active; 'I' for Inactive)
REMARK    1  A    between atoms: C_2  and  O_3 
REMARK    2  A    between atoms: O_3  and  C_4 
REMARK    3  A    between atoms: C_4  and  C_6 
REMARK    4  A    between atoms: C_8  and  N_9 
REMARK    5  A    between atoms: N_9  and  C_10 
REMARK    6  A    between atoms: C_18  and  C_19 
ROOT
HETATM    1  C   UNL     1     -43.062  57.193 -53.113  1.00  0.00     0.115 A 
HETATM    2  S   UNL     1     -43.717  58.570 -53.904  1.00  0.00    -0.043 SA
HETATM    3  C   UNL     1     -43.361  57.875 -55.442  1.00  0.00     0.172 A 
HETATM    4  N   UNL     1     -42.755  56.714 -55.374  1.00  0.00    -0.220 NA
HETATM    5  C   UNL     1     -42.566  56.316 -54.056  1.00  0.00     0.118 A 
ENDROOT
BRANCH   3   6
HETATM    6  N   UNL     1     -43.743  58.538 -56.558  1.00  0.00    -0.335 N 
HETATM    7  H   UNL     1     -43.485  59.515 -56.615  1.00  0.00     0.168 HD
BRANCH   6   8
HETATM    8  C   UNL     1     -44.529  58.082 -57.632  1.00  0.00     0.034 A 
HETATM    9  C   UNL     1     -45.912  58.336 -57.602  1.00  0.00     0.031 A 
HETATM   10  C   UNL     1     -46.761  57.872 -58.613  1.00  0.00     0.021 A 
HETATM   11  C   UNL     1     -46.233  57.144 -59.674  1.00  0.00     0.011 A 
HETATM   12 BR   UNL     1     -47.372  56.509 -61.040  1.00  0.00    -0.051 Br
HETATM   13  C   UNL     1     -44.869  56.880 -59.729  1.00  0.00     0.021 A 
HETATM   14  C   UNL     1     -44.028  57.344 -58.712  1.00  0.00     0.031 A 
ENDBRANCH   6   8
ENDBRANCH   3   6
BRANCH   1  15
HETATM   15  C   UNL     1     -43.170  57.062 -51.684  1.00  0.00     0.302 C 
HETATM   16  O   UNL     1     -43.700  56.134 -51.087  1.00  0.00    -0.259 OA
BRANCH  15  17
HETATM   17  O   UNL     1     -42.655  58.174 -51.076  1.00  0.00    -0.317 OA
BRANCH  17  18
HETATM   18  C   UNL     1     -41.248  58.136 -50.795  1.00  0.00     0.174 C 
HETATM   19  C   UNL     1     -40.580  59.396 -51.315  1.00  0.00     0.034 C 
ENDBRANCH  17  18
ENDBRANCH  15  17
ENDBRANCH   1  15
BRANCH   5  20
HETATM   20  C   UNL     1     -41.844  55.033 -53.741  1.00  0.00     0.129 A 
HETATM   21  N   UNL     1     -41.200  54.840 -52.611  1.00  0.00    -0.238 NA
HETATM   22  C   UNL     1     -40.644  53.572 -52.592  1.00  0.00     0.075 A 
HETATM   23  C   UNL     1     -39.909  53.006 -51.531  1.00  0.00     0.033 A 
HETATM   24  C   UNL     1     -40.847  52.812 -53.745  1.00  0.00     0.035 A 
HETATM   25  C   UNL     1     -39.403  51.706 -51.650  1.00  0.00     0.002 A 
HETATM   26  C   UNL     1     -39.618  50.968 -52.809  1.00  0.00     0.002 A 
HETATM   27  C   UNL     1     -40.342  51.508 -53.876  1.00  0.00     0.021 A 
HETATM   28  S   UNL     1     -41.765  53.737 -54.866  1.00  0.00    -0.066 SA
ENDBRANCH   5  20
TORSDOF 6
ENDMDL
MODEL 8
REMARK VINA RESULT:      -7.0      3.552      7.320
REMARK  6 active torsions:
REMARK  status: ('A' for Active; 'I' for Inactive)
REMARK    1  A    between atoms: C_2  and  O_3 
REMARK    2  A    between atoms: O_3  and  C_4 
REMARK    3  A    between atoms: C_4  and  C_6 
REMARK    4  A    between atoms: C_8  and  N_9 
REMARK    5  A    between atoms: N_9  and  C_10 
REMARK    6  A    between atoms: C_18  and  C_19 
ROOT
HETATM    1  C   UNL     1     -42.361  58.968 -55.829  1.00  0.00     0.115 A 
HETATM    2  S   UNL     1     -41.644  59.040 -54.269  1.00  0.00    -0.043 SA
HETATM    3  C   UNL     1     -42.106  57.406 -53.964  1.00  0.00     0.172 A 
HETATM    4  N   UNL     1     -42.787  56.855 -54.940  1.00  0.00    -0.220 NA
HETATM    5  C   UNL     1     -42.952  57.734 -56.003  1.00  0.00     0.118 A 
ENDROOT
BRANCH   3   6
HETATM    6  N   UNL     1     -41.723  56.829 -52.802  1.00  0.00    -0.335 N 
HETATM    7  H   UNL     1     -41.702  57.426 -51.984  1.00  0.00     0.168 HD
BRANCH   6   8
HETATM    8  C   UNL     1     -41.264  55.519 -52.574  1.00  0.00     0.034 A 
HETATM    9  C   UNL     1     -41.155  55.070 -51.246  1.00  0.00     0.031 A 
HETATM   10  C   UNL     1     -40.663  53.796 -50.944  1.00  0.00     0.021 A 
HETATM   11  C   UNL     1     -40.272  52.948 -51.975  1.00  0.00     0.011 A 
HETATM   12 BR   UNL     1     -39.600  51.228 -51.577  1.00  0.00    -0.051 Br
HETATM   13  C   UNL     1     -40.370  53.365 -53.297  1.00  0.00     0.021 A 
HETATM   14  C   UNL     1     -40.859  54.643 -53.590  1.00  0.00     0.031 A 
ENDBRANCH   6   8
ENDBRANCH   3   6
BRANCH   1  15
HETATM   15  C   UNL     1     -42.207  60.067 -56.745  1.00  0.00     0.302 C 
HETATM   16  O   UNL     1     -41.209  60.312 -57.409  1.00  0.00    -0.259 OA
BRANCH  15  17
HETATM   17  O   UNL     1     -43.325  60.856 -56.714  1.00  0.00    -0.317 OA
BRANCH  17  18
HETATM   18  C   UNL     1     -43.211  62.070 -55.957  1.00  0.00     0.174 C 
HETATM   19  C   UNL     1     -44.267  62.103 -54.866  1.00  0.00     0.034 C 
ENDBRANCH  17  18
ENDBRANCH  15  17
ENDBRANCH   1  15
BRANCH   5  20
HETATM   20  C   UNL     1     -43.748  57.326 -57.215  1.00  0.00     0.129 A 
HETATM   21  N   UNL     1     -43.328  56.419 -58.069  1.00  0.00    -0.238 NA
HETATM   22  C   UNL     1     -44.265  56.241 -59.072  1.00  0.00     0.075 A 
HETATM   23  C   UNL     1     -44.169  55.329 -60.143  1.00  0.00     0.033 A 
HETATM   24  C   UNL     1     -45.395  57.056 -58.988  1.00  0.00     0.035 A 
HETATM   25  C   UNL     1     -45.197  55.256 -61.090  1.00  0.00     0.002 A 
HETATM   26  C   UNL     1     -46.313  56.079 -60.985  1.00  0.00     0.002 A 
HETATM   27  C   UNL     1     -46.431  56.993 -59.933  1.00  0.00     0.021 A 
HETATM   28  S   UNL     1     -45.253  58.061 -57.600  1.00  0.00    -0.066 SA
ENDBRANCH   5  20
TORSDOF 6
ENDMDL
MODEL 9
REMARK VINA RESULT:      -6.9      3.377      7.229
REMARK  6 active torsions:
REMARK  status: ('A' for Active; 'I' for Inactive)
REMARK    1  A    between atoms: C_2  and  O_3 
REMARK    2  A    between atoms: O_3  and  C_4 
REMARK    3  A    between atoms: C_4  and  C_6 
REMARK    4  A    between atoms: C_8  and  N_9 
REMARK    5  A    between atoms: N_9  and  C_10 
REMARK    6  A    between atoms: C_18  and  C_19 
ROOT
HETATM    1  C   UNL     1     -43.331  57.702 -52.463  1.00  0.00     0.115 A 
HETATM    2  S   UNL     1     -43.086  56.477 -51.283  1.00  0.00    -0.043 SA
HETATM    3  C   UNL     1     -41.688  55.922 -52.128  1.00  0.00     0.172 A 
HETATM    4  N   UNL     1     -41.443  56.575 -53.239  1.00  0.00    -0.220 NA
HETATM    5  C   UNL     1     -42.375  57.583 -53.450  1.00  0.00     0.118 A 
ENDROOT
BRANCH   3   6
HETATM    6  N   UNL     1     -40.963  54.914 -51.591  1.00  0.00    -0.335 N 
HETATM    7  H   UNL     1     -40.608  55.060 -50.654  1.00  0.00     0.168 HD
BRANCH   6   8
HETATM    8  C   UNL     1     -40.554  53.706 -52.184  1.00  0.00     0.034 A 
HETATM    9  C   UNL     1     -40.942  53.448 -53.510  1.00  0.00     0.031 A 
HETATM   10  C   UNL     1     -40.610  52.247 -54.148  1.00  0.00     0.021 A 
HETATM   11  C   UNL     1     -39.879  51.284 -53.461  1.00  0.00     0.011 A 
HETATM   12 BR   UNL     1     -39.431  49.657 -54.311  1.00  0.00    -0.051 Br
HETATM   13  C   UNL     1     -39.481  51.513 -52.149  1.00  0.00     0.021 A 
HETATM   14  C   UNL     1     -39.821  52.715 -51.518  1.00  0.00     0.031 A 
ENDBRANCH   6   8
ENDBRANCH   3   6
BRANCH   1  15
HETATM   15  C   UNL     1     -44.357  58.693 -52.272  1.00  0.00     0.302 C 
HETATM   16  O   UNL     1     -45.232  58.985 -53.076  1.00  0.00    -0.259 OA
BRANCH  15  17
HETATM   17  O   UNL     1     -44.170  59.328 -51.074  1.00  0.00    -0.317 OA
BRANCH  17  18
HETATM   18  C   UNL     1     -43.874  60.729 -51.150  1.00  0.00     0.174 C 
HETATM   19  C   UNL     1     -44.040  61.371 -49.783  1.00  0.00     0.034 C 
ENDBRANCH  17  18
ENDBRANCH  15  17
ENDBRANCH   1  15
BRANCH   5  20
HETATM   20  C   UNL     1     -42.315  58.431 -54.694  1.00  0.00     0.129 A 
HETATM   21  N   UNL     1     -42.382  57.922 -55.904  1.00  0.00    -0.238 NA
HETATM   22  C   UNL     1     -42.313  58.931 -56.849  1.00  0.00     0.075 A 
HETATM   23  C   UNL     1     -42.384  58.763 -58.247  1.00  0.00     0.033 A 
HETATM   24  C   UNL     1     -42.157  60.221 -56.337  1.00  0.00     0.035 A 
HETATM   25  C   UNL     1     -42.300  59.879 -59.087  1.00  0.00     0.002 A 
HETATM   26  C   UNL     1     -42.144  61.155 -58.554  1.00  0.00     0.002 A 
HETATM   27  C   UNL     1     -42.069  61.347 -57.171  1.00  0.00     0.021 A 
HETATM   28  S   UNL     1     -42.100  60.134 -54.621  1.00  0.00    -0.066 SA
ENDBRANCH   5  20
TORSDOF 6
ENDMDL
MODEL 10
REMARK VINA RESULT:      -6.8      4.679      8.747
REMARK  6 active torsions:
REMARK  status: ('A' for Active; 'I' for Inactive)
REMARK    1  A    between atoms: C_2  and  O_3 
REMARK    2  A    between atoms: O_3  and  C_4 
REMARK    3  A    between atoms: C_4  and  C_6 
REMARK    4  A    between atoms: C_8  and  N_9 
REMARK    5  A    between atoms: N_9  and  C_10 
REMARK    6  A    between atoms: C_18  and  C_19 
ROOT
HETATM    1  C   UNL     1     -42.698  56.665 -57.907  1.00  0.00     0.115 A 
HETATM    2  S   UNL     1     -42.920  55.441 -56.720  1.00  0.00    -0.043 SA
HETATM    3  C   UNL     1     -43.044  56.639 -55.485  1.00  0.00     0.172 A 
HETATM    4  N   UNL     1     -42.888  57.868 -55.918  1.00  0.00    -0.220 NA
HETATM    5  C   UNL     1     -42.678  57.899 -57.291  1.00  0.00     0.118 A 
ENDROOT
BRANCH   3   6
HETATM    6  N   UNL     1     -43.310  56.241 -54.220  1.00  0.00    -0.335 N 
HETATM    7  H   UNL     1     -44.095  56.685 -53.760  1.00  0.00     0.168 HD
BRANCH   6   8
HETATM    8  C   UNL     1     -42.593  55.345 -53.406  1.00  0.00     0.034 A 
HETATM    9  C   UNL     1     -43.273  54.710 -52.352  1.00  0.00     0.031 A 
HETATM   10  C   UNL     1     -42.613  53.842 -51.475  1.00  0.00     0.021 A 
HETATM   11  C   UNL     1     -41.254  53.596 -51.645  1.00  0.00     0.011 A 
HETATM   12 BR   UNL     1     -40.353  52.431 -50.463  1.00  0.00    -0.051 Br
HETATM   13  C   UNL     1     -40.557  54.209 -52.679  1.00  0.00     0.021 A 
HETATM   14  C   UNL     1     -41.225  55.080 -53.549  1.00  0.00     0.031 A 
ENDBRANCH   6   8
ENDBRANCH   3   6
BRANCH   1  15
HETATM   15  C   UNL     1     -42.654  56.318 -59.302  1.00  0.00     0.302 C 
HETATM   16  O   UNL     1     -41.982  56.876 -60.159  1.00  0.00    -0.259 OA
BRANCH  15  17
HETATM   17  O   UNL     1     -43.539  55.306 -59.556  1.00  0.00    -0.317 OA
BRANCH  17  18
HETATM   18  C   UNL     1     -44.833  55.711 -60.025  1.00  0.00     0.174 C 
HETATM   19  C   UNL     1     -45.132  55.052 -61.360  1.00  0.00     0.034 C 
ENDBRANCH  17  18
ENDBRANCH  15  17
ENDBRANCH   1  15
BRANCH   5  20
HETATM   20  C   UNL     1     -42.425  59.207 -57.995  1.00  0.00     0.129 A 
HETATM   21  N   UNL     1     -41.345  59.927 -57.788  1.00  0.00    -0.238 NA
HETATM   22  C   UNL     1     -41.375  61.065 -58.576  1.00  0.00     0.075 A 
HETATM   23  C   UNL     1     -40.372  62.054 -58.640  1.00  0.00     0.033 A 
HETATM   24  C   UNL     1     -42.517  61.218 -59.363  1.00  0.00     0.035 A 
HETATM   25  C   UNL     1     -40.537  63.158 -59.485  1.00  0.00     0.002 A 
HETATM   26  C   UNL     1     -41.684  63.289 -60.260  1.00  0.00     0.002 A 
HETATM   27  C   UNL     1     -42.694  62.323 -60.212  1.00  0.00     0.021 A 
HETATM   28  S   UNL     1     -43.563  59.882 -59.091  1.00  0.00    -0.066 SA
ENDBRANCH   5  20
TORSDOF 6
ENDMDL
