MODEL 1
REMARK VINA RESULT:      -7.1      0.000      0.000
REMARK  6 active torsions:
REMARK  status: ('A' for Active; 'I' for Inactive)
REMARK    1  A    between atoms: C_2  and  O_3 
REMARK    2  A    between atoms: O_3  and  C_4 
REMARK    3  A    between atoms: C_4  and  C_5 
REMARK    4  A    between atoms: C_6  and  O_7 
REMARK    5  A    between atoms: C_12  and  O_13 
REMARK    6  A    between atoms: C_17  and  C_18 
ROOT
HETATM    1  C   UNL     1     -40.764  54.707 -50.918  1.00  0.00     0.133 C 
HETATM    2  C   UNL     1     -40.308  54.076 -49.567  1.00  0.00     0.073 C 
HETATM    3  C   UNL     1     -40.943  54.757 -48.346  1.00  0.00     0.047 C 
HETATM    4  C   UNL     1     -40.546  52.538 -49.481  1.00  0.00     0.097 C 
HETATM    5  C   UNL     1     -40.207  51.897 -50.777  1.00  0.00     0.042 A 
HETATM    6  C   UNL     1     -40.054  52.515 -52.001  1.00  0.00     0.030 A 
HETATM    7  C   UNL     1     -39.643  51.464 -52.838  1.00  0.00     0.190 A 
HETATM    8  N   UNL     1     -39.597  50.283 -52.231  1.00  0.00    -0.149 NA
HETATM    9  N   UNL     1     -39.931  50.574 -50.963  1.00  0.00    -0.279 N 
HETATM   10  H   UNL     1     -39.928  49.822 -50.280  1.00  0.00     0.189 HD
HETATM   11  C   UNL     1     -40.194  53.991 -52.181  1.00  0.00     0.074 C 
ENDROOT
BRANCH  11  12
HETATM   12  C   UNL     1     -40.953  54.273 -53.472  1.00  0.00    -0.048 A 
HETATM   13  C   UNL     1     -42.031  53.488 -53.924  1.00  0.00     0.009 A 
HETATM   14  C   UNL     1     -42.722  53.816 -55.093  1.00  0.00     0.024 A 
HETATM   15  C   UNL     1     -42.355  54.943 -55.819  1.00  0.00     0.034 A 
HETATM   16 CL   UNL     1     -43.212  55.354 -57.253  1.00  0.00    -0.084 Cl
HETATM   17  C   UNL     1     -41.301  55.744 -55.388  1.00  0.00     0.024 A 
HETATM   18  C   UNL     1     -40.606  55.411 -54.221  1.00  0.00     0.009 A 
ENDBRANCH  11  12
BRANCH   1  19
HETATM   19  C   UNL     1     -42.263  54.926 -50.970  1.00  0.00     0.267 C 
HETATM   20  O   UNL     1     -43.064  53.998 -50.940  1.00  0.00    -0.265 OA
BRANCH  19  21
HETATM   21  O   UNL     1     -42.598  56.235 -51.082  1.00  0.00    -0.321 OA
BRANCH  21  22
HETATM   22  C   UNL     1     -43.931  56.498 -51.549  1.00  0.00     0.174 C 
HETATM   23  C   UNL     1     -43.912  56.894 -53.013  1.00  0.00     0.034 C 
ENDBRANCH  21  22
ENDBRANCH  19  21
ENDBRANCH   1  19
BRANCH   2  24
HETATM   24  O   UNL     1     -38.883  54.292 -49.448  1.00  0.00    -0.389 OA
HETATM   25  H   UNL     1     -38.689  54.618 -48.552  1.00  0.00     0.210 HD
ENDBRANCH   2  24
BRANCH   7  26
HETATM   26  O   UNL     1     -39.303  51.477 -54.129  1.00  0.00    -0.343 OA
HETATM   27  H   UNL     1     -38.717  50.730 -54.319  1.00  0.00     0.219 HD
ENDBRANCH   7  26
TORSDOF 6
ENDMDL
MODEL 2
REMARK VINA RESULT:      -6.6      3.803      5.739
REMARK  6 active torsions:
REMARK  status: ('A' for Active; 'I' for Inactive)
REMARK    1  A    between atoms: C_2  and  O_3 
REMARK    2  A    between atoms: O_3  and  C_4 
REMARK    3  A    between atoms: C_4  and  C_5 
REMARK    4  A    between atoms: C_6  and  O_7 
REMARK    5  A    between atoms: C_12  and  O_13 
REMARK    6  A    between atoms: C_17  and  C_18 
ROOT
HETATM    1  C   UNL     1     -40.912  55.135 -53.522  1.00  0.00     0.133 C 
HETATM    2  C   UNL     1     -40.959  53.954 -54.540  1.00  0.00     0.073 C 
HETATM    3  C   UNL     1     -40.735  52.586 -53.876  1.00  0.00     0.047 C 
HETATM    4  C   UNL     1     -42.265  53.907 -55.388  1.00  0.00     0.097 C 
HETATM    5  C   UNL     1     -42.658  55.280 -55.794  1.00  0.00     0.042 A 
HETATM    6  C   UNL     1     -42.214  56.471 -55.256  1.00  0.00     0.030 A 
HETATM    7  C   UNL     1     -42.824  57.436 -56.075  1.00  0.00     0.190 A 
HETATM    8  N   UNL     1     -43.625  56.923 -57.002  1.00  0.00    -0.149 NA
HETATM    9  N   UNL     1     -43.496  55.598 -56.823  1.00  0.00    -0.279 N 
HETATM   10  H   UNL     1     -43.994  54.977 -57.453  1.00  0.00     0.189 HD
HETATM   11  C   UNL     1     -41.208  56.530 -54.153  1.00  0.00     0.074 C 
ENDROOT
BRANCH  11  12
HETATM   12  C   UNL     1     -41.615  57.609 -53.156  1.00  0.00    -0.048 A 
HETATM   13  C   UNL     1     -42.944  57.813 -52.736  1.00  0.00     0.009 A 
HETATM   14  C   UNL     1     -43.258  58.787 -51.785  1.00  0.00     0.024 A 
HETATM   15  C   UNL     1     -42.246  59.560 -51.228  1.00  0.00     0.034 A 
HETATM   16 CL   UNL     1     -42.630  60.752 -50.048  1.00  0.00    -0.084 Cl
HETATM   17  C   UNL     1     -40.923  59.370 -51.615  1.00  0.00     0.024 A 
HETATM   18  C   UNL     1     -40.610  58.399 -52.573  1.00  0.00     0.009 A 
ENDBRANCH  11  12
BRANCH   1  19
HETATM   19  C   UNL     1     -41.724  54.849 -52.275  1.00  0.00     0.267 C 
HETATM   20  O   UNL     1     -42.922  54.590 -52.315  1.00  0.00    -0.265 OA
BRANCH  19  21
HETATM   21  O   UNL     1     -40.990  54.943 -51.139  1.00  0.00    -0.321 OA
BRANCH  21  22
HETATM   22  C   UNL     1     -41.735  55.188 -49.936  1.00  0.00     0.174 C 
HETATM   23  C   UNL     1     -40.984  54.657 -48.729  1.00  0.00     0.034 C 
ENDBRANCH  21  22
ENDBRANCH  19  21
ENDBRANCH   1  19
BRANCH   2  24
HETATM   24  O   UNL     1     -39.860  54.134 -55.462  1.00  0.00    -0.389 OA
HETATM   25  H   UNL     1     -39.123  53.560 -55.189  1.00  0.00     0.210 HD
ENDBRANCH   2  24
BRANCH   7  26
HETATM   26  O   UNL     1     -42.721  58.767 -56.055  1.00  0.00    -0.343 OA
HETATM   27  H   UNL     1     -42.338  59.051 -55.212  1.00  0.00     0.219 HD
ENDBRANCH   7  26
TORSDOF 6
ENDMDL
MODEL 3
REMARK VINA RESULT:      -6.3      3.982      6.009
REMARK  6 active torsions:
REMARK  status: ('A' for Active; 'I' for Inactive)
REMARK    1  A    between atoms: C_2  and  O_3 
REMARK    2  A    between atoms: O_3  and  C_4 
REMARK    3  A    between atoms: C_4  and  C_5 
REMARK    4  A    between atoms: C_6  and  O_7 
REMARK    5  A    between atoms: C_12  and  O_13 
REMARK    6  A    between atoms: C_17  and  C_18 
ROOT
HETATM    1  C   UNL     1     -42.571  58.026 -53.204  1.00  0.00     0.133 C 
HETATM    2  C   UNL     1     -42.851  59.154 -54.243  1.00  0.00     0.073 C 
HETATM    3  C   UNL     1     -42.356  60.531 -53.777  1.00  0.00     0.047 C 
HETATM    4  C   UNL     1     -42.282  58.855 -55.663  1.00  0.00     0.097 C 
HETATM    5  C   UNL     1     -42.498  57.428 -56.008  1.00  0.00     0.042 A 
HETATM    6  C   UNL     1     -42.806  56.396 -55.146  1.00  0.00     0.030 A 
HETATM    7  C   UNL     1     -42.995  55.305 -56.011  1.00  0.00     0.190 A 
HETATM    8  N   UNL     1     -42.770  55.589 -57.289  1.00  0.00    -0.149 NA
HETATM    9  N   UNL     1     -42.483  56.901 -57.267  1.00  0.00    -0.279 N 
HETATM   10  H   UNL     1     -42.308  57.370 -58.150  1.00  0.00     0.189 HD
HETATM   11  C   UNL     1     -42.996  56.602 -53.678  1.00  0.00     0.074 C 
ENDROOT
BRANCH  11  12
HETATM   12  C   UNL     1     -42.344  55.453 -52.918  1.00  0.00    -0.048 A 
HETATM   13  C   UNL     1     -41.109  54.884 -53.286  1.00  0.00     0.009 A 
HETATM   14  C   UNL     1     -40.532  53.862 -52.528  1.00  0.00     0.024 A 
HETATM   15  C   UNL     1     -41.173  53.405 -51.383  1.00  0.00     0.034 A 
HETATM   16 CL   UNL     1     -40.459  52.154 -50.443  1.00  0.00    -0.084 Cl
HETATM   17  C   UNL     1     -42.388  53.959 -50.990  1.00  0.00     0.024 A 
HETATM   18  C   UNL     1     -42.968  54.978 -51.752  1.00  0.00     0.009 A 
ENDBRANCH  11  12
BRANCH   1  19
HETATM   19  C   UNL     1     -41.158  58.086 -52.660  1.00  0.00     0.267 C 
HETATM   20  O   UNL     1     -40.173  58.106 -53.390  1.00  0.00    -0.265 OA
BRANCH  19  21
HETATM   21  O   UNL     1     -41.116  58.084 -51.305  1.00  0.00    -0.321 OA
BRANCH  21  22
HETATM   22  C   UNL     1     -40.923  59.367 -50.687  1.00  0.00     0.174 C 
HETATM   23  C   UNL     1     -39.450  59.613 -50.424  1.00  0.00     0.034 C 
ENDBRANCH  21  22
ENDBRANCH  19  21
ENDBRANCH   1  19
BRANCH   2  24
HETATM   24  O   UNL     1     -44.287  59.271 -54.378  1.00  0.00    -0.389 OA
HETATM   25  H   UNL     1     -44.606  58.563 -54.964  1.00  0.00     0.210 HD
ENDBRANCH   2  24
BRANCH   7  26
HETATM   26  O   UNL     1     -43.356  54.048 -55.741  1.00  0.00    -0.343 OA
HETATM   27  H   UNL     1     -44.194  54.047 -55.258  1.00  0.00     0.219 HD
ENDBRANCH   7  26
TORSDOF 6
ENDMDL
MODEL 4
REMARK VINA RESULT:      -6.3     13.336     16.001
REMARK  6 active torsions:
REMARK  status: ('A' for Active; 'I' for Inactive)
REMARK    1  A    between atoms: C_2  and  O_3 
REMARK    2  A    between atoms: O_3  and  C_4 
REMARK    3  A    between atoms: C_4  and  C_5 
REMARK    4  A    between atoms: C_6  and  O_7 
REMARK    5  A    between atoms: C_12  and  O_13 
REMARK    6  A    between atoms: C_17  and  C_18 
ROOT
HETATM    1  C   UNL     1     -33.688  39.031 -54.609  1.00  0.00     0.133 C 
HETATM    2  C   UNL     1     -32.873  38.746 -53.310  1.00  0.00     0.073 C 
HETATM    3  C   UNL     1     -31.585  37.953 -53.577  1.00  0.00     0.047 C 
HETATM    4  C   UNL     1     -32.530  40.026 -52.491  1.00  0.00     0.097 C 
HETATM    5  C   UNL     1     -33.693  40.947 -52.474  1.00  0.00     0.042 A 
HETATM    6  C   UNL     1     -34.790  40.925 -53.311  1.00  0.00     0.030 A 
HETATM    7  C   UNL     1     -35.609  41.940 -52.788  1.00  0.00     0.190 A 
HETATM    8  N   UNL     1     -35.069  42.589 -51.763  1.00  0.00    -0.149 NA
HETATM    9  N   UNL     1     -33.901  41.953 -51.576  1.00  0.00    -0.279 N 
HETATM   10  H   UNL     1     -33.310  42.249 -50.805  1.00  0.00     0.189 HD
HETATM   11  C   UNL     1     -34.965  39.897 -54.381  1.00  0.00     0.074 C 
ENDROOT
BRANCH  11  12
HETATM   12  C   UNL     1     -35.516  40.564 -55.636  1.00  0.00    -0.048 A 
HETATM   13  C   UNL     1     -35.057  41.805 -56.119  1.00  0.00     0.009 A 
HETATM   14  C   UNL     1     -35.565  42.352 -57.300  1.00  0.00     0.024 A 
HETATM   15  C   UNL     1     -36.528  41.660 -58.024  1.00  0.00     0.034 A 
HETATM   16 CL   UNL     1     -37.146  42.326 -59.484  1.00  0.00    -0.084 Cl
HETATM   17  C   UNL     1     -36.990  40.425 -57.576  1.00  0.00     0.024 A 
HETATM   18  C   UNL     1     -36.486  39.881 -56.391  1.00  0.00     0.009 A 
ENDBRANCH  11  12
BRANCH   1  19
HETATM   19  C   UNL     1     -32.810  39.531 -55.738  1.00  0.00     0.267 C 
HETATM   20  O   UNL     1     -32.052  40.486 -55.608  1.00  0.00    -0.265 OA
BRANCH  19  21
HETATM   21  O   UNL     1     -32.983  38.831 -56.886  1.00  0.00    -0.321 OA
BRANCH  21  22
HETATM   22  C   UNL     1     -33.470  37.489 -56.729  1.00  0.00     0.174 C 
HETATM   23  C   UNL     1     -34.454  37.148 -57.832  1.00  0.00     0.034 C 
ENDBRANCH  21  22
ENDBRANCH  19  21
ENDBRANCH   1  19
BRANCH   2  24
HETATM   24  O   UNL     1     -33.690  37.905 -52.463  1.00  0.00    -0.389 OA
HETATM   25  H   UNL     1     -33.219  37.069 -52.303  1.00  0.00     0.210 HD
ENDBRANCH   2  24
BRANCH   7  26
HETATM   26  O   UNL     1     -36.825  42.342 -53.167  1.00  0.00    -0.343 OA
HETATM   27  H   UNL     1     -37.032  43.190 -52.749  1.00  0.00     0.219 HD
ENDBRANCH   7  26
TORSDOF 6
ENDMDL
MODEL 5
REMARK VINA RESULT:      -6.2     14.320     15.824
REMARK  6 active torsions:
REMARK  status: ('A' for Active; 'I' for Inactive)
REMARK    1  A    between atoms: C_2  and  O_3 
REMARK    2  A    between atoms: O_3  and  C_4 
REMARK    3  A    between atoms: C_4  and  C_5 
REMARK    4  A    between atoms: C_6  and  O_7 
REMARK    5  A    between atoms: C_12  and  O_13 
REMARK    6  A    between atoms: C_17  and  C_18 
ROOT
HETATM    1  C   UNL     1     -33.846  40.813 -53.400  1.00  0.00     0.133 C 
HETATM    2  C   UNL     1     -32.920  40.324 -52.245  1.00  0.00     0.073 C 
HETATM    3  C   UNL     1     -33.625  40.311 -50.880  1.00  0.00     0.047 C 
HETATM    4  C   UNL     1     -32.276  38.929 -52.505  1.00  0.00     0.097 C 
HETATM    5  C   UNL     1     -31.849  38.821 -53.923  1.00  0.00     0.042 A 
HETATM    6  C   UNL     1     -32.244  39.618 -54.977  1.00  0.00     0.030 A 
HETATM    7  C   UNL     1     -31.466  39.139 -56.045  1.00  0.00     0.190 A 
HETATM    8  N   UNL     1     -30.698  38.103 -55.726  1.00  0.00    -0.149 NA
HETATM    9  N   UNL     1     -30.937  37.934 -54.415  1.00  0.00    -0.279 N 
HETATM   10  H   UNL     1     -30.424  37.209 -53.922  1.00  0.00     0.189 HD
HETATM   11  C   UNL     1     -33.182  40.768 -54.811  1.00  0.00     0.074 C 
ENDROOT
BRANCH  11  12
HETATM   12  C   UNL     1     -34.161  40.795 -55.979  1.00  0.00    -0.048 A 
HETATM   13  C   UNL     1     -34.632  39.633 -56.620  1.00  0.00     0.009 A 
HETATM   14  C   UNL     1     -35.564  39.710 -57.659  1.00  0.00     0.024 A 
HETATM   15  C   UNL     1     -36.051  40.949 -58.059  1.00  0.00     0.034 A 
HETATM   16 CL   UNL     1     -37.207  41.045 -59.329  1.00  0.00    -0.084 Cl
HETATM   17  C   UNL     1     -35.612  42.112 -57.433  1.00  0.00     0.024 A 
HETATM   18  C   UNL     1     -34.673  42.035 -56.399  1.00  0.00     0.009 A 
ENDBRANCH  11  12
BRANCH   1  19
HETATM   19  C   UNL     1     -35.213  40.161 -53.353  1.00  0.00     0.267 C 
HETATM   20  O   UNL     1     -35.369  38.950 -53.461  1.00  0.00    -0.265 OA
BRANCH  19  21
HETATM   21  O   UNL     1     -36.218  41.061 -53.212  1.00  0.00    -0.321 OA
BRANCH  21  22
HETATM   22  C   UNL     1     -37.534  40.577 -53.523  1.00  0.00     0.174 C 
HETATM   23  C   UNL     1     -37.976  41.076 -54.885  1.00  0.00     0.034 C 
ENDBRANCH  21  22
ENDBRANCH  19  21
ENDBRANCH   1  19
BRANCH   2  24
HETATM   24  O   UNL     1     -31.838  41.276 -52.125  1.00  0.00    -0.389 OA
HETATM   25  H   UNL     1     -31.056  40.819 -51.768  1.00  0.00     0.210 HD
ENDBRANCH   2  24
BRANCH   7  26
HETATM   26  O   UNL     1     -31.390  39.562 -57.309  1.00  0.00    -0.343 OA
HETATM   27  H   UNL     1     -31.651  40.493 -57.356  1.00  0.00     0.219 HD
ENDBRANCH   7  26
TORSDOF 6
ENDMDL
MODEL 6
REMARK VINA RESULT:      -6.2      4.460      6.601
REMARK  6 active torsions:
REMARK  status: ('A' for Active; 'I' for Inactive)
REMARK    1  A    between atoms: C_2  and  O_3 
REMARK    2  A    between atoms: O_3  and  C_4 
REMARK    3  A    between atoms: C_4  and  C_5 
REMARK    4  A    between atoms: C_6  and  O_7 
REMARK    5  A    between atoms: C_12  and  O_13 
REMARK    6  A    between atoms: C_17  and  C_18 
ROOT
HETATM    1  C   UNL     1     -44.282  57.998 -53.667  1.00  0.00     0.133 C 
HETATM    2  C   UNL     1     -44.797  59.469 -53.642  1.00  0.00     0.073 C 
HETATM    3  C   UNL     1     -45.386  59.871 -52.281  1.00  0.00     0.047 C 
HETATM    4  C   UNL     1     -43.726  60.517 -54.070  1.00  0.00     0.097 C 
HETATM    5  C   UNL     1     -42.942  60.003 -55.221  1.00  0.00     0.042 A 
HETATM    6  C   UNL     1     -42.860  58.697 -55.661  1.00  0.00     0.030 A 
HETATM    7  C   UNL     1     -42.077  58.803 -56.823  1.00  0.00     0.190 A 
HETATM    8  N   UNL     1     -41.648  60.035 -57.070  1.00  0.00    -0.149 NA
HETATM    9  N   UNL     1     -42.204  60.759 -56.084  1.00  0.00    -0.279 N 
HETATM   10  H   UNL     1     -42.051  61.763 -56.079  1.00  0.00     0.189 HD
HETATM   11  C   UNL     1     -43.612  57.581 -55.013  1.00  0.00     0.074 C 
ENDROOT
BRANCH  11  12
HETATM   12  C   UNL     1     -42.714  56.352 -54.926  1.00  0.00    -0.048 A 
HETATM   13  C   UNL     1     -41.344  56.415 -54.607  1.00  0.00     0.009 A 
HETATM   14  C   UNL     1     -40.576  55.253 -54.496  1.00  0.00     0.024 A 
HETATM   15  C   UNL     1     -41.169  54.011 -54.687  1.00  0.00     0.034 A 
HETATM   16 CL   UNL     1     -40.227  52.580 -54.540  1.00  0.00    -0.084 Cl
HETATM   17  C   UNL     1     -42.525  53.920 -54.990  1.00  0.00     0.024 A 
HETATM   18  C   UNL     1     -43.292  55.083 -55.108  1.00  0.00     0.009 A 
ENDBRANCH  11  12
BRANCH   1  19
HETATM   19  C   UNL     1     -43.450  57.661 -52.446  1.00  0.00     0.267 C 
HETATM   20  O   UNL     1     -42.444  58.293 -52.141  1.00  0.00    -0.265 OA
BRANCH  19  21
HETATM   21  O   UNL     1     -43.923  56.586 -51.769  1.00  0.00    -0.321 OA
BRANCH  21  22
HETATM   22  C   UNL     1     -42.928  55.694 -51.245  1.00  0.00     0.174 C 
HETATM   23  C   UNL     1     -43.351  54.250 -51.443  1.00  0.00     0.034 C 
ENDBRANCH  21  22
ENDBRANCH  19  21
ENDBRANCH   1  19
BRANCH   2  24
HETATM   24  O   UNL     1     -45.886  59.563 -54.590  1.00  0.00    -0.389 OA
HETATM   25  H   UNL     1     -45.520  59.767 -55.469  1.00  0.00     0.210 HD
ENDBRANCH   2  24
BRANCH   7  26
HETATM   26  O   UNL     1     -41.705  57.862 -57.695  1.00  0.00    -0.343 OA
HETATM   27  H   UNL     1     -42.477  57.342 -57.961  1.00  0.00     0.219 HD
ENDBRANCH   7  26
TORSDOF 6
ENDMDL
MODEL 7
REMARK VINA RESULT:      -6.2      3.517      5.304
REMARK  6 active torsions:
REMARK  status: ('A' for Active; 'I' for Inactive)
REMARK    1  A    between atoms: C_2  and  O_3 
REMARK    2  A    between atoms: O_3  and  C_4 
REMARK    3  A    between atoms: C_4  and  C_5 
REMARK    4  A    between atoms: C_6  and  O_7 
REMARK    5  A    between atoms: C_12  and  O_13 
REMARK    6  A    between atoms: C_17  and  C_18 
ROOT
HETATM    1  C   UNL     1     -43.695  56.273 -52.816  1.00  0.00     0.133 C 
HETATM    2  C   UNL     1     -43.205  56.135 -51.342  1.00  0.00     0.073 C 
HETATM    3  C   UNL     1     -43.542  54.768 -50.727  1.00  0.00     0.047 C 
HETATM    4  C   UNL     1     -41.685  56.423 -51.156  1.00  0.00     0.097 C 
HETATM    5  C   UNL     1     -41.281  57.584 -51.989  1.00  0.00     0.042 A 
HETATM    6  C   UNL     1     -41.974  58.136 -53.046  1.00  0.00     0.030 A 
HETATM    7  C   UNL     1     -41.192  59.251 -53.390  1.00  0.00     0.190 A 
HETATM    8  N   UNL     1     -40.080  59.368 -52.672  1.00  0.00    -0.149 NA
HETATM    9  N   UNL     1     -40.162  58.343 -51.807  1.00  0.00    -0.279 N 
HETATM   10  H   UNL     1     -39.429  58.241 -51.112  1.00  0.00     0.189 HD
HETATM   11  C   UNL     1     -43.305  57.623 -53.492  1.00  0.00     0.074 C 
ENDROOT
BRANCH  11  12
HETATM   12  C   UNL     1     -43.356  57.613 -55.016  1.00  0.00    -0.048 A 
HETATM   13  C   UNL     1     -42.287  57.178 -55.823  1.00  0.00     0.009 A 
HETATM   14  C   UNL     1     -42.402  57.146 -57.216  1.00  0.00     0.024 A 
HETATM   15  C   UNL     1     -43.592  57.533 -57.820  1.00  0.00     0.034 A 
HETATM   16 CL   UNL     1     -43.739  57.484 -59.532  1.00  0.00    -0.084 Cl
HETATM   17  C   UNL     1     -44.669  57.955 -57.044  1.00  0.00     0.024 A 
HETATM   18  C   UNL     1     -44.551  57.993 -55.651  1.00  0.00     0.009 A 
ENDBRANCH  11  12
BRANCH   1  19
HETATM   19  C   UNL     1     -43.352  55.056 -53.650  1.00  0.00     0.267 C 
HETATM   20  O   UNL     1     -44.188  54.465 -54.326  1.00  0.00    -0.265 OA
BRANCH  19  21
HETATM   21  O   UNL     1     -42.051  54.692 -53.536  1.00  0.00    -0.321 OA
BRANCH  21  22
HETATM   22  C   UNL     1     -41.609  53.673 -54.446  1.00  0.00     0.174 C 
HETATM   23  C   UNL     1     -40.308  54.082 -55.111  1.00  0.00     0.034 C 
ENDBRANCH  21  22
ENDBRANCH  19  21
ENDBRANCH   1  19
BRANCH   2  24
HETATM   24  O   UNL     1     -43.922  57.113 -50.554  1.00  0.00    -0.389 OA
HETATM   25  H   UNL     1     -44.784  56.741 -50.300  1.00  0.00     0.210 HD
ENDBRANCH   2  24
BRANCH   7  26
HETATM   26  O   UNL     1     -41.397  60.190 -54.318  1.00  0.00    -0.343 OA
HETATM   27  H   UNL     1     -42.095  60.792 -54.022  1.00  0.00     0.219 HD
ENDBRANCH   7  26
TORSDOF 6
ENDMDL
MODEL 8
REMARK VINA RESULT:      -6.2      3.749      5.837
REMARK  6 active torsions:
REMARK  status: ('A' for Active; 'I' for Inactive)
REMARK    1  A    between atoms: C_2  and  O_3 
REMARK    2  A    between atoms: O_3  and  C_4 
REMARK    3  A    between atoms: C_4  and  C_5 
REMARK    4  A    between atoms: C_6  and  O_7 
REMARK    5  A    between atoms: C_12  and  O_13 
REMARK    6  A    between atoms: C_17  and  C_18 
ROOT
HETATM    1  C   UNL     1     -42.453  55.416 -53.725  1.00  0.00     0.133 C 
HETATM    2  C   UNL     1     -42.658  55.415 -52.179  1.00  0.00     0.073 C 
HETATM    3  C   UNL     1     -41.513  54.720 -51.426  1.00  0.00     0.047 C 
HETATM    4  C   UNL     1     -42.884  56.834 -51.575  1.00  0.00     0.097 C 
HETATM    5  C   UNL     1     -43.770  57.629 -52.461  1.00  0.00     0.042 A 
HETATM    6  C   UNL     1     -44.084  57.371 -53.780  1.00  0.00     0.030 A 
HETATM    7  C   UNL     1     -45.024  58.371 -54.084  1.00  0.00     0.190 A 
HETATM    8  N   UNL     1     -45.245  59.219 -53.086  1.00  0.00    -0.149 NA
HETATM    9  N   UNL     1     -44.477  58.737 -52.095  1.00  0.00    -0.279 N 
HETATM   10  H   UNL     1     -44.506  59.205 -51.194  1.00  0.00     0.189 HD
HETATM   11  C   UNL     1     -43.562  56.179 -54.513  1.00  0.00     0.074 C 
ENDROOT
BRANCH  11  12
HETATM   12  C   UNL     1     -43.173  56.587 -55.929  1.00  0.00    -0.048 A 
HETATM   13  C   UNL     1     -42.646  57.852 -56.253  1.00  0.00     0.009 A 
HETATM   14  C   UNL     1     -42.263  58.161 -57.561  1.00  0.00     0.024 A 
HETATM   15  C   UNL     1     -42.387  57.204 -58.561  1.00  0.00     0.034 A 
HETATM   16 CL   UNL     1     -41.906  57.578 -60.169  1.00  0.00    -0.084 Cl
HETATM   17  C   UNL     1     -42.893  55.941 -58.265  1.00  0.00     0.024 A 
HETATM   18  C   UNL     1     -43.282  55.635 -56.957  1.00  0.00     0.009 A 
ENDBRANCH  11  12
BRANCH   1  19
HETATM   19  C   UNL     1     -41.046  55.818 -54.116  1.00  0.00     0.267 C 
HETATM   20  O   UNL     1     -40.566  56.907 -53.818  1.00  0.00    -0.265 OA
BRANCH  19  21
HETATM   21  O   UNL     1     -40.411  54.865 -54.842  1.00  0.00    -0.321 OA
BRANCH  21  22
HETATM   22  C   UNL     1     -41.030  53.569 -54.843  1.00  0.00     0.174 C 
HETATM   23  C   UNL     1     -40.100  52.535 -54.236  1.00  0.00     0.034 C 
ENDBRANCH  21  22
ENDBRANCH  19  21
ENDBRANCH   1  19
BRANCH   2  24
HETATM   24  O   UNL     1     -43.847  54.640 -51.900  1.00  0.00    -0.389 OA
HETATM   25  H   UNL     1     -43.778  54.273 -51.001  1.00  0.00     0.210 HD
ENDBRANCH   2  24
BRANCH   7  26
HETATM   26  O   UNL     1     -45.711  58.589 -55.208  1.00  0.00    -0.343 OA
HETATM   27  H   UNL     1     -45.255  59.255 -55.743  1.00  0.00     0.219 HD
ENDBRANCH   7  26
TORSDOF 6
ENDMDL
MODEL 9
REMARK VINA RESULT:      -6.0      2.770      4.483
REMARK  6 active torsions:
REMARK  status: ('A' for Active; 'I' for Inactive)
REMARK    1  A    between atoms: C_2  and  O_3 
REMARK    2  A    between atoms: O_3  and  C_4 
REMARK    3  A    between atoms: C_4  and  C_5 
REMARK    4  A    between atoms: C_6  and  O_7 
REMARK    5  A    between atoms: C_12  and  O_13 
REMARK    6  A    between atoms: C_17  and  C_18 
ROOT
HETATM    1  C   UNL     1     -42.158  55.998 -53.473  1.00  0.00     0.133 C 
HETATM    2  C   UNL     1     -42.814  57.210 -52.744  1.00  0.00     0.073 C 
HETATM    3  C   UNL     1     -44.046  57.755 -53.483  1.00  0.00     0.047 C 
HETATM    4  C   UNL     1     -43.190  56.922 -51.259  1.00  0.00     0.097 C 
HETATM    5  C   UNL     1     -42.117  56.129 -50.607  1.00  0.00     0.042 A 
HETATM    6  C   UNL     1     -41.109  55.418 -51.226  1.00  0.00     0.030 A 
HETATM    7  C   UNL     1     -40.338  54.956 -50.146  1.00  0.00     0.190 A 
HETATM    8  N   UNL     1     -40.832  55.283 -48.957  1.00  0.00    -0.149 NA
HETATM    9  N   UNL     1     -41.915  56.016 -49.263  1.00  0.00    -0.279 N 
HETATM   10  H   UNL     1     -42.452  56.421 -48.502  1.00  0.00     0.189 HD
HETATM   11  C   UNL     1     -40.947  55.376 -52.710  1.00  0.00     0.074 C 
ENDROOT
BRANCH  11  12
HETATM   12  C   UNL     1     -40.583  53.959 -53.139  1.00  0.00    -0.048 A 
HETATM   13  C   UNL     1     -40.727  52.836 -52.301  1.00  0.00     0.009 A 
HETATM   14  C   UNL     1     -40.419  51.552 -52.758  1.00  0.00     0.024 A 
HETATM   15  C   UNL     1     -39.979  51.370 -54.064  1.00  0.00     0.034 A 
HETATM   16 CL   UNL     1     -39.612  49.788 -54.631  1.00  0.00    -0.084 Cl
HETATM   17  C   UNL     1     -39.841  52.462 -54.916  1.00  0.00     0.024 A 
HETATM   18  C   UNL     1     -40.142  53.747 -54.457  1.00  0.00     0.009 A 
ENDBRANCH  11  12
BRANCH   1  19
HETATM   19  C   UNL     1     -43.183  54.976 -53.920  1.00  0.00     0.267 C 
HETATM   20  O   UNL     1     -43.807  54.280 -53.127  1.00  0.00    -0.265 OA
BRANCH  19  21
HETATM   21  O   UNL     1     -43.299  54.906 -55.269  1.00  0.00    -0.321 OA
BRANCH  21  22
HETATM   22  C   UNL     1     -42.439  55.783 -56.014  1.00  0.00     0.174 C 
HETATM   23  C   UNL     1     -43.211  56.463 -57.129  1.00  0.00     0.034 C 
ENDBRANCH  21  22
ENDBRANCH  19  21
ENDBRANCH   1  19
BRANCH   2  24
HETATM   24  O   UNL     1     -41.847  58.286 -52.736  1.00  0.00    -0.389 OA
HETATM   25  H   UNL     1     -41.166  58.091 -52.068  1.00  0.00     0.210 HD
ENDBRANCH   2  24
BRANCH   7  26
HETATM   26  O   UNL     1     -39.206  54.248 -50.141  1.00  0.00    -0.343 OA
HETATM   27  H   UNL     1     -39.120  53.766 -50.976  1.00  0.00     0.219 HD
ENDBRANCH   7  26
TORSDOF 6
ENDMDL
MODEL 10
REMARK VINA RESULT:      -6.0      2.763      4.716
REMARK  6 active torsions:
REMARK  status: ('A' for Active; 'I' for Inactive)
REMARK    1  A    between atoms: C_2  and  O_3 
REMARK    2  A    between atoms: O_3  and  C_4 
REMARK    3  A    between atoms: C_4  and  C_5 
REMARK    4  A    between atoms: C_6  and  O_7 
REMARK    5  A    between atoms: C_12  and  O_13 
REMARK    6  A    between atoms: C_17  and  C_18 
ROOT
HETATM    1  C   UNL     1     -41.943  53.961 -51.997  1.00  0.00     0.133 C 
HETATM    2  C   UNL     1     -41.501  54.027 -50.503  1.00  0.00     0.073 C 
HETATM    3  C   UNL     1     -40.621  52.837 -50.088  1.00  0.00     0.047 C 
HETATM    4  C   UNL     1     -40.785  55.356 -50.118  1.00  0.00     0.097 C 
HETATM    5  C   UNL     1     -41.465  56.507 -50.764  1.00  0.00     0.042 A 
HETATM    6  C   UNL     1     -42.350  56.468 -51.822  1.00  0.00     0.030 A 
HETATM    7  C   UNL     1     -42.750  57.810 -51.949  1.00  0.00     0.190 A 
HETATM    8  N   UNL     1     -42.141  58.633 -51.103  1.00  0.00    -0.149 NA
HETATM    9  N   UNL     1     -41.368  57.810 -50.374  1.00  0.00    -0.279 N 
HETATM   10  H   UNL     1     -40.821  58.210 -49.618  1.00  0.00     0.189 HD
HETATM   11  C   UNL     1     -42.777  55.192 -52.469  1.00  0.00     0.074 C 
ENDROOT
BRANCH  11  12
HETATM   12  C   UNL     1     -42.832  55.385 -53.980  1.00  0.00    -0.048 A 
HETATM   13  C   UNL     1     -42.189  56.444 -54.648  1.00  0.00     0.009 A 
HETATM   14  C   UNL     1     -42.233  56.551 -56.041  1.00  0.00     0.024 A 
HETATM   15  C   UNL     1     -42.907  55.591 -56.786  1.00  0.00     0.034 A 
HETATM   16 CL   UNL     1     -42.953  55.714 -58.501  1.00  0.00    -0.084 Cl
HETATM   17  C   UNL     1     -43.540  54.526 -56.151  1.00  0.00     0.024 A 
HETATM   18  C   UNL     1     -43.501  54.424 -54.757  1.00  0.00     0.009 A 
ENDBRANCH  11  12
BRANCH   1  19
HETATM   19  C   UNL     1     -40.791  53.620 -52.920  1.00  0.00     0.267 C 
HETATM   20  O   UNL     1     -39.866  54.396 -53.133  1.00  0.00    -0.265 OA
BRANCH  19  21
HETATM   21  O   UNL     1     -40.921  52.396 -53.491  1.00  0.00    -0.321 OA
BRANCH  21  22
HETATM   22  C   UNL     1     -39.731  51.592 -53.515  1.00  0.00     0.174 C 
HETATM   23  C   UNL     1     -40.006  50.257 -54.180  1.00  0.00     0.034 C 
ENDBRANCH  21  22
ENDBRANCH  19  21
ENDBRANCH   1  19
BRANCH   2  24
HETATM   24  O   UNL     1     -42.697  53.939 -49.694  1.00  0.00    -0.389 OA
HETATM   25  H   UNL     1     -42.444  53.979 -48.755  1.00  0.00     0.210 HD
ENDBRANCH   2  24
BRANCH   7  26
HETATM   26  O   UNL     1     -43.634  58.366 -52.781  1.00  0.00    -0.343 OA
HETATM   27  H   UNL     1     -43.173  58.946 -53.404  1.00  0.00     0.219 HD
ENDBRANCH   7  26
TORSDOF 6
ENDMDL
