MODEL 1
REMARK VINA RESULT:      -8.0      0.000      0.000
REMARK  9 active torsions:
REMARK  status: ('A' for Active; 'I' for Inactive)
REMARK    1  A    between atoms: O_2  and  C_3 
REMARK    2  A    between atoms: C_6  and  N_7 
REMARK       I    between atoms: N_7  and  C_8 
REMARK    3  A    between atoms: C_8  and  C_9 
REMARK    4  A    between atoms: C_9  and  N_10 
REMARK    5  A    between atoms: N_10  and  C_12 
REMARK    6  A    between atoms: N_10  and  C_24 
REMARK    7  A    between atoms: C_12  and  S_13 
REMARK    8  A    between atoms: S_13  and  C_14 
REMARK    9  A    between atoms: C_24  and  C_25 
ROOT
HETATM    1  N   UNL     1     -43.847  58.539 -56.334  1.00  0.00    -0.041 N 
HETATM    2  H   UNL     1     -43.048  58.589 -55.665  1.00  0.00     0.282 HD
ENDROOT
BRANCH   1   3
HETATM    3  C   UNL     1     -43.352  57.528 -57.508  1.00  0.00     0.208 C 
HETATM    4  C   UNL     1     -42.123  58.179 -58.198  1.00  0.00     0.049 C 
HETATM    5  C   UNL     1     -41.788  57.715 -59.623  1.00  0.00     0.003 C 
HETATM    6  C   UNL     1     -43.005  57.464 -60.501  1.00  0.00     0.000 C 
HETATM    7  C   UNL     1     -44.040  56.592 -59.805  1.00  0.00     0.003 C 
HETATM    8  C   UNL     1     -44.497  57.258 -58.507  1.00  0.00     0.049 C 
BRANCH   3   9
HETATM    9  C   UNL     1     -43.056  56.134 -56.811  1.00  0.00     0.259 C 
HETATM   10  N   UNL     1     -42.370  56.157 -55.619  1.00  0.00    -0.325 N 
HETATM   11  H   UNL     1     -42.239  57.037 -55.145  1.00  0.00     0.169 HD
HETATM   12  O   UNL     1     -43.418  55.111 -57.396  1.00  0.00    -0.270 OA
BRANCH  10  13
HETATM   13  C   UNL     1     -41.747  55.077 -54.956  1.00  0.00     0.035 A 
HETATM   14  C   UNL     1     -40.562  54.474 -55.371  1.00  0.00     0.032 A 
HETATM   15  C   UNL     1     -39.980  53.465 -54.592  1.00  0.00     0.039 A 
HETATM   16  C   UNL     1     -40.564  53.050 -53.395  1.00  0.00     0.068 A 
HETATM   17  C   UNL     1     -41.763  53.629 -52.993  1.00  0.00     0.039 A 
HETATM   18  C   UNL     1     -42.349  54.637 -53.768  1.00  0.00     0.032 A 
BRANCH  16  19
HETATM   19  O   UNL     1     -39.877  52.081 -52.720  1.00  0.00    -0.356 OA
HETATM   20  C   UNL     1     -39.918  52.140 -51.299  1.00  0.00     0.210 C 
ENDBRANCH  16  19
ENDBRANCH  10  13
ENDBRANCH   3   9
ENDBRANCH   1   3
BRANCH   1  21
HETATM   21  C   UNL     1     -43.901  59.972 -56.856  1.00  0.00     0.318 C 
BRANCH  21  22
HETATM   22  S   UNL     1     -42.561  61.046 -56.325  1.00  0.00    -0.064 SA
BRANCH  22  23
HETATM   23  C   UNL     1     -42.048  60.310 -54.864  1.00  0.00     0.169 A 
HETATM   24  N   UNL     1     -41.503  59.126 -54.747  1.00  0.00    -0.223 NA
HETATM   25  C   UNL     1     -41.352  58.956 -53.384  1.00  0.00     0.086 A 
HETATM   26  C   UNL     1     -41.844  60.057 -52.685  1.00  0.00     0.063 A 
HETATM   27  C   UNL     1     -40.822  57.874 -52.666  1.00  0.00     0.034 A 
HETATM   28  N   UNL     1     -42.277  60.914 -53.664  1.00  0.00    -0.333 N 
HETATM   29  C   UNL     1     -41.847  60.146 -51.293  1.00  0.00     0.032 A 
HETATM   30  H   UNL     1     -42.705  61.817 -53.522  1.00  0.00     0.168 HD
HETATM   31  C   UNL     1     -41.321  59.054 -50.594  1.00  0.00     0.002 A 
HETATM   32  C   UNL     1     -40.816  57.938 -51.266  1.00  0.00     0.002 A 
ENDBRANCH  22  23
ENDBRANCH  21  22
ENDBRANCH   1  21
BRANCH   1  33
HETATM   33  C   UNL     1     -45.088  58.171 -55.536  1.00  0.00     0.275 C 
BRANCH  33  34
HETATM   34  C   UNL     1     -45.063  58.359 -54.040  1.00  0.00    -0.033 A 
HETATM   35  C   UNL     1     -44.592  57.366 -53.170  1.00  0.00     0.009 A 
HETATM   36  C   UNL     1     -44.593  57.570 -51.789  1.00  0.00     0.001 A 
HETATM   37  C   UNL     1     -45.046  58.775 -51.259  1.00  0.00     0.000 A 
HETATM   38  C   UNL     1     -45.484  59.786 -52.110  1.00  0.00     0.001 A 
HETATM   39  C   UNL     1     -45.482  59.585 -53.491  1.00  0.00     0.009 A 
ENDBRANCH  33  34
ENDBRANCH   1  33
TORSDOF 9
ENDMDL
MODEL 2
REMARK VINA RESULT:      -7.7      2.251      5.569
REMARK  9 active torsions:
REMARK  status: ('A' for Active; 'I' for Inactive)
REMARK    1  A    between atoms: O_2  and  C_3 
REMARK    2  A    between atoms: C_6  and  N_7 
REMARK       I    between atoms: N_7  and  C_8 
REMARK    3  A    between atoms: C_8  and  C_9 
REMARK    4  A    between atoms: C_9  and  N_10 
REMARK    5  A    between atoms: N_10  and  C_12 
REMARK    6  A    between atoms: N_10  and  C_24 
REMARK    7  A    between atoms: C_12  and  S_13 
REMARK    8  A    between atoms: S_13  and  C_14 
REMARK    9  A    between atoms: C_24  and  C_25 
ROOT
HETATM    1  N   UNL     1     -43.671  56.715 -54.392  1.00  0.00    -0.041 N 
HETATM    2  H   UNL     1     -43.114  56.863 -55.261  1.00  0.00     0.282 HD
ENDROOT
BRANCH   1   3
HETATM    3  C   UNL     1     -42.698  57.196 -53.180  1.00  0.00     0.208 C 
HETATM    4  C   UNL     1     -43.525  58.136 -52.262  1.00  0.00     0.049 C 
HETATM    5  C   UNL     1     -42.745  59.113 -51.370  1.00  0.00     0.003 C 
HETATM    6  C   UNL     1     -41.517  59.720 -52.033  1.00  0.00     0.000 C 
HETATM    7  C   UNL     1     -40.641  58.662 -52.687  1.00  0.00     0.003 C 
HETATM    8  C   UNL     1     -41.443  57.897 -53.740  1.00  0.00     0.049 C 
BRANCH   3   9
HETATM    9  C   UNL     1     -42.172  55.877 -52.472  1.00  0.00     0.259 C 
HETATM   10  N   UNL     1     -41.040  55.290 -52.990  1.00  0.00    -0.325 N 
HETATM   11  H   UNL     1     -40.491  55.797 -53.665  1.00  0.00     0.169 HD
HETATM   12  O   UNL     1     -42.829  55.430 -51.530  1.00  0.00    -0.270 OA
BRANCH  10  13
HETATM   13  C   UNL     1     -40.542  53.994 -52.735  1.00  0.00     0.035 A 
HETATM   14  C   UNL     1     -40.228  53.505 -51.469  1.00  0.00     0.032 A 
HETATM   15  C   UNL     1     -39.823  52.173 -51.313  1.00  0.00     0.039 A 
HETATM   16  C   UNL     1     -39.731  51.314 -52.410  1.00  0.00     0.068 A 
HETATM   17  C   UNL     1     -40.013  51.808 -53.679  1.00  0.00     0.039 A 
HETATM   18  C   UNL     1     -40.419  53.138 -53.839  1.00  0.00     0.032 A 
BRANCH  16  19
HETATM   19  O   UNL     1     -39.354  50.035 -52.114  1.00  0.00    -0.356 OA
HETATM   20  C   UNL     1     -39.497  49.622 -50.760  1.00  0.00     0.210 C 
ENDBRANCH  16  19
ENDBRANCH  10  13
ENDBRANCH   3   9
ENDBRANCH   1   3
BRANCH   1  21
HETATM   21  C   UNL     1     -43.823  55.197 -54.380  1.00  0.00     0.318 C 
BRANCH  21  22
HETATM   22  S   UNL     1     -43.126  54.331 -55.792  1.00  0.00    -0.064 SA
BRANCH  22  23
HETATM   23  C   UNL     1     -42.997  55.574 -56.966  1.00  0.00     0.169 A 
HETATM   24  N   UNL     1     -42.216  56.622 -56.898  1.00  0.00    -0.223 NA
HETATM   25  C   UNL     1     -42.536  57.355 -58.024  1.00  0.00     0.086 A 
HETATM   26  C   UNL     1     -43.546  56.734 -58.756  1.00  0.00     0.063 A 
HETATM   27  C   UNL     1     -42.019  58.578 -58.476  1.00  0.00     0.034 A 
HETATM   28  N   UNL     1     -43.815  55.587 -58.056  1.00  0.00    -0.333 N 
HETATM   29  C   UNL     1     -44.086  57.266 -59.927  1.00  0.00     0.032 A 
HETATM   30  H   UNL     1     -44.507  54.890 -58.292  1.00  0.00     0.168 HD
HETATM   31  C   UNL     1     -43.562  58.490 -60.359  1.00  0.00     0.002 A 
HETATM   32  C   UNL     1     -42.547  59.135 -59.650  1.00  0.00     0.002 A 
ENDBRANCH  22  23
ENDBRANCH  21  22
ENDBRANCH   1  21
BRANCH   1  33
HETATM   33  C   UNL     1     -45.002  57.425 -54.577  1.00  0.00     0.275 C 
BRANCH  33  34
HETATM   34  C   UNL     1     -45.105  58.496 -55.634  1.00  0.00    -0.033 A 
HETATM   35  C   UNL     1     -44.295  59.640 -55.620  1.00  0.00     0.009 A 
HETATM   36  C   UNL     1     -44.425  60.616 -56.610  1.00  0.00     0.001 A 
HETATM   37  C   UNL     1     -45.352  60.455 -57.636  1.00  0.00     0.000 A 
HETATM   38  C   UNL     1     -46.140  59.309 -57.685  1.00  0.00     0.001 A 
HETATM   39  C   UNL     1     -46.011  58.331 -56.699  1.00  0.00     0.009 A 
ENDBRANCH  33  34
ENDBRANCH   1  33
TORSDOF 9
ENDMDL
MODEL 3
REMARK VINA RESULT:      -7.6      2.143      6.330
REMARK  9 active torsions:
REMARK  status: ('A' for Active; 'I' for Inactive)
REMARK    1  A    between atoms: O_2  and  C_3 
REMARK    2  A    between atoms: C_6  and  N_7 
REMARK       I    between atoms: N_7  and  C_8 
REMARK    3  A    between atoms: C_8  and  C_9 
REMARK    4  A    between atoms: C_9  and  N_10 
REMARK    5  A    between atoms: N_10  and  C_12 
REMARK    6  A    between atoms: N_10  and  C_24 
REMARK    7  A    between atoms: C_12  and  S_13 
REMARK    8  A    between atoms: S_13  and  C_14 
REMARK    9  A    between atoms: C_24  and  C_25 
ROOT
HETATM    1  N   UNL     1     -42.658  58.118 -53.688  1.00  0.00    -0.041 N 
HETATM    2  H   UNL     1     -43.435  57.433 -53.816  1.00  0.00     0.282 HD
ENDROOT
BRANCH   1   3
HETATM    3  C   UNL     1     -42.697  58.510 -52.110  1.00  0.00     0.208 C 
HETATM    4  C   UNL     1     -43.979  59.352 -51.870  1.00  0.00     0.049 C 
HETATM    5  C   UNL     1     -44.000  60.264 -50.634  1.00  0.00     0.003 C 
HETATM    6  C   UNL     1     -42.674  60.948 -50.339  1.00  0.00     0.000 C 
HETATM    7  C   UNL     1     -41.511  59.967 -50.350  1.00  0.00     0.003 C 
HETATM    8  C   UNL     1     -41.420  59.280 -51.713  1.00  0.00     0.049 C 
BRANCH   3   9
HETATM    9  C   UNL     1     -42.642  57.145 -51.302  1.00  0.00     0.259 C 
HETATM   10  N   UNL     1     -41.400  56.662 -50.962  1.00  0.00    -0.325 N 
HETATM   11  H   UNL     1     -40.596  57.259 -51.068  1.00  0.00     0.169 HD
HETATM   12  O   UNL     1     -43.709  56.576 -51.067  1.00  0.00    -0.270 OA
BRANCH  10  13
HETATM   13  C   UNL     1     -41.069  55.367 -50.507  1.00  0.00     0.035 A 
HETATM   14  C   UNL     1     -40.918  55.016 -49.168  1.00  0.00     0.032 A 
HETATM   15  C   UNL     1     -40.675  53.682 -48.817  1.00  0.00     0.039 A 
HETATM   16  C   UNL     1     -40.584  52.685 -49.789  1.00  0.00     0.068 A 
HETATM   17  C   UNL     1     -40.703  53.037 -51.130  1.00  0.00     0.039 A 
HETATM   18  C   UNL     1     -40.947  54.369 -51.485  1.00  0.00     0.032 A 
BRANCH  16  19
HETATM   19  O   UNL     1     -40.375  51.423 -49.309  1.00  0.00    -0.356 OA
HETATM   20  C   UNL     1     -40.130  50.404 -50.271  1.00  0.00     0.210 C 
ENDBRANCH  16  19
ENDBRANCH  10  13
ENDBRANCH   3   9
ENDBRANCH   1   3
BRANCH   1  21
HETATM   21  C   UNL     1     -43.140  59.289 -54.538  1.00  0.00     0.318 C 
BRANCH  21  22
HETATM   22  S   UNL     1     -42.197  59.608 -56.035  1.00  0.00    -0.064 SA
BRANCH  22  23
HETATM   23  C   UNL     1     -42.951  58.575 -57.178  1.00  0.00     0.169 A 
HETATM   24  N   UNL     1     -44.191  58.654 -57.588  1.00  0.00    -0.223 NA
HETATM   25  C   UNL     1     -44.339  57.565 -58.426  1.00  0.00     0.086 A 
HETATM   26  C   UNL     1     -43.164  56.817 -58.488  1.00  0.00     0.063 A 
HETATM   27  C   UNL     1     -45.459  57.137 -59.154  1.00  0.00     0.034 A 
HETATM   28  N   UNL     1     -42.288  57.497 -57.682  1.00  0.00    -0.333 N 
HETATM   29  C   UNL     1     -43.034  55.648 -59.237  1.00  0.00     0.032 A 
HETATM   30  H   UNL     1     -41.333  57.235 -57.482  1.00  0.00     0.168 HD
HETATM   31  C   UNL     1     -44.164  55.233 -59.951  1.00  0.00     0.002 A 
HETATM   32  C   UNL     1     -45.355  55.962 -59.913  1.00  0.00     0.002 A 
ENDBRANCH  22  23
ENDBRANCH  21  22
ENDBRANCH   1  21
BRANCH   1  33
HETATM   33  C   UNL     1     -41.394  57.484 -54.246  1.00  0.00     0.275 C 
BRANCH  33  34
HETATM   34  C   UNL     1     -41.399  56.004 -54.536  1.00  0.00    -0.033 A 
HETATM   35  C   UNL     1     -42.587  55.264 -54.626  1.00  0.00     0.009 A 
HETATM   36  C   UNL     1     -42.553  53.893 -54.886  1.00  0.00     0.001 A 
HETATM   37  C   UNL     1     -41.336  53.245 -55.078  1.00  0.00     0.000 A 
HETATM   38  C   UNL     1     -40.149  53.970 -55.027  1.00  0.00     0.001 A 
HETATM   39  C   UNL     1     -40.180  55.342 -54.770  1.00  0.00     0.009 A 
ENDBRANCH  33  34
ENDBRANCH   1  33
TORSDOF 9
ENDMDL
MODEL 4
REMARK VINA RESULT:      -7.4      1.859      5.841
REMARK  9 active torsions:
REMARK  status: ('A' for Active; 'I' for Inactive)
REMARK    1  A    between atoms: O_2  and  C_3 
REMARK    2  A    between atoms: C_6  and  N_7 
REMARK       I    between atoms: N_7  and  C_8 
REMARK    3  A    between atoms: C_8  and  C_9 
REMARK    4  A    between atoms: C_9  and  N_10 
REMARK    5  A    between atoms: N_10  and  C_12 
REMARK    6  A    between atoms: N_10  and  C_24 
REMARK    7  A    between atoms: C_12  and  S_13 
REMARK    8  A    between atoms: S_13  and  C_14 
REMARK    9  A    between atoms: C_24  and  C_25 
ROOT
HETATM    1  N   UNL     1     -42.809  59.144 -55.401  1.00  0.00    -0.041 N 
HETATM    2  H   UNL     1     -43.758  59.034 -55.820  1.00  0.00     0.282 HD
ENDROOT
BRANCH   1   3
HETATM    3  C   UNL     1     -42.912  58.449 -53.934  1.00  0.00     0.208 C 
HETATM    4  C   UNL     1     -44.358  57.905 -53.775  1.00  0.00     0.049 C 
HETATM    5  C   UNL     1     -44.870  57.677 -52.345  1.00  0.00     0.003 C 
HETATM    6  C   UNL     1     -44.431  58.737 -51.347  1.00  0.00     0.000 C 
HETATM    7  C   UNL     1     -42.935  59.005 -51.421  1.00  0.00     0.003 C 
HETATM    8  C   UNL     1     -42.555  59.464 -52.829  1.00  0.00     0.049 C 
BRANCH   3   9
HETATM    9  C   UNL     1     -41.779  57.339 -53.878  1.00  0.00     0.259 C 
HETATM   10  N   UNL     1     -42.163  56.034 -54.079  1.00  0.00    -0.325 N 
HETATM   11  H   UNL     1     -43.089  55.843 -54.426  1.00  0.00     0.169 HD
HETATM   12  O   UNL     1     -40.632  57.704 -53.614  1.00  0.00    -0.270 OA
BRANCH  10  13
HETATM   13  C   UNL     1     -41.424  54.861 -53.807  1.00  0.00     0.035 A 
HETATM   14  C   UNL     1     -41.284  54.293 -52.543  1.00  0.00     0.032 A 
HETATM   15  C   UNL     1     -40.602  53.078 -52.393  1.00  0.00     0.039 A 
HETATM   16  C   UNL     1     -40.060  52.415 -53.495  1.00  0.00     0.068 A 
HETATM   17  C   UNL     1     -40.171  52.995 -54.754  1.00  0.00     0.039 A 
HETATM   18  C   UNL     1     -40.852  54.209 -54.908  1.00  0.00     0.032 A 
BRANCH  16  19
HETATM   19  O   UNL     1     -39.449  51.226 -53.213  1.00  0.00    -0.356 OA
HETATM   20  C   UNL     1     -39.749  50.133 -54.072  1.00  0.00     0.210 C 
ENDBRANCH  16  19
ENDBRANCH  10  13
ENDBRANCH   3   9
ENDBRANCH   1   3
BRANCH   1  21
HETATM   21  C   UNL     1     -42.709  60.660 -55.264  1.00  0.00     0.318 C 
BRANCH  21  22
HETATM   22  S   UNL     1     -44.160  61.588 -55.779  1.00  0.00    -0.064 SA
BRANCH  22  23
HETATM   23  C   UNL     1     -44.934  60.502 -56.858  1.00  0.00     0.169 A 
HETATM   24  N   UNL     1     -45.675  59.478 -56.521  1.00  0.00    -0.223 NA
HETATM   25  C   UNL     1     -45.990  58.878 -57.725  1.00  0.00     0.086 A 
HETATM   26  C   UNL     1     -45.399  59.555 -58.791  1.00  0.00     0.063 A 
HETATM   27  C   UNL     1     -46.761  57.736 -57.986  1.00  0.00     0.034 A 
HETATM   28  N   UNL     1     -44.734  60.599 -58.202  1.00  0.00    -0.333 N 
HETATM   29  C   UNL     1     -45.524  59.155 -60.121  1.00  0.00     0.032 A 
HETATM   30  H   UNL     1     -44.181  61.299 -58.675  1.00  0.00     0.168 HD
HETATM   31  C   UNL     1     -46.291  58.009 -60.361  1.00  0.00     0.002 A 
HETATM   32  C   UNL     1     -46.900  57.312 -59.315  1.00  0.00     0.002 A 
ENDBRANCH  22  23
ENDBRANCH  21  22
ENDBRANCH   1  21
BRANCH   1  33
HETATM   33  C   UNL     1     -41.803  58.589 -56.397  1.00  0.00     0.275 C 
BRANCH  33  34
HETATM   34  C   UNL     1     -42.310  57.734 -57.531  1.00  0.00    -0.033 A 
HETATM   35  C   UNL     1     -43.131  56.618 -57.316  1.00  0.00     0.009 A 
HETATM   36  C   UNL     1     -43.574  55.843 -58.390  1.00  0.00     0.001 A 
HETATM   37  C   UNL     1     -43.219  56.181 -59.692  1.00  0.00     0.000 A 
HETATM   38  C   UNL     1     -42.434  57.307 -59.927  1.00  0.00     0.001 A 
HETATM   39  C   UNL     1     -41.992  58.085 -58.856  1.00  0.00     0.009 A 
ENDBRANCH  33  34
ENDBRANCH   1  33
TORSDOF 9
ENDMDL
MODEL 5
REMARK VINA RESULT:      -7.3      3.016      6.215
REMARK  9 active torsions:
REMARK  status: ('A' for Active; 'I' for Inactive)
REMARK    1  A    between atoms: O_2  and  C_3 
REMARK    2  A    between atoms: C_6  and  N_7 
REMARK       I    between atoms: N_7  and  C_8 
REMARK    3  A    between atoms: C_8  and  C_9 
REMARK    4  A    between atoms: C_9  and  N_10 
REMARK    5  A    between atoms: N_10  and  C_12 
REMARK    6  A    between atoms: N_10  and  C_24 
REMARK    7  A    between atoms: C_12  and  S_13 
REMARK    8  A    between atoms: S_13  and  C_14 
REMARK    9  A    between atoms: C_24  and  C_25 
ROOT
HETATM    1  N   UNL     1     -43.926  56.957 -56.224  1.00  0.00    -0.041 N 
HETATM    2  H   UNL     1     -43.042  57.396 -55.884  1.00  0.00     0.282 HD
ENDROOT
BRANCH   1   3
HETATM    3  C   UNL     1     -43.944  57.233 -57.828  1.00  0.00     0.208 C 
HETATM    4  C   UNL     1     -45.332  57.831 -58.182  1.00  0.00     0.049 C 
HETATM    5  C   UNL     1     -45.802  57.704 -59.639  1.00  0.00     0.003 C 
HETATM    6  C   UNL     1     -45.447  56.379 -60.296  1.00  0.00     0.000 C 
HETATM    7  C   UNL     1     -43.983  56.018 -60.096  1.00  0.00     0.003 C 
HETATM    8  C   UNL     1     -43.666  55.929 -58.603  1.00  0.00     0.049 C 
BRANCH   3   9
HETATM    9  C   UNL     1     -42.715  58.186 -58.138  1.00  0.00     0.259 C 
HETATM   10  N   UNL     1     -42.994  59.499 -58.439  1.00  0.00    -0.325 N 
HETATM   11  H   UNL     1     -43.924  59.851 -58.281  1.00  0.00     0.169 HD
HETATM   12  O   UNL     1     -41.588  57.687 -58.135  1.00  0.00    -0.270 OA
BRANCH  10  13
HETATM   13  C   UNL     1     -42.132  60.458 -59.015  1.00  0.00     0.035 A 
HETATM   14  C   UNL     1     -42.091  60.767 -60.373  1.00  0.00     0.032 A 
HETATM   15  C   UNL     1     -41.261  61.798 -60.831  1.00  0.00     0.039 A 
HETATM   16  C   UNL     1     -40.470  62.534 -59.948  1.00  0.00     0.068 A 
HETATM   17  C   UNL     1     -40.485  62.208 -58.596  1.00  0.00     0.039 A 
HETATM   18  C   UNL     1     -41.313  61.178 -58.133  1.00  0.00     0.032 A 
BRANCH  16  19
HETATM   19  O   UNL     1     -39.732  63.530 -60.522  1.00  0.00    -0.356 OA
HETATM   20  C   UNL     1     -39.204  63.270 -61.818  1.00  0.00     0.210 C 
ENDBRANCH  16  19
ENDBRANCH  10  13
ENDBRANCH   3   9
ENDBRANCH   1   3
BRANCH   1  21
HETATM   21  C   UNL     1     -44.979  57.812 -55.527  1.00  0.00     0.318 C 
BRANCH  21  22
HETATM   22  S   UNL     1     -44.358  58.978 -54.308  1.00  0.00    -0.064 SA
BRANCH  22  23
HETATM   23  C   UNL     1     -43.629  57.950 -53.145  1.00  0.00     0.169 A 
HETATM   24  N   UNL     1     -42.362  57.930 -52.821  1.00  0.00    -0.223 NA
HETATM   25  C   UNL     1     -42.260  56.888 -51.919  1.00  0.00     0.086 A 
HETATM   26  C   UNL     1     -43.494  56.267 -51.730  1.00  0.00     0.063 A 
HETATM   27  C   UNL     1     -41.139  56.397 -51.235  1.00  0.00     0.034 A 
HETATM   28  N   UNL     1     -44.355  56.978 -52.525  1.00  0.00    -0.333 N 
HETATM   29  C   UNL     1     -43.683  55.167 -50.894  1.00  0.00     0.032 A 
HETATM   30  H   UNL     1     -45.343  56.802 -52.646  1.00  0.00     0.168 HD
HETATM   31  C   UNL     1     -42.551  54.687 -50.226  1.00  0.00     0.002 A 
HETATM   32  C   UNL     1     -41.302  55.290 -50.390  1.00  0.00     0.002 A 
ENDBRANCH  22  23
ENDBRANCH  21  22
ENDBRANCH   1  21
BRANCH   1  33
HETATM   33  C   UNL     1     -43.938  55.518 -55.736  1.00  0.00     0.275 C 
BRANCH  33  34
HETATM   34  C   UNL     1     -42.689  54.964 -55.099  1.00  0.00    -0.033 A 
HETATM   35  C   UNL     1     -42.703  53.802 -54.313  1.00  0.00     0.009 A 
HETATM   36  C   UNL     1     -41.529  53.323 -53.730  1.00  0.00     0.001 A 
HETATM   37  C   UNL     1     -40.322  53.985 -53.937  1.00  0.00     0.000 A 
HETATM   38  C   UNL     1     -40.283  55.119 -54.743  1.00  0.00     0.001 A 
HETATM   39  C   UNL     1     -41.455  55.599 -55.329  1.00  0.00     0.009 A 
ENDBRANCH  33  34
ENDBRANCH   1  33
TORSDOF 9
ENDMDL
MODEL 6
REMARK VINA RESULT:      -7.2      2.299      6.015
REMARK  9 active torsions:
REMARK  status: ('A' for Active; 'I' for Inactive)
REMARK    1  A    between atoms: O_2  and  C_3 
REMARK    2  A    between atoms: C_6  and  N_7 
REMARK       I    between atoms: N_7  and  C_8 
REMARK    3  A    between atoms: C_8  and  C_9 
REMARK    4  A    between atoms: C_9  and  N_10 
REMARK    5  A    between atoms: N_10  and  C_12 
REMARK    6  A    between atoms: N_10  and  C_24 
REMARK    7  A    between atoms: C_12  and  S_13 
REMARK    8  A    between atoms: S_13  and  C_14 
REMARK    9  A    between atoms: C_24  and  C_25 
ROOT
HETATM    1  N   UNL     1     -41.960  56.249 -52.662  1.00  0.00    -0.041 N 
HETATM    2  H   UNL     1     -42.918  56.623 -52.840  1.00  0.00     0.282 HD
ENDROOT
BRANCH   1   3
HETATM    3  C   UNL     1     -41.759  55.063 -53.757  1.00  0.00     0.208 C 
HETATM    4  C   UNL     1     -41.850  53.710 -53.001  1.00  0.00     0.049 C 
HETATM    5  C   UNL     1     -41.200  52.488 -53.666  1.00  0.00     0.003 C 
HETATM    6  C   UNL     1     -39.885  52.785 -54.370  1.00  0.00     0.000 C 
HETATM    7  C   UNL     1     -39.990  53.993 -55.289  1.00  0.00     0.003 C 
HETATM    8  C   UNL     1     -40.410  55.224 -54.487  1.00  0.00     0.049 C 
BRANCH   3   9
HETATM    9  C   UNL     1     -42.874  55.276 -54.865  1.00  0.00     0.259 C 
HETATM   10  N   UNL     1     -42.545  56.056 -55.950  1.00  0.00    -0.325 N 
HETATM   11  H   UNL     1     -41.582  56.309 -56.098  1.00  0.00     0.169 HD
HETATM   12  O   UNL     1     -43.981  54.771 -54.670  1.00  0.00    -0.270 OA
BRANCH  10  13
HETATM   13  C   UNL     1     -43.416  56.621 -56.907  1.00  0.00     0.035 A 
HETATM   14  C   UNL     1     -44.217  57.738 -56.682  1.00  0.00     0.032 A 
HETATM   15  C   UNL     1     -44.981  58.273 -57.728  1.00  0.00     0.039 A 
HETATM   16  C   UNL     1     -44.953  57.710 -59.004  1.00  0.00     0.068 A 
HETATM   17  C   UNL     1     -44.178  56.576 -59.224  1.00  0.00     0.039 A 
HETATM   18  C   UNL     1     -43.413  56.037 -58.182  1.00  0.00     0.032 A 
BRANCH  16  19
HETATM   19  O   UNL     1     -45.721  58.348 -59.937  1.00  0.00    -0.356 OA
HETATM   20  C   UNL     1     -45.340  59.676 -60.278  1.00  0.00     0.210 C 
ENDBRANCH  16  19
ENDBRANCH  10  13
ENDBRANCH   3   9
ENDBRANCH   1   3
BRANCH   1  21
HETATM   21  C   UNL     1     -42.119  55.659 -51.263  1.00  0.00     0.318 C 
BRANCH  21  22
HETATM   22  S   UNL     1     -43.799  55.591 -50.630  1.00  0.00    -0.064 SA
BRANCH  22  23
HETATM   23  C   UNL     1     -44.485  57.042 -51.234  1.00  0.00     0.169 A 
HETATM   24  N   UNL     1     -44.671  57.341 -52.495  1.00  0.00    -0.223 NA
HETATM   25  C   UNL     1     -45.163  58.631 -52.467  1.00  0.00     0.086 A 
HETATM   26  C   UNL     1     -45.244  59.109 -51.160  1.00  0.00     0.063 A 
HETATM   27  C   UNL     1     -45.542  59.471 -53.524  1.00  0.00     0.034 A 
HETATM   28  N   UNL     1     -44.810  58.061 -50.390  1.00  0.00    -0.333 N 
HETATM   29  C   UNL     1     -45.681  60.393 -50.835  1.00  0.00     0.032 A 
HETATM   30  H   UNL     1     -44.726  58.052 -49.383  1.00  0.00     0.168 HD
HETATM   31  C   UNL     1     -46.049  61.218 -51.903  1.00  0.00     0.002 A 
HETATM   32  C   UNL     1     -45.983  60.768 -53.224  1.00  0.00     0.002 A 
ENDBRANCH  22  23
ENDBRANCH  21  22
ENDBRANCH   1  21
BRANCH   1  33
HETATM   33  C   UNL     1     -40.999  57.426 -52.683  1.00  0.00     0.275 C 
BRANCH  33  34
HETATM   34  C   UNL     1     -41.535  58.786 -53.051  1.00  0.00    -0.033 A 
HETATM   35  C   UNL     1     -41.812  59.766 -52.086  1.00  0.00     0.009 A 
HETATM   36  C   UNL     1     -42.317  61.012 -52.462  1.00  0.00     0.001 A 
HETATM   37  C   UNL     1     -42.536  61.304 -53.805  1.00  0.00     0.000 A 
HETATM   38  C   UNL     1     -42.234  60.357 -54.779  1.00  0.00     0.001 A 
HETATM   39  C   UNL     1     -41.727  59.111 -54.407  1.00  0.00     0.009 A 
ENDBRANCH  33  34
ENDBRANCH   1  33
TORSDOF 9
ENDMDL
MODEL 7
REMARK VINA RESULT:      -7.2      1.970      6.063
REMARK  9 active torsions:
REMARK  status: ('A' for Active; 'I' for Inactive)
REMARK    1  A    between atoms: O_2  and  C_3 
REMARK    2  A    between atoms: C_6  and  N_7 
REMARK       I    between atoms: N_7  and  C_8 
REMARK    3  A    between atoms: C_8  and  C_9 
REMARK    4  A    between atoms: C_9  and  N_10 
REMARK    5  A    between atoms: N_10  and  C_12 
REMARK    6  A    between atoms: N_10  and  C_24 
REMARK    7  A    between atoms: C_12  and  S_13 
REMARK    8  A    between atoms: S_13  and  C_14 
REMARK    9  A    between atoms: C_24  and  C_25 
ROOT
HETATM    1  N   UNL     1     -42.684  58.483 -54.701  1.00  0.00    -0.041 N 
HETATM    2  H   UNL     1     -43.380  57.719 -54.843  1.00  0.00     0.282 HD
ENDROOT
BRANCH   1   3
HETATM    3  C   UNL     1     -41.798  58.015 -53.420  1.00  0.00     0.208 C 
HETATM    4  C   UNL     1     -42.743  57.980 -52.188  1.00  0.00     0.049 C 
HETATM    5  C   UNL     1     -42.092  58.079 -50.800  1.00  0.00     0.003 C 
HETATM    6  C   UNL     1     -40.918  59.042 -50.727  1.00  0.00     0.000 C 
HETATM    7  C   UNL     1     -39.919  58.810 -51.851  1.00  0.00     0.003 C 
HETATM    8  C   UNL     1     -40.609  58.974 -53.205  1.00  0.00     0.049 C 
BRANCH   3   9
HETATM    9  C   UNL     1     -41.156  56.615 -53.799  1.00  0.00     0.259 C 
HETATM   10  N   UNL     1     -41.770  55.485 -53.311  1.00  0.00    -0.325 N 
HETATM   11  H   UNL     1     -42.684  55.565 -52.894  1.00  0.00     0.169 HD
HETATM   12  O   UNL     1     -40.122  56.622 -54.470  1.00  0.00    -0.270 OA
BRANCH  10  13
HETATM   13  C   UNL     1     -41.256  54.171 -53.264  1.00  0.00     0.035 A 
HETATM   14  C   UNL     1     -41.247  53.288 -54.342  1.00  0.00     0.032 A 
HETATM   15  C   UNL     1     -40.633  52.036 -54.216  1.00  0.00     0.039 A 
HETATM   16  C   UNL     1     -40.019  51.650 -53.024  1.00  0.00     0.068 A 
HETATM   17  C   UNL     1     -40.052  52.516 -51.936  1.00  0.00     0.039 A 
HETATM   18  C   UNL     1     -40.665  53.769 -52.058  1.00  0.00     0.032 A 
BRANCH  16  19
HETATM   19  O   UNL     1     -39.431  50.416 -53.047  1.00  0.00    -0.356 OA
HETATM   20  C   UNL     1     -39.565  49.622 -51.874  1.00  0.00     0.210 C 
ENDBRANCH  16  19
ENDBRANCH  10  13
ENDBRANCH   3   9
ENDBRANCH   1   3
BRANCH   1  21
HETATM   21  C   UNL     1     -43.586  59.654 -54.324  1.00  0.00     0.318 C 
BRANCH  21  22
HETATM   22  S   UNL     1     -45.353  59.359 -54.473  1.00  0.00    -0.064 SA
BRANCH  22  23
HETATM   23  C   UNL     1     -45.546  59.091 -56.156  1.00  0.00     0.169 A 
HETATM   24  N   UNL     1     -45.215  59.920 -57.112  1.00  0.00    -0.223 NA
HETATM   25  C   UNL     1     -45.643  59.293 -58.266  1.00  0.00     0.086 A 
HETATM   26  C   UNL     1     -46.261  58.078 -57.977  1.00  0.00     0.063 A 
HETATM   27  C   UNL     1     -45.557  59.713 -59.602  1.00  0.00     0.034 A 
HETATM   28  N   UNL     1     -46.175  57.972 -56.613  1.00  0.00    -0.333 N 
HETATM   29  C   UNL     1     -46.814  57.244 -58.949  1.00  0.00     0.032 A 
HETATM   30  H   UNL     1     -46.532  57.214 -56.048  1.00  0.00     0.168 HD
HETATM   31  C   UNL     1     -46.724  57.684 -60.275  1.00  0.00     0.002 A 
HETATM   32  C   UNL     1     -46.107  58.894 -60.598  1.00  0.00     0.002 A 
ENDBRANCH  22  23
ENDBRANCH  21  22
ENDBRANCH   1  21
BRANCH   1  33
HETATM   33  C   UNL     1     -41.976  58.706 -56.028  1.00  0.00     0.275 C 
BRANCH  33  34
HETATM   34  C   UNL     1     -42.353  57.835 -57.200  1.00  0.00    -0.033 A 
HETATM   35  C   UNL     1     -42.139  58.234 -58.527  1.00  0.00     0.009 A 
HETATM   36  C   UNL     1     -42.510  57.406 -59.588  1.00  0.00     0.001 A 
HETATM   37  C   UNL     1     -43.082  56.161 -59.339  1.00  0.00     0.000 A 
HETATM   38  C   UNL     1     -43.270  55.733 -58.028  1.00  0.00     0.001 A 
HETATM   39  C   UNL     1     -42.898  56.559 -56.965  1.00  0.00     0.009 A 
ENDBRANCH  33  34
ENDBRANCH   1  33
TORSDOF 9
ENDMDL
MODEL 8
REMARK VINA RESULT:      -7.1      2.253      4.249
REMARK  9 active torsions:
REMARK  status: ('A' for Active; 'I' for Inactive)
REMARK    1  A    between atoms: O_2  and  C_3 
REMARK    2  A    between atoms: C_6  and  N_7 
REMARK       I    between atoms: N_7  and  C_8 
REMARK    3  A    between atoms: C_8  and  C_9 
REMARK    4  A    between atoms: C_9  and  N_10 
REMARK    5  A    between atoms: N_10  and  C_12 
REMARK    6  A    between atoms: N_10  and  C_24 
REMARK    7  A    between atoms: C_12  and  S_13 
REMARK    8  A    between atoms: S_13  and  C_14 
REMARK    9  A    between atoms: C_24  and  C_25 
ROOT
HETATM    1  N   UNL     1     -43.070  59.693 -58.022  1.00  0.00    -0.041 N 
HETATM    2  H   UNL     1     -43.532  60.171 -58.826  1.00  0.00     0.282 HD
ENDROOT
BRANCH   1   3
HETATM    3  C   UNL     1     -43.386  58.112 -58.232  1.00  0.00     0.208 C 
HETATM    4  C   UNL     1     -42.315  57.546 -59.203  1.00  0.00     0.049 C 
HETATM    5  C   UNL     1     -42.664  56.256 -59.961  1.00  0.00     0.003 C 
HETATM    6  C   UNL     1     -44.110  56.176 -60.425  1.00  0.00     0.000 C 
HETATM    7  C   UNL     1     -45.087  56.507 -59.306  1.00  0.00     0.003 C 
HETATM    8  C   UNL     1     -44.817  57.914 -58.775  1.00  0.00     0.049 C 
BRANCH   3   9
HETATM    9  C   UNL     1     -43.382  57.454 -56.788  1.00  0.00     0.259 C 
HETATM   10  N   UNL     1     -42.243  56.787 -56.401  1.00  0.00    -0.325 N 
HETATM   11  H   UNL     1     -41.405  56.888 -56.951  1.00  0.00     0.169 HD
HETATM   12  O   UNL     1     -44.412  57.539 -56.117  1.00  0.00    -0.270 OA
BRANCH  10  13
HETATM   13  C   UNL     1     -42.086  55.897 -55.316  1.00  0.00     0.035 A 
HETATM   14  C   UNL     1     -43.122  55.165 -54.741  1.00  0.00     0.032 A 
HETATM   15  C   UNL     1     -42.846  54.241 -53.724  1.00  0.00     0.039 A 
HETATM   16  C   UNL     1     -41.542  54.033 -53.274  1.00  0.00     0.068 A 
HETATM   17  C   UNL     1     -40.509  54.785 -53.824  1.00  0.00     0.039 A 
HETATM   18  C   UNL     1     -40.781  55.708 -54.841  1.00  0.00     0.032 A 
BRANCH  16  19
HETATM   19  O   UNL     1     -41.409  53.083 -52.300  1.00  0.00    -0.356 OA
HETATM   20  C   UNL     1     -41.453  53.537 -50.953  1.00  0.00     0.210 C 
ENDBRANCH  16  19
ENDBRANCH  10  13
ENDBRANCH   3   9
ENDBRANCH   1   3
BRANCH   1  21
HETATM   21  C   UNL     1     -43.866  60.242 -56.842  1.00  0.00     0.318 C 
BRANCH  21  22
HETATM   22  S   UNL     1     -42.951  61.289 -55.702  1.00  0.00    -0.064 SA
BRANCH  22  23
HETATM   23  C   UNL     1     -42.596  60.215 -54.412  1.00  0.00     0.169 A 
HETATM   24  N   UNL     1     -41.406  59.939 -53.945  1.00  0.00    -0.223 NA
HETATM   25  C   UNL     1     -41.636  58.972 -52.985  1.00  0.00     0.086 A 
HETATM   26  C   UNL     1     -42.992  58.656 -52.907  1.00  0.00     0.063 A 
HETATM   27  C   UNL     1     -40.730  58.298 -52.153  1.00  0.00     0.034 A 
HETATM   28  N   UNL     1     -43.584  59.478 -53.831  1.00  0.00    -0.333 N 
HETATM   29  C   UNL     1     -43.509  57.692 -52.043  1.00  0.00     0.032 A 
HETATM   30  H   UNL     1     -44.568  59.517 -54.054  1.00  0.00     0.168 HD
HETATM   31  C   UNL     1     -42.589  57.025 -51.226  1.00  0.00     0.002 A 
HETATM   32  C   UNL     1     -41.225  57.321 -51.277  1.00  0.00     0.002 A 
ENDBRANCH  22  23
ENDBRANCH  21  22
ENDBRANCH   1  21
BRANCH   1  33
HETATM   33  C   UNL     1     -41.619  60.145 -57.996  1.00  0.00     0.275 C 
BRANCH  33  34
HETATM   34  C   UNL     1     -41.154  61.132 -59.036  1.00  0.00    -0.033 A 
HETATM   35  C   UNL     1     -41.619  61.100 -60.358  1.00  0.00     0.009 A 
HETATM   36  C   UNL     1     -41.159  62.024 -61.298  1.00  0.00     0.001 A 
HETATM   37  C   UNL     1     -40.243  63.004 -60.928  1.00  0.00     0.000 A 
HETATM   38  C   UNL     1     -39.796  63.073 -59.611  1.00  0.00     0.001 A 
HETATM   39  C   UNL     1     -40.256  62.152 -58.669  1.00  0.00     0.009 A 
ENDBRANCH  33  34
ENDBRANCH   1  33
TORSDOF 9
ENDMDL
MODEL 9
REMARK VINA RESULT:      -7.1      2.521      7.663
REMARK  9 active torsions:
REMARK  status: ('A' for Active; 'I' for Inactive)
REMARK    1  A    between atoms: O_2  and  C_3 
REMARK    2  A    between atoms: C_6  and  N_7 
REMARK       I    between atoms: N_7  and  C_8 
REMARK    3  A    between atoms: C_8  and  C_9 
REMARK    4  A    between atoms: C_9  and  N_10 
REMARK    5  A    between atoms: N_10  and  C_12 
REMARK    6  A    between atoms: N_10  and  C_24 
REMARK    7  A    between atoms: C_12  and  S_13 
REMARK    8  A    between atoms: S_13  and  C_14 
REMARK    9  A    between atoms: C_24  and  C_25 
ROOT
HETATM    1  N   UNL     1     -42.170  55.449 -53.309  1.00  0.00    -0.041 N 
HETATM    2  H   UNL     1     -42.438  54.956 -52.430  1.00  0.00     0.282 HD
ENDROOT
BRANCH   1   3
HETATM    3  C   UNL     1     -42.065  57.019 -52.897  1.00  0.00     0.208 C 
HETATM    4  C   UNL     1     -40.767  57.583 -53.535  1.00  0.00     0.049 C 
HETATM    5  C   UNL     1     -40.165  58.848 -52.905  1.00  0.00     0.003 C 
HETATM    6  C   UNL     1     -40.249  58.890 -51.386  1.00  0.00     0.000 C 
HETATM    7  C   UNL     1     -41.648  58.566 -50.883  1.00  0.00     0.003 C 
HETATM    8  C   UNL     1     -42.067  57.177 -51.362  1.00  0.00     0.049 C 
BRANCH   3   9
HETATM    9  C   UNL     1     -43.402  57.710 -53.400  1.00  0.00     0.259 C 
HETATM   10  N   UNL     1     -43.332  58.456 -54.553  1.00  0.00    -0.325 N 
HETATM   11  H   UNL     1     -42.507  58.395 -55.128  1.00  0.00     0.169 HD
HETATM   12  O   UNL     1     -44.412  57.576 -52.706  1.00  0.00    -0.270 OA
BRANCH  10  13
HETATM   13  C   UNL     1     -44.280  59.379 -55.047  1.00  0.00     0.035 A 
HETATM   14  C   UNL     1     -44.404  60.694 -54.605  1.00  0.00     0.032 A 
HETATM   15  C   UNL     1     -45.319  61.557 -55.222  1.00  0.00     0.039 A 
HETATM   16  C   UNL     1     -46.113  61.125 -56.285  1.00  0.00     0.068 A 
HETATM   17  C   UNL     1     -46.014  59.804 -56.709  1.00  0.00     0.039 A 
HETATM   18  C   UNL     1     -45.101  58.939 -56.095  1.00  0.00     0.032 A 
BRANCH  16  19
HETATM   19  O   UNL     1     -46.940  62.076 -56.815  1.00  0.00    -0.356 OA
HETATM   20  C   UNL     1     -46.538  63.432 -56.659  1.00  0.00     0.210 C 
ENDBRANCH  16  19
ENDBRANCH  10  13
ENDBRANCH   3   9
ENDBRANCH   1   3
BRANCH   1  21
HETATM   21  C   UNL     1     -43.399  55.210 -54.181  1.00  0.00     0.318 C 
BRANCH  21  22
HETATM   22  S   UNL     1     -43.110  54.312 -55.710  1.00  0.00    -0.064 SA
BRANCH  22  23
HETATM   23  C   UNL     1     -42.962  55.574 -56.863  1.00  0.00     0.169 A 
HETATM   24  N   UNL     1     -42.250  56.663 -56.726  1.00  0.00    -0.223 NA
HETATM   25  C   UNL     1     -42.523  57.390 -57.868  1.00  0.00     0.086 A 
HETATM   26  C   UNL     1     -43.437  56.721 -58.682  1.00  0.00     0.063 A 
HETATM   27  C   UNL     1     -42.044  58.645 -58.271  1.00  0.00     0.034 A 
HETATM   28  N   UNL     1     -43.693  55.553 -58.012  1.00  0.00    -0.333 N 
HETATM   29  C   UNL     1     -43.915  57.235 -59.887  1.00  0.00     0.032 A 
HETATM   30  H   UNL     1     -44.324  54.821 -58.306  1.00  0.00     0.168 HD
HETATM   31  C   UNL     1     -43.430  58.492 -60.268  1.00  0.00     0.002 A 
HETATM   32  C   UNL     1     -42.511  59.185 -59.478  1.00  0.00     0.002 A 
ENDBRANCH  22  23
ENDBRANCH  21  22
ENDBRANCH   1  21
BRANCH   1  33
HETATM   33  C   UNL     1     -40.932  54.760 -53.860  1.00  0.00     0.275 C 
BRANCH  33  34
HETATM   34  C   UNL     1     -40.460  53.491 -53.196  1.00  0.00    -0.033 A 
HETATM   35  C   UNL     1     -40.036  52.376 -53.933  1.00  0.00     0.009 A 
HETATM   36  C   UNL     1     -39.614  51.213 -53.285  1.00  0.00     0.001 A 
HETATM   37  C   UNL     1     -39.592  51.155 -51.894  1.00  0.00     0.000 A 
HETATM   38  C   UNL     1     -39.975  52.264 -51.147  1.00  0.00     0.001 A 
HETATM   39  C   UNL     1     -40.395  53.428 -51.792  1.00  0.00     0.009 A 
ENDBRANCH  33  34
ENDBRANCH   1  33
TORSDOF 9
ENDMDL
MODEL 10
REMARK VINA RESULT:      -7.0      2.794      7.912
REMARK  9 active torsions:
REMARK  status: ('A' for Active; 'I' for Inactive)
REMARK    1  A    between atoms: O_2  and  C_3 
REMARK    2  A    between atoms: C_6  and  N_7 
REMARK       I    between atoms: N_7  and  C_8 
REMARK    3  A    between atoms: C_8  and  C_9 
REMARK    4  A    between atoms: C_9  and  N_10 
REMARK    5  A    between atoms: N_10  and  C_12 
REMARK    6  A    between atoms: N_10  and  C_24 
REMARK    7  A    between atoms: C_12  and  S_13 
REMARK    8  A    between atoms: S_13  and  C_14 
REMARK    9  A    between atoms: C_24  and  C_25 
ROOT
HETATM    1  N   UNL     1     -42.066  55.629 -52.935  1.00  0.00    -0.041 N 
HETATM    2  H   UNL     1     -42.385  55.013 -52.156  1.00  0.00     0.282 HD
ENDROOT
BRANCH   1   3
HETATM    3  C   UNL     1     -41.835  57.087 -52.253  1.00  0.00     0.208 C 
HETATM    4  C   UNL     1     -40.943  57.917 -53.216  1.00  0.00     0.049 C 
HETATM    5  C   UNL     1     -40.163  59.094 -52.613  1.00  0.00     0.003 C 
HETATM    6  C   UNL     1     -39.597  58.824 -51.227  1.00  0.00     0.000 C 
HETATM    7  C   UNL     1     -40.643  58.243 -50.287  1.00  0.00     0.003 C 
HETATM    8  C   UNL     1     -41.191  56.936 -50.860  1.00  0.00     0.049 C 
BRANCH   3   9
HETATM    9  C   UNL     1     -43.276  57.700 -51.995  1.00  0.00     0.259 C 
HETATM   10  N   UNL     1     -43.530  58.953 -52.503  1.00  0.00    -0.325 N 
HETATM   11  H   UNL     1     -42.881  59.357 -53.159  1.00  0.00     0.169 HD
HETATM   12  O   UNL     1     -44.067  57.040 -51.319  1.00  0.00    -0.270 OA
BRANCH  10  13
HETATM   13  C   UNL     1     -44.599  59.818 -52.182  1.00  0.00     0.035 A 
HETATM   14  C   UNL     1     -44.813  60.373 -50.923  1.00  0.00     0.032 A 
HETATM   15  C   UNL     1     -45.854  61.291 -50.730  1.00  0.00     0.039 A 
HETATM   16  C   UNL     1     -46.686  61.670 -51.784  1.00  0.00     0.068 A 
HETATM   17  C   UNL     1     -46.494  61.094 -53.036  1.00  0.00     0.039 A 
HETATM   18  C   UNL     1     -45.455  60.177 -53.233  1.00  0.00     0.032 A 
BRANCH  16  19
HETATM   19  O   UNL     1     -47.640  62.595 -51.466  1.00  0.00    -0.356 OA
HETATM   20  C   UNL     1     -47.450  63.320 -50.257  1.00  0.00     0.210 C 
ENDBRANCH  16  19
ENDBRANCH  10  13
ENDBRANCH   3   9
ENDBRANCH   1   3
BRANCH   1  21
HETATM   21  C   UNL     1     -43.301  55.652 -53.832  1.00  0.00     0.318 C 
BRANCH  21  22
HETATM   22  S   UNL     1     -43.240  54.578 -55.272  1.00  0.00    -0.064 SA
BRANCH  22  23
HETATM   23  C   UNL     1     -42.955  55.684 -56.551  1.00  0.00     0.169 A 
HETATM   24  N   UNL     1     -42.398  56.863 -56.442  1.00  0.00    -0.223 NA
HETATM   25  C   UNL     1     -42.473  57.392 -57.716  1.00  0.00     0.086 A 
HETATM   26  C   UNL     1     -43.113  56.512 -58.587  1.00  0.00     0.063 A 
HETATM   27  C   UNL     1     -42.035  58.633 -58.201  1.00  0.00     0.034 A 
HETATM   28  N   UNL     1     -43.403  55.419 -57.811  1.00  0.00    -0.333 N 
HETATM   29  C   UNL     1     -43.353  56.797 -59.931  1.00  0.00     0.032 A 
HETATM   30  H   UNL     1     -43.879  54.581 -58.112  1.00  0.00     0.168 HD
HETATM   31  C   UNL     1     -42.915  58.043 -60.394  1.00  0.00     0.002 A 
HETATM   32  C   UNL     1     -42.267  58.945 -59.548  1.00  0.00     0.002 A 
ENDBRANCH  22  23
ENDBRANCH  21  22
ENDBRANCH   1  21
BRANCH   1  33
HETATM   33  C   UNL     1     -40.884  54.945 -53.603  1.00  0.00     0.275 C 
BRANCH  33  34
HETATM   34  C   UNL     1     -40.445  53.599 -53.085  1.00  0.00    -0.033 A 
HETATM   35  C   UNL     1     -40.141  52.532 -53.942  1.00  0.00     0.009 A 
HETATM   36  C   UNL     1     -39.748  51.295 -53.427  1.00  0.00     0.001 A 
HETATM   37  C   UNL     1     -39.635  51.112 -52.052  1.00  0.00     0.000 A 
HETATM   38  C   UNL     1     -39.898  52.170 -51.187  1.00  0.00     0.001 A 
HETATM   39  C   UNL     1     -40.290  53.408 -51.699  1.00  0.00     0.009 A 
ENDBRANCH  33  34
ENDBRANCH   1  33
TORSDOF 9
ENDMDL
