MODEL 1
REMARK VINA RESULT:      -8.7      0.000      0.000
REMARK  7 active torsions:
REMARK  status: ('A' for Active; 'I' for Inactive)
REMARK    1  A    between atoms: O_2  and  C_3 
REMARK    2  A    between atoms: C_6  and  C_7 
REMARK    3  A    between atoms: C_11  and  C_12 
REMARK       I    between atoms: C_12  and  N_13 
REMARK    4  A    between atoms: N_13  and  N_14 
REMARK       I    between atoms: N_14  and  C_15 
REMARK    5  A    between atoms: C_15  and  C_16 
REMARK    6  A    between atoms: C_16  and  C_17 
REMARK    7  A    between atoms: C_17  and  C_18 
ROOT
HETATM    1  C   UNL     1     -43.115  56.678 -58.101  1.00  0.00     0.288 C 
HETATM    2  N   UNL     1     -43.071  55.753 -57.080  1.00  0.00    -0.262 N 
HETATM    3  O   UNL     1     -42.211  57.492 -58.284  1.00  0.00    -0.264 OA
HETATM    4  H   UNL     1     -43.707  54.959 -57.046  1.00  0.00     0.190 HD
ENDROOT
BRANCH   1   5
HETATM    5  C   UNL     1     -44.283  56.607 -58.937  1.00  0.00     0.121 A 
HETATM    6  N   UNL     1     -44.806  55.417 -59.357  1.00  0.00    -0.272 N 
HETATM    7  N   UNL     1     -45.913  55.536 -60.106  1.00  0.00    -0.174 NA
HETATM    8  H   UNL     1     -44.451  54.488 -59.152  1.00  0.00     0.189 HD
HETATM    9  C   UNL     1     -46.119  56.859 -60.203  1.00  0.00     0.089 A 
HETATM   10  C   UNL     1     -45.113  57.564 -59.484  1.00  0.00     0.071 A 
BRANCH   9  11
HETATM   11  C   UNL     1     -47.254  57.418 -60.945  1.00  0.00    -0.005 A 
HETATM   12  C   UNL     1     -47.579  58.778 -60.834  1.00  0.00     0.016 A 
HETATM   13  C   UNL     1     -48.640  59.332 -61.563  1.00  0.00     0.037 A 
HETATM   14  C   UNL     1     -49.397  58.529 -62.415  1.00  0.00     0.068 A 
HETATM   15  C   UNL     1     -49.095  57.170 -62.515  1.00  0.00     0.037 A 
HETATM   16  C   UNL     1     -48.033  56.618 -61.791  1.00  0.00     0.016 A 
BRANCH  14  17
HETATM   17  O   UNL     1     -50.448  58.939 -63.187  1.00  0.00    -0.356 OA
HETATM   18  C   UNL     1     -51.666  59.223 -62.511  1.00  0.00     0.210 C 
ENDBRANCH  14  17
ENDBRANCH   9  11
ENDBRANCH   1   5
BRANCH   2  19
HETATM   19  N   UNL     1     -41.882  55.599 -56.348  1.00  0.00    -0.267 N 
HETATM   20  C   UNL     1     -41.820  54.517 -55.491  1.00  0.00     0.236 C 
HETATM   21  O   UNL     1     -42.799  53.811 -55.258  1.00  0.00    -0.272 OA
HETATM   22  H   UNL     1     -41.046  56.023 -56.751  1.00  0.00     0.190 HD
BRANCH  20  23
HETATM   23  C   UNL     1     -40.465  54.334 -54.845  1.00  0.00     0.109 C 
BRANCH  23  24
HETATM   24  C   UNL     1     -40.604  53.862 -53.398  1.00  0.00     0.051 C 
BRANCH  24  25
HETATM   25  C   UNL     1     -40.250  52.407 -53.222  1.00  0.00    -0.019 A 
HETATM   26  C   UNL     1     -39.786  51.922 -51.996  1.00  0.00     0.122 A 
HETATM   27  F   UNL     1     -39.659  52.757 -50.953  1.00  0.00    -0.206 F 
HETATM   28  C   UNL     1     -39.448  50.582 -51.826  1.00  0.00     0.043 A 
HETATM   29  C   UNL     1     -39.567  49.700 -52.898  1.00  0.00     0.003 A 
HETATM   30  C   UNL     1     -40.025  50.165 -54.131  1.00  0.00     0.001 A 
HETATM   31  C   UNL     1     -40.366  51.510 -54.294  1.00  0.00     0.010 A 
ENDBRANCH  24  25
ENDBRANCH  23  24
ENDBRANCH  20  23
ENDBRANCH   2  19
TORSDOF 7
ENDMDL
MODEL 2
REMARK VINA RESULT:      -8.4      4.826     11.060
REMARK  7 active torsions:
REMARK  status: ('A' for Active; 'I' for Inactive)
REMARK    1  A    between atoms: O_2  and  C_3 
REMARK    2  A    between atoms: C_6  and  C_7 
REMARK    3  A    between atoms: C_11  and  C_12 
REMARK       I    between atoms: C_12  and  N_13 
REMARK    4  A    between atoms: N_13  and  N_14 
REMARK       I    between atoms: N_14  and  C_15 
REMARK    5  A    between atoms: C_15  and  C_16 
REMARK    6  A    between atoms: C_16  and  C_17 
REMARK    7  A    between atoms: C_17  and  C_18 
ROOT
HETATM    1  C   UNL     1     -42.698  57.245 -56.767  1.00  0.00     0.288 C 
HETATM    2  N   UNL     1     -41.752  57.530 -57.729  1.00  0.00    -0.262 N 
HETATM    3  O   UNL     1     -43.660  57.983 -56.559  1.00  0.00    -0.264 OA
HETATM    4  H   UNL     1     -41.075  56.835 -58.039  1.00  0.00     0.190 HD
ENDROOT
BRANCH   1   5
HETATM    5  C   UNL     1     -42.480  56.024 -56.040  1.00  0.00     0.121 A 
HETATM    6  N   UNL     1     -43.357  54.977 -56.096  1.00  0.00    -0.272 N 
HETATM    7  N   UNL     1     -42.983  53.907 -55.380  1.00  0.00    -0.174 NA
HETATM    8  H   UNL     1     -44.226  54.937 -56.620  1.00  0.00     0.189 HD
HETATM    9  C   UNL     1     -41.821  54.265 -54.809  1.00  0.00     0.089 A 
HETATM   10  C   UNL     1     -41.475  55.590 -55.199  1.00  0.00     0.071 A 
BRANCH   9  11
HETATM   11  C   UNL     1     -41.067  53.357 -53.939  1.00  0.00    -0.005 A 
HETATM   12  C   UNL     1     -40.880  53.660 -52.583  1.00  0.00     0.016 A 
HETATM   13  C   UNL     1     -40.190  52.784 -51.734  1.00  0.00     0.037 A 
HETATM   14  C   UNL     1     -39.673  51.589 -52.231  1.00  0.00     0.068 A 
HETATM   15  C   UNL     1     -39.837  51.290 -53.584  1.00  0.00     0.037 A 
HETATM   16  C   UNL     1     -40.528  52.162 -54.432  1.00  0.00     0.016 A 
BRANCH  14  17
HETATM   17  O   UNL     1     -38.991  50.646 -51.515  1.00  0.00    -0.356 OA
HETATM   18  C   UNL     1     -39.767  49.776 -50.700  1.00  0.00     0.210 C 
ENDBRANCH  14  17
ENDBRANCH   9  11
ENDBRANCH   1   5
BRANCH   2  19
HETATM   19  N   UNL     1     -41.991  58.578 -58.632  1.00  0.00    -0.267 N 
HETATM   20  C   UNL     1     -42.089  58.233 -59.966  1.00  0.00     0.236 C 
HETATM   21  O   UNL     1     -41.831  57.100 -60.370  1.00  0.00    -0.272 OA
HETATM   22  H   UNL     1     -42.442  59.409 -58.251  1.00  0.00     0.190 HD
BRANCH  20  23
HETATM   23  C   UNL     1     -42.485  59.386 -60.862  1.00  0.00     0.109 C 
BRANCH  23  24
HETATM   24  C   UNL     1     -42.558  60.694 -60.076  1.00  0.00     0.051 C 
BRANCH  24  25
HETATM   25  C   UNL     1     -41.400  61.614 -60.363  1.00  0.00    -0.019 A 
HETATM   26  C   UNL     1     -40.599  62.108 -59.329  1.00  0.00     0.122 A 
HETATM   27  F   UNL     1     -40.853  61.754 -58.061  1.00  0.00    -0.206 F 
HETATM   28  C   UNL     1     -39.532  62.966 -59.584  1.00  0.00     0.043 A 
HETATM   29  C   UNL     1     -39.254  63.350 -60.894  1.00  0.00     0.003 A 
HETATM   30  C   UNL     1     -40.044  62.872 -61.939  1.00  0.00     0.001 A 
HETATM   31  C   UNL     1     -41.111  62.008 -61.677  1.00  0.00     0.010 A 
ENDBRANCH  24  25
ENDBRANCH  23  24
ENDBRANCH  20  23
ENDBRANCH   2  19
TORSDOF 7
ENDMDL
MODEL 3
REMARK VINA RESULT:      -8.4      8.258     12.203
REMARK  7 active torsions:
REMARK  status: ('A' for Active; 'I' for Inactive)
REMARK    1  A    between atoms: O_2  and  C_3 
REMARK    2  A    between atoms: C_6  and  C_7 
REMARK    3  A    between atoms: C_11  and  C_12 
REMARK       I    between atoms: C_12  and  N_13 
REMARK    4  A    between atoms: N_13  and  N_14 
REMARK       I    between atoms: N_14  and  C_15 
REMARK    5  A    between atoms: C_15  and  C_16 
REMARK    6  A    between atoms: C_16  and  C_17 
REMARK    7  A    between atoms: C_17  and  C_18 
ROOT
HETATM    1  C   UNL     1     -42.391  58.906 -50.969  1.00  0.00     0.288 C 
HETATM    2  N   UNL     1     -43.598  59.318 -50.445  1.00  0.00    -0.262 N 
HETATM    3  O   UNL     1     -41.489  59.700 -51.231  1.00  0.00    -0.264 OA
HETATM    4  H   UNL     1     -44.263  58.659 -50.044  1.00  0.00     0.190 HD
ENDROOT
BRANCH   1   5
HETATM    5  C   UNL     1     -42.266  57.488 -51.170  1.00  0.00     0.121 A 
HETATM    6  N   UNL     1     -43.199  56.602 -50.709  1.00  0.00    -0.272 N 
HETATM    7  N   UNL     1     -42.938  55.321 -51.010  1.00  0.00    -0.174 NA
HETATM    8  H   UNL     1     -44.044  56.822 -50.190  1.00  0.00     0.189 HD
HETATM    9  C   UNL     1     -41.774  55.357 -51.678  1.00  0.00     0.089 A 
HETATM   10  C   UNL     1     -41.320  56.701 -51.795  1.00  0.00     0.071 A 
BRANCH   9  11
HETATM   11  C   UNL     1     -41.137  54.143 -52.200  1.00  0.00    -0.005 A 
HETATM   12  C   UNL     1     -41.228  53.819 -53.561  1.00  0.00     0.016 A 
HETATM   13  C   UNL     1     -40.596  52.679 -54.078  1.00  0.00     0.037 A 
HETATM   14  C   UNL     1     -39.864  51.844 -53.237  1.00  0.00     0.068 A 
HETATM   15  C   UNL     1     -39.786  52.148 -51.877  1.00  0.00     0.037 A 
HETATM   16  C   UNL     1     -40.414  53.287 -51.361  1.00  0.00     0.016 A 
BRANCH  14  17
HETATM   17  O   UNL     1     -39.194  50.712 -53.609  1.00  0.00    -0.356 OA
HETATM   18  C   UNL     1     -39.802  49.909 -54.612  1.00  0.00     0.210 C 
ENDBRANCH  14  17
ENDBRANCH   9  11
ENDBRANCH   1   5
BRANCH   2  19
HETATM   19  N   UNL     1     -43.738  60.647 -50.013  1.00  0.00    -0.267 N 
HETATM   20  C   UNL     1     -44.870  60.940 -49.277  1.00  0.00     0.236 C 
HETATM   21  O   UNL     1     -45.785  60.131 -49.133  1.00  0.00    -0.272 OA
HETATM   22  H   UNL     1     -42.877  61.186 -49.926  1.00  0.00     0.190 HD
BRANCH  20  23
HETATM   23  C   UNL     1     -44.885  62.349 -48.727  1.00  0.00     0.109 C 
BRANCH  23  24
HETATM   24  C   UNL     1     -45.934  62.499 -47.624  1.00  0.00     0.051 C 
BRANCH  24  25
HETATM   25  C   UNL     1     -45.324  62.625 -46.252  1.00  0.00    -0.019 A 
HETATM   26  C   UNL     1     -44.934  61.493 -45.530  1.00  0.00     0.122 A 
HETATM   27  F   UNL     1     -45.094  60.274 -46.065  1.00  0.00    -0.206 F 
HETATM   28  C   UNL     1     -44.379  61.599 -44.258  1.00  0.00     0.043 A 
HETATM   29  C   UNL     1     -44.210  62.857 -43.682  1.00  0.00     0.003 A 
HETATM   30  C   UNL     1     -44.596  63.998 -44.384  1.00  0.00     0.001 A 
HETATM   31  C   UNL     1     -45.150  63.886 -45.662  1.00  0.00     0.010 A 
ENDBRANCH  24  25
ENDBRANCH  23  24
ENDBRANCH  20  23
ENDBRANCH   2  19
TORSDOF 7
ENDMDL
MODEL 4
REMARK VINA RESULT:      -8.2      8.185     11.768
REMARK  7 active torsions:
REMARK  status: ('A' for Active; 'I' for Inactive)
REMARK    1  A    between atoms: O_2  and  C_3 
REMARK    2  A    between atoms: C_6  and  C_7 
REMARK    3  A    between atoms: C_11  and  C_12 
REMARK       I    between atoms: C_12  and  N_13 
REMARK    4  A    between atoms: N_13  and  N_14 
REMARK       I    between atoms: N_14  and  C_15 
REMARK    5  A    between atoms: C_15  and  C_16 
REMARK    6  A    between atoms: C_16  and  C_17 
REMARK    7  A    between atoms: C_17  and  C_18 
ROOT
HETATM    1  C   UNL     1     -44.573  58.666 -51.899  1.00  0.00     0.288 C 
HETATM    2  N   UNL     1     -44.059  59.027 -50.671  1.00  0.00    -0.262 N 
HETATM    3  O   UNL     1     -45.395  59.362 -52.492  1.00  0.00    -0.264 OA
HETATM    4  H   UNL     1     -43.243  58.567 -50.274  1.00  0.00     0.190 HD
ENDROOT
BRANCH   1   5
HETATM    5  C   UNL     1     -44.067  57.430 -52.431  1.00  0.00     0.121 A 
HETATM    6  N   UNL     1     -44.617  56.830 -53.529  1.00  0.00    -0.272 N 
HETATM    7  N   UNL     1     -44.002  55.699 -53.905  1.00  0.00    -0.174 NA
HETATM    8  H   UNL     1     -45.413  57.159 -54.069  1.00  0.00     0.189 HD
HETATM    9  C   UNL     1     -43.017  55.531 -53.008  1.00  0.00     0.089 A 
HETATM   10  C   UNL     1     -43.029  56.597 -52.065  1.00  0.00     0.071 A 
BRANCH   9  11
HETATM   11  C   UNL     1     -42.090  54.396 -53.073  1.00  0.00    -0.005 A 
HETATM   12  C   UNL     1     -41.990  53.623 -54.238  1.00  0.00     0.016 A 
HETATM   13  C   UNL     1     -41.084  52.557 -54.324  1.00  0.00     0.037 A 
HETATM   14  C   UNL     1     -40.265  52.245 -53.240  1.00  0.00     0.068 A 
HETATM   15  C   UNL     1     -40.374  52.997 -52.069  1.00  0.00     0.037 A 
HETATM   16  C   UNL     1     -41.275  54.063 -51.984  1.00  0.00     0.016 A 
BRANCH  14  17
HETATM   17  O   UNL     1     -39.336  51.243 -53.193  1.00  0.00    -0.356 OA
HETATM   18  C   UNL     1     -39.536  50.144 -54.072  1.00  0.00     0.210 C 
ENDBRANCH  14  17
ENDBRANCH   9  11
ENDBRANCH   1   5
BRANCH   2  19
HETATM   19  N   UNL     1     -44.324  60.312 -50.171  1.00  0.00    -0.267 N 
HETATM   20  C   UNL     1     -45.321  60.411 -49.219  1.00  0.00     0.236 C 
HETATM   21  O   UNL     1     -46.047  59.460 -48.931  1.00  0.00    -0.272 OA
HETATM   22  H   UNL     1     -43.562  60.987 -50.232  1.00  0.00     0.190 HD
BRANCH  20  23
HETATM   23  C   UNL     1     -45.456  61.795 -48.625  1.00  0.00     0.109 C 
BRANCH  23  24
HETATM   24  C   UNL     1     -46.346  61.777 -47.382  1.00  0.00     0.051 C 
BRANCH  24  25
HETATM   25  C   UNL     1     -45.570  61.975 -46.105  1.00  0.00    -0.019 A 
HETATM   26  C   UNL     1     -45.569  63.208 -45.447  1.00  0.00     0.122 A 
HETATM   27  F   UNL     1     -46.274  64.232 -45.948  1.00  0.00    -0.206 F 
HETATM   28  C   UNL     1     -44.847  63.403 -44.272  1.00  0.00     0.043 A 
HETATM   29  C   UNL     1     -44.103  62.353 -43.738  1.00  0.00     0.003 A 
HETATM   30  C   UNL     1     -44.087  61.116 -44.382  1.00  0.00     0.001 A 
HETATM   31  C   UNL     1     -44.816  60.926 -45.558  1.00  0.00     0.010 A 
ENDBRANCH  24  25
ENDBRANCH  23  24
ENDBRANCH  20  23
ENDBRANCH   2  19
TORSDOF 7
ENDMDL
MODEL 5
REMARK VINA RESULT:      -8.1     16.431     22.060
REMARK  7 active torsions:
REMARK  status: ('A' for Active; 'I' for Inactive)
REMARK    1  A    between atoms: O_2  and  C_3 
REMARK    2  A    between atoms: C_6  and  C_7 
REMARK    3  A    between atoms: C_11  and  C_12 
REMARK       I    between atoms: C_12  and  N_13 
REMARK    4  A    between atoms: N_13  and  N_14 
REMARK       I    between atoms: N_14  and  C_15 
REMARK    5  A    between atoms: C_15  and  C_16 
REMARK    6  A    between atoms: C_16  and  C_17 
REMARK    7  A    between atoms: C_17  and  C_18 
ROOT
HETATM    1  C   UNL     1     -34.142  40.060 -52.213  1.00  0.00     0.288 C 
HETATM    2  N   UNL     1     -33.876  41.151 -53.012  1.00  0.00    -0.262 N 
HETATM    3  O   UNL     1     -35.084  39.301 -52.437  1.00  0.00    -0.264 OA
HETATM    4  H   UNL     1     -32.996  41.659 -52.953  1.00  0.00     0.190 HD
ENDROOT
BRANCH   1   5
HETATM    5  C   UNL     1     -33.233  39.873 -51.115  1.00  0.00     0.121 A 
HETATM    6  N   UNL     1     -31.888  40.077 -51.241  1.00  0.00    -0.272 N 
HETATM    7  N   UNL     1     -31.194  39.884 -50.109  1.00  0.00    -0.174 NA
HETATM    8  H   UNL     1     -31.390  40.361 -52.079  1.00  0.00     0.189 HD
HETATM    9  C   UNL     1     -32.113  39.516 -49.202  1.00  0.00     0.089 A 
HETATM   10  C   UNL     1     -33.406  39.495 -49.798  1.00  0.00     0.071 A 
BRANCH   9  11
HETATM   11  C   UNL     1     -31.759  39.217 -47.811  1.00  0.00    -0.005 A 
HETATM   12  C   UNL     1     -30.730  39.923 -47.169  1.00  0.00     0.016 A 
HETATM   13  C   UNL     1     -30.405  39.670 -45.830  1.00  0.00     0.037 A 
HETATM   14  C   UNL     1     -31.103  38.701 -45.111  1.00  0.00     0.068 A 
HETATM   15  C   UNL     1     -32.113  37.980 -45.748  1.00  0.00     0.037 A 
HETATM   16  C   UNL     1     -32.442  38.234 -47.084  1.00  0.00     0.016 A 
BRANCH  14  17
HETATM   17  O   UNL     1     -30.895  38.362 -43.803  1.00  0.00    -0.356 OA
HETATM   18  C   UNL     1     -32.024  37.892 -43.077  1.00  0.00     0.210 C 
ENDBRANCH  14  17
ENDBRANCH   9  11
ENDBRANCH   1   5
BRANCH   2  19
HETATM   19  N   UNL     1     -34.569  41.295 -54.225  1.00  0.00    -0.267 N 
HETATM   20  C   UNL     1     -35.639  42.170 -54.225  1.00  0.00     0.236 C 
HETATM   21  O   UNL     1     -36.066  42.681 -53.191  1.00  0.00    -0.272 OA
HETATM   22  H   UNL     1     -34.047  41.075 -55.073  1.00  0.00     0.190 HD
BRANCH  20  23
HETATM   23  C   UNL     1     -36.248  42.381 -55.593  1.00  0.00     0.109 C 
BRANCH  23  24
HETATM   24  C   UNL     1     -35.288  41.941 -56.698  1.00  0.00     0.051 C 
BRANCH  24  25
HETATM   25  C   UNL     1     -36.000  41.395 -57.908  1.00  0.00    -0.019 A 
HETATM   26  C   UNL     1     -35.832  40.065 -58.304  1.00  0.00     0.122 A 
HETATM   27  F   UNL     1     -35.033  39.254 -57.595  1.00  0.00    -0.206 F 
HETATM   28  C   UNL     1     -36.479  39.553 -59.426  1.00  0.00     0.043 A 
HETATM   29  C   UNL     1     -37.309  40.380 -60.179  1.00  0.00     0.003 A 
HETATM   30  C   UNL     1     -37.487  41.712 -59.804  1.00  0.00     0.001 A 
HETATM   31  C   UNL     1     -36.838  42.218 -58.675  1.00  0.00     0.010 A 
ENDBRANCH  24  25
ENDBRANCH  23  24
ENDBRANCH  20  23
ENDBRANCH   2  19
TORSDOF 7
ENDMDL
MODEL 6
REMARK VINA RESULT:      -8.0      3.307     11.437
REMARK  7 active torsions:
REMARK  status: ('A' for Active; 'I' for Inactive)
REMARK    1  A    between atoms: O_2  and  C_3 
REMARK    2  A    between atoms: C_6  and  C_7 
REMARK    3  A    between atoms: C_11  and  C_12 
REMARK       I    between atoms: C_12  and  N_13 
REMARK    4  A    between atoms: N_13  and  N_14 
REMARK       I    between atoms: N_14  and  C_15 
REMARK    5  A    between atoms: C_15  and  C_16 
REMARK    6  A    between atoms: C_16  and  C_17 
REMARK    7  A    between atoms: C_17  and  C_18 
ROOT
HETATM    1  C   UNL     1     -42.842  56.417 -57.149  1.00  0.00     0.288 C 
HETATM    2  N   UNL     1     -43.654  55.561 -57.863  1.00  0.00    -0.262 N 
HETATM    3  O   UNL     1     -42.660  57.584 -57.493  1.00  0.00    -0.264 OA
HETATM    4  H   UNL     1     -43.964  54.670 -57.481  1.00  0.00     0.190 HD
ENDROOT
BRANCH   1   5
HETATM    5  C   UNL     1     -42.241  55.847 -55.974  1.00  0.00     0.121 A 
HETATM    6  N   UNL     1     -42.072  56.563 -54.822  1.00  0.00    -0.272 N 
HETATM    7  N   UNL     1     -41.521  55.867 -53.817  1.00  0.00    -0.174 NA
HETATM    8  H   UNL     1     -42.327  57.533 -54.664  1.00  0.00     0.189 HD
HETATM    9  C   UNL     1     -41.295  54.646 -54.329  1.00  0.00     0.089 A 
HETATM   10  C   UNL     1     -41.732  54.597 -55.683  1.00  0.00     0.071 A 
BRANCH   9  11
HETATM   11  C   UNL     1     -40.701  53.566 -53.535  1.00  0.00    -0.005 A 
HETATM   12  C   UNL     1     -40.617  53.670 -52.139  1.00  0.00     0.016 A 
HETATM   13  C   UNL     1     -40.081  52.630 -51.367  1.00  0.00     0.037 A 
HETATM   14  C   UNL     1     -39.617  51.468 -51.982  1.00  0.00     0.068 A 
HETATM   15  C   UNL     1     -39.678  51.366 -53.372  1.00  0.00     0.037 A 
HETATM   16  C   UNL     1     -40.215  52.402 -54.144  1.00  0.00     0.016 A 
BRANCH  14  17
HETATM   17  O   UNL     1     -39.083  50.380 -51.351  1.00  0.00    -0.356 OA
HETATM   18  C   UNL     1     -39.899  49.738 -50.379  1.00  0.00     0.210 C 
ENDBRANCH  14  17
ENDBRANCH   9  11
ENDBRANCH   1   5
BRANCH   2  19
HETATM   19  N   UNL     1     -44.452  56.080 -58.896  1.00  0.00    -0.267 N 
HETATM   20  C   UNL     1     -44.893  55.180 -59.846  1.00  0.00     0.236 C 
HETATM   21  O   UNL     1     -44.490  54.018 -59.884  1.00  0.00    -0.272 OA
HETATM   22  H   UNL     1     -44.956  56.942 -58.688  1.00  0.00     0.190 HD
BRANCH  20  23
HETATM   23  C   UNL     1     -45.859  55.778 -60.845  1.00  0.00     0.109 C 
BRANCH  23  24
HETATM   24  C   UNL     1     -46.937  56.604 -60.142  1.00  0.00     0.051 C 
BRANCH  24  25
HETATM   25  C   UNL     1     -47.701  57.492 -61.088  1.00  0.00    -0.019 A 
HETATM   26  C   UNL     1     -47.701  58.881 -60.931  1.00  0.00     0.122 A 
HETATM   27  F   UNL     1     -47.005  59.439 -59.930  1.00  0.00    -0.206 F 
HETATM   28  C   UNL     1     -48.413  59.710 -61.795  1.00  0.00     0.043 A 
HETATM   29  C   UNL     1     -49.147  59.150 -62.838  1.00  0.00     0.003 A 
HETATM   30  C   UNL     1     -49.163  57.766 -63.010  1.00  0.00     0.001 A 
HETATM   31  C   UNL     1     -48.445  56.940 -62.142  1.00  0.00     0.010 A 
ENDBRANCH  24  25
ENDBRANCH  23  24
ENDBRANCH  20  23
ENDBRANCH   2  19
TORSDOF 7
ENDMDL
MODEL 7
REMARK VINA RESULT:      -8.0      7.808     11.766
REMARK  7 active torsions:
REMARK  status: ('A' for Active; 'I' for Inactive)
REMARK    1  A    between atoms: O_2  and  C_3 
REMARK    2  A    between atoms: C_6  and  C_7 
REMARK    3  A    between atoms: C_11  and  C_12 
REMARK       I    between atoms: C_12  and  N_13 
REMARK    4  A    between atoms: N_13  and  N_14 
REMARK       I    between atoms: N_14  and  C_15 
REMARK    5  A    between atoms: C_15  and  C_16 
REMARK    6  A    between atoms: C_16  and  C_17 
REMARK    7  A    between atoms: C_17  and  C_18 
ROOT
HETATM    1  C   UNL     1     -44.572  57.881 -51.061  1.00  0.00     0.288 C 
HETATM    2  N   UNL     1     -43.743  58.934 -50.733  1.00  0.00    -0.262 N 
HETATM    3  O   UNL     1     -45.759  57.862 -50.741  1.00  0.00    -0.264 OA
HETATM    4  H   UNL     1     -42.826  59.049 -51.161  1.00  0.00     0.190 HD
ENDROOT
BRANCH   1   5
HETATM    5  C   UNL     1     -43.948  56.825 -51.811  1.00  0.00     0.121 A 
HETATM    6  N   UNL     1     -44.304  56.538 -53.099  1.00  0.00    -0.272 N 
HETATM    7  N   UNL     1     -43.601  55.541 -53.655  1.00  0.00    -0.174 NA
HETATM    8  H   UNL     1     -45.019  57.002 -53.652  1.00  0.00     0.189 HD
HETATM    9  C   UNL     1     -42.758  55.137 -52.691  1.00  0.00     0.089 A 
HETATM   10  C   UNL     1     -42.949  55.919 -51.517  1.00  0.00     0.071 A 
BRANCH   9  11
HETATM   11  C   UNL     1     -41.794  54.053 -52.903  1.00  0.00    -0.005 A 
HETATM   12  C   UNL     1     -41.001  53.586 -51.844  1.00  0.00     0.016 A 
HETATM   13  C   UNL     1     -40.100  52.528 -52.026  1.00  0.00     0.037 A 
HETATM   14  C   UNL     1     -39.975  51.921 -53.275  1.00  0.00     0.068 A 
HETATM   15  C   UNL     1     -40.745  52.394 -54.339  1.00  0.00     0.037 A 
HETATM   16  C   UNL     1     -41.647  53.447 -54.157  1.00  0.00     0.016 A 
BRANCH  14  17
HETATM   17  O   UNL     1     -39.146  50.880 -53.586  1.00  0.00    -0.356 OA
HETATM   18  C   UNL     1     -39.672  49.880 -54.450  1.00  0.00     0.210 C 
ENDBRANCH  14  17
ENDBRANCH   9  11
ENDBRANCH   1   5
BRANCH   2  19
HETATM   19  N   UNL     1     -44.304  60.103 -50.195  1.00  0.00    -0.267 N 
HETATM   20  C   UNL     1     -44.114  61.267 -50.916  1.00  0.00     0.236 C 
HETATM   21  O   UNL     1     -43.369  61.317 -51.893  1.00  0.00    -0.272 OA
HETATM   22  H   UNL     1     -45.096  59.976 -49.567  1.00  0.00     0.190 HD
BRANCH  20  23
HETATM   23  C   UNL     1     -44.861  62.456 -50.354  1.00  0.00     0.109 C 
BRANCH  23  24
HETATM   24  C   UNL     1     -44.151  63.022 -49.125  1.00  0.00     0.051 C 
BRANCH  24  25
HETATM   25  C   UNL     1     -45.054  63.123 -47.923  1.00  0.00    -0.019 A 
HETATM   26  C   UNL     1     -45.094  62.108 -46.964  1.00  0.00     0.122 A 
HETATM   27  F   UNL     1     -44.311  61.027 -47.104  1.00  0.00    -0.206 F 
HETATM   28  C   UNL     1     -45.932  62.188 -45.855  1.00  0.00     0.043 A 
HETATM   29  C   UNL     1     -46.757  63.299 -45.694  1.00  0.00     0.003 A 
HETATM   30  C   UNL     1     -46.735  64.322 -46.642  1.00  0.00     0.001 A 
HETATM   31  C   UNL     1     -45.889  64.237 -47.750  1.00  0.00     0.010 A 
ENDBRANCH  24  25
ENDBRANCH  23  24
ENDBRANCH  20  23
ENDBRANCH   2  19
TORSDOF 7
ENDMDL
MODEL 8
REMARK VINA RESULT:      -8.0      4.520      5.090
REMARK  7 active torsions:
REMARK  status: ('A' for Active; 'I' for Inactive)
REMARK    1  A    between atoms: O_2  and  C_3 
REMARK    2  A    between atoms: C_6  and  C_7 
REMARK    3  A    between atoms: C_11  and  C_12 
REMARK       I    between atoms: C_12  and  N_13 
REMARK    4  A    between atoms: N_13  and  N_14 
REMARK       I    between atoms: N_14  and  C_15 
REMARK    5  A    between atoms: C_15  and  C_16 
REMARK    6  A    between atoms: C_16  and  C_17 
REMARK    7  A    between atoms: C_17  and  C_18 
ROOT
HETATM    1  C   UNL     1     -42.881  56.234 -56.357  1.00  0.00     0.288 C 
HETATM    2  N   UNL     1     -42.092  55.112 -56.218  1.00  0.00    -0.262 N 
HETATM    3  O   UNL     1     -43.770  56.509 -55.553  1.00  0.00    -0.264 OA
HETATM    4  H   UNL     1     -41.237  54.986 -56.756  1.00  0.00     0.190 HD
ENDROOT
BRANCH   1   5
HETATM    5  C   UNL     1     -42.576  57.055 -57.497  1.00  0.00     0.121 A 
HETATM    6  N   UNL     1     -42.466  56.539 -58.758  1.00  0.00    -0.272 N 
HETATM    7  N   UNL     1     -42.205  57.452 -59.705  1.00  0.00    -0.174 NA
HETATM    8  H   UNL     1     -42.569  55.566 -59.030  1.00  0.00     0.189 HD
HETATM    9  C   UNL     1     -42.119  58.617 -59.044  1.00  0.00     0.089 A 
HETATM   10  C   UNL     1     -42.344  58.407 -57.654  1.00  0.00     0.071 A 
BRANCH   9  11
HETATM   11  C   UNL     1     -41.851  59.885 -59.730  1.00  0.00    -0.005 A 
HETATM   12  C   UNL     1     -41.473  61.023 -59.003  1.00  0.00     0.016 A 
HETATM   13  C   UNL     1     -41.181  62.232 -59.651  1.00  0.00     0.037 A 
HETATM   14  C   UNL     1     -41.267  62.321 -61.039  1.00  0.00     0.068 A 
HETATM   15  C   UNL     1     -41.663  61.199 -61.768  1.00  0.00     0.037 A 
HETATM   16  C   UNL     1     -41.951  59.991 -61.123  1.00  0.00     0.016 A 
BRANCH  14  17
HETATM   17  O   UNL     1     -41.003  63.430 -61.794  1.00  0.00    -0.356 OA
HETATM   18  C   UNL     1     -39.986  63.305 -62.779  1.00  0.00     0.210 C 
ENDBRANCH  14  17
ENDBRANCH   9  11
ENDBRANCH   1   5
BRANCH   2  19
HETATM   19  N   UNL     1     -42.165  54.368 -55.029  1.00  0.00    -0.267 N 
HETATM   20  C   UNL     1     -41.307  54.742 -54.013  1.00  0.00     0.236 C 
HETATM   21  O   UNL     1     -40.419  55.576 -54.180  1.00  0.00    -0.272 OA
HETATM   22  H   UNL     1     -43.049  53.893 -54.848  1.00  0.00     0.190 HD
BRANCH  20  23
HETATM   23  C   UNL     1     -41.538  53.993 -52.720  1.00  0.00     0.109 C 
BRANCH  23  24
HETATM   24  C   UNL     1     -40.223  53.465 -52.146  1.00  0.00     0.051 C 
BRANCH  24  25
HETATM   25  C   UNL     1     -39.966  52.024 -52.505  1.00  0.00    -0.019 A 
HETATM   26  C   UNL     1     -39.829  51.048 -51.514  1.00  0.00     0.122 A 
HETATM   27  F   UNL     1     -39.936  51.391 -50.222  1.00  0.00    -0.206 F 
HETATM   28  C   UNL     1     -39.582  49.716 -51.836  1.00  0.00     0.043 A 
HETATM   29  C   UNL     1     -39.462  49.340 -53.172  1.00  0.00     0.003 A 
HETATM   30  C   UNL     1     -39.591  50.300 -54.176  1.00  0.00     0.001 A 
HETATM   31  C   UNL     1     -39.842  51.634 -53.847  1.00  0.00     0.010 A 
ENDBRANCH  24  25
ENDBRANCH  23  24
ENDBRANCH  20  23
ENDBRANCH   2  19
TORSDOF 7
ENDMDL
MODEL 9
REMARK VINA RESULT:      -7.9     16.556     20.308
REMARK  7 active torsions:
REMARK  status: ('A' for Active; 'I' for Inactive)
REMARK    1  A    between atoms: O_2  and  C_3 
REMARK    2  A    between atoms: C_6  and  C_7 
REMARK    3  A    between atoms: C_11  and  C_12 
REMARK       I    between atoms: C_12  and  N_13 
REMARK    4  A    between atoms: N_13  and  N_14 
REMARK       I    between atoms: N_14  and  C_15 
REMARK    5  A    between atoms: C_15  and  C_16 
REMARK    6  A    between atoms: C_16  and  C_17 
REMARK    7  A    between atoms: C_17  and  C_18 
ROOT
HETATM    1  C   UNL     1     -36.591  42.037 -56.100  1.00  0.00     0.288 C 
HETATM    2  N   UNL     1     -35.729  41.845 -57.159  1.00  0.00    -0.262 N 
HETATM    3  O   UNL     1     -37.774  42.334 -56.266  1.00  0.00    -0.264 OA
HETATM    4  H   UNL     1     -34.817  41.409 -57.037  1.00  0.00     0.190 HD
ENDROOT
BRANCH   1   5
HETATM    5  C   UNL     1     -36.008  41.852 -54.799  1.00  0.00     0.121 A 
HETATM    6  N   UNL     1     -36.590  42.344 -53.664  1.00  0.00    -0.272 N 
HETATM    7  N   UNL     1     -35.925  42.055 -52.535  1.00  0.00    -0.174 NA
HETATM    8  H   UNL     1     -37.452  42.878 -53.602  1.00  0.00     0.189 HD
HETATM    9  C   UNL     1     -34.849  41.362 -52.940  1.00  0.00     0.089 A 
HETATM   10  C   UNL     1     -34.866  41.217 -54.356  1.00  0.00     0.071 A 
BRANCH   9  11
HETATM   11  C   UNL     1     -33.855  40.843 -51.994  1.00  0.00    -0.005 A 
HETATM   12  C   UNL     1     -32.618  40.367 -52.449  1.00  0.00     0.016 A 
HETATM   13  C   UNL     1     -31.647  39.900 -51.552  1.00  0.00     0.037 A 
HETATM   14  C   UNL     1     -31.902  39.900 -50.182  1.00  0.00     0.068 A 
HETATM   15  C   UNL     1     -33.140  40.352 -49.723  1.00  0.00     0.037 A 
HETATM   16  C   UNL     1     -34.108  40.822 -50.616  1.00  0.00     0.016 A 
BRANCH  14  17
HETATM   17  O   UNL     1     -31.045  39.483 -49.202  1.00  0.00    -0.356 OA
HETATM   18  C   UNL     1     -31.530  39.527 -47.867  1.00  0.00     0.210 C 
ENDBRANCH  14  17
ENDBRANCH   9  11
ENDBRANCH   1   5
BRANCH   2  19
HETATM   19  N   UNL     1     -36.250  41.789 -58.462  1.00  0.00    -0.267 N 
HETATM   20  C   UNL     1     -36.651  40.546 -58.914  1.00  0.00     0.236 C 
HETATM   21  O   UNL     1     -36.428  39.516 -58.280  1.00  0.00    -0.272 OA
HETATM   22  H   UNL     1     -36.647  42.654 -58.827  1.00  0.00     0.190 HD
BRANCH  20  23
HETATM   23  C   UNL     1     -37.329  40.584 -60.265  1.00  0.00     0.109 C 
BRANCH  23  24
HETATM   24  C   UNL     1     -37.165  39.254 -61.001  1.00  0.00     0.051 C 
BRANCH  24  25
HETATM   25  C   UNL     1     -38.481  38.582 -61.293  1.00  0.00    -0.019 A 
HETATM   26  C   UNL     1     -38.794  38.140 -62.582  1.00  0.00     0.122 A 
HETATM   27  F   UNL     1     -37.910  38.305 -63.577  1.00  0.00    -0.206 F 
HETATM   28  C   UNL     1     -40.012  37.527 -62.864  1.00  0.00     0.043 A 
HETATM   29  C   UNL     1     -40.947  37.351 -61.846  1.00  0.00     0.003 A 
HETATM   30  C   UNL     1     -40.656  37.788 -60.554  1.00  0.00     0.001 A 
HETATM   31  C   UNL     1     -39.431  38.400 -60.277  1.00  0.00     0.010 A 
ENDBRANCH  24  25
ENDBRANCH  23  24
ENDBRANCH  20  23
ENDBRANCH   2  19
TORSDOF 7
ENDMDL
MODEL 10
REMARK VINA RESULT:      -7.8      8.296     12.334
REMARK  7 active torsions:
REMARK  status: ('A' for Active; 'I' for Inactive)
REMARK    1  A    between atoms: O_2  and  C_3 
REMARK    2  A    between atoms: C_6  and  C_7 
REMARK    3  A    between atoms: C_11  and  C_12 
REMARK       I    between atoms: C_12  and  N_13 
REMARK    4  A    between atoms: N_13  and  N_14 
REMARK       I    between atoms: N_14  and  C_15 
REMARK    5  A    between atoms: C_15  and  C_16 
REMARK    6  A    between atoms: C_16  and  C_17 
REMARK    7  A    between atoms: C_17  and  C_18 
ROOT
HETATM    1  C   UNL     1     -42.665  58.866 -51.370  1.00  0.00     0.288 C 
HETATM    2  N   UNL     1     -43.779  59.036 -50.575  1.00  0.00    -0.262 N 
HETATM    3  O   UNL     1     -42.232  59.767 -52.088  1.00  0.00    -0.264 OA
HETATM    4  H   UNL     1     -44.020  58.375 -49.840  1.00  0.00     0.190 HD
ENDROOT
BRANCH   1   5
HETATM    5  C   UNL     1     -42.048  57.571 -51.285  1.00  0.00     0.121 A 
HETATM    6  N   UNL     1     -41.612  57.048 -50.100  1.00  0.00    -0.272 N 
HETATM    7  N   UNL     1     -41.087  55.818 -50.201  1.00  0.00    -0.174 NA
HETATM    8  H   UNL     1     -41.659  57.487 -49.186  1.00  0.00     0.189 HD
HETATM    9  C   UNL     1     -41.159  55.521 -51.509  1.00  0.00     0.089 A 
HETATM   10  C   UNL     1     -41.754  56.600 -52.222  1.00  0.00     0.071 A 
BRANCH   9  11
HETATM   11  C   UNL     1     -40.689  54.239 -52.044  1.00  0.00    -0.005 A 
HETATM   12  C   UNL     1     -40.122  53.277 -51.195  1.00  0.00     0.016 A 
HETATM   13  C   UNL     1     -39.700  52.035 -51.689  1.00  0.00     0.037 A 
HETATM   14  C   UNL     1     -39.837  51.737 -53.044  1.00  0.00     0.068 A 
HETATM   15  C   UNL     1     -40.382  52.697 -53.898  1.00  0.00     0.037 A 
HETATM   16  C   UNL     1     -40.806  53.935 -53.406  1.00  0.00     0.016 A 
BRANCH  14  17
HETATM   17  O   UNL     1     -39.478  50.567 -53.652  1.00  0.00    -0.356 OA
HETATM   18  C   UNL     1     -39.590  49.381 -52.876  1.00  0.00     0.210 C 
ENDBRANCH  14  17
ENDBRANCH   9  11
ENDBRANCH   1   5
BRANCH   2  19
HETATM   19  N   UNL     1     -44.320  60.323 -50.423  1.00  0.00    -0.267 N 
HETATM   20  C   UNL     1     -45.698  60.421 -50.459  1.00  0.00     0.236 C 
HETATM   21  O   UNL     1     -46.414  59.468 -50.759  1.00  0.00    -0.272 OA
HETATM   22  H   UNL     1     -43.739  61.003 -49.933  1.00  0.00     0.190 HD
BRANCH  20  23
HETATM   23  C   UNL     1     -46.214  61.809 -50.149  1.00  0.00     0.109 C 
BRANCH  23  24
HETATM   24  C   UNL     1     -45.169  62.629 -49.392  1.00  0.00     0.051 C 
BRANCH  24  25
HETATM   25  C   UNL     1     -45.591  62.953 -47.982  1.00  0.00    -0.019 A 
HETATM   26  C   UNL     1     -44.902  63.904 -47.225  1.00  0.00     0.122 A 
HETATM   27  F   UNL     1     -43.854  64.549 -47.758  1.00  0.00    -0.206 F 
HETATM   28  C   UNL     1     -45.279  64.203 -45.918  1.00  0.00     0.043 A 
HETATM   29  C   UNL     1     -46.362  63.541 -45.344  1.00  0.00     0.003 A 
HETATM   30  C   UNL     1     -47.060  62.585 -46.082  1.00  0.00     0.001 A 
HETATM   31  C   UNL     1     -46.679  62.292 -47.393  1.00  0.00     0.010 A 
ENDBRANCH  24  25
ENDBRANCH  23  24
ENDBRANCH  20  23
ENDBRANCH   2  19
TORSDOF 7
ENDMDL
