MODEL 1
REMARK VINA RESULT:      -7.8      0.000      0.000
REMARK  8 active torsions:
REMARK  status: ('A' for Active; 'I' for Inactive)
REMARK    1  A    between atoms: C_2  and  O_3 
REMARK    2  A    between atoms: O_3  and  C_4 
REMARK    3  A    between atoms: C_5  and  N_6 
REMARK       I    between atoms: N_6  and  C_7 
REMARK    4  A    between atoms: C_7  and  C_8 
REMARK    5  A    between atoms: C_8  and  C_9 
REMARK    6  A    between atoms: C_9  and  N_10 
REMARK    7  A    between atoms: N_10  and  S_11 
REMARK    8  A    between atoms: S_11  and  C_12 
ROOT
HETATM    1  N   UNL     1     -42.972  58.998 -52.836  1.00  0.00    -0.315 N 
HETATM    2  H   UNL     1     -43.904  59.380 -52.987  1.00  0.00     0.172 HD
ENDROOT
BRANCH   1   3
HETATM    3  C   UNL     1     -42.577  58.596 -51.477  1.00  0.00     0.141 C 
BRANCH   3   4
HETATM    4  C   UNL     1     -43.185  57.245 -51.122  1.00  0.00     0.123 C 
BRANCH   4   5
HETATM    5  C   UNL     1     -42.907  56.243 -52.228  1.00  0.00     0.223 C 
HETATM    6  N   UNL     1     -41.643  55.694 -52.148  1.00  0.00    -0.325 N 
HETATM    7  H   UNL     1     -40.984  56.075 -51.477  1.00  0.00     0.169 HD
HETATM    8  O   UNL     1     -43.764  55.964 -53.060  1.00  0.00    -0.273 OA
BRANCH   6   9
HETATM    9  C   UNL     1     -41.084  54.691 -52.975  1.00  0.00     0.068 A 
HETATM   10  C   UNL     1     -40.931  53.404 -52.414  1.00  0.00     0.095 A 
HETATM   11  C   UNL     1     -40.395  52.369 -53.186  1.00  0.00     0.039 A 
HETATM   12  C   UNL     1     -40.009  52.606 -54.507  1.00  0.00     0.003 A 
HETATM   13  C   UNL     1     -40.157  53.874 -55.061  1.00  0.00     0.002 A 
HETATM   14  C   UNL     1     -40.694  54.913 -54.298  1.00  0.00     0.032 A 
BRANCH  10  15
HETATM   15  O   UNL     1     -41.337  53.276 -51.103  1.00  0.00    -0.349 OA
BRANCH  15  16
HETATM   16  C   UNL     1     -40.343  52.882 -50.158  1.00  0.00     0.171 C 
HETATM   17  C   UNL     1     -39.661  54.135 -49.641  1.00  0.00     0.034 C 
ENDBRANCH  15  16
ENDBRANCH  10  15
ENDBRANCH   6   9
ENDBRANCH   4   5
ENDBRANCH   3   4
ENDBRANCH   1   3
BRANCH   1  18
HETATM   18  S   UNL     1     -41.826  59.813 -53.772  1.00  0.00     0.258 S 
HETATM   19  O   UNL     1     -42.212  61.208 -53.727  1.00  0.00    -0.201 OA
HETATM   20  O   UNL     1     -40.510  59.380 -53.364  1.00  0.00    -0.201 OA
BRANCH  18  21
HETATM   21  C   UNL     1     -42.144  59.207 -55.411  1.00  0.00     0.080 A 
HETATM   22  C   UNL     1     -42.367  57.838 -55.601  1.00  0.00     0.034 A 
HETATM   23  C   UNL     1     -42.601  57.345 -56.889  1.00  0.00    -0.029 A 
HETATM   24  C   UNL     1     -42.556  58.221 -57.979  1.00  0.00     0.041 A 
HETATM   25  C   UNL     1     -42.784  55.873 -57.136  1.00  0.00     0.050 C 
HETATM   26  N   UNL     1     -42.751  57.726 -59.271  1.00  0.00    -0.327 N 
HETATM   27  C   UNL     1     -42.287  59.579 -57.793  1.00  0.00     0.031 A 
HETATM   28  C   UNL     1     -43.174  56.452 -59.549  1.00  0.00     0.222 C 
HETATM   29  H   UNL     1     -42.576  58.314 -60.075  1.00  0.00     0.169 HD
HETATM   30  O   UNL     1     -43.275  56.060 -60.709  1.00  0.00    -0.273 OA
HETATM   31  C   UNL     1     -43.634  55.623 -58.372  1.00  0.00     0.108 C 
HETATM   32  C   UNL     1     -42.088  60.077 -56.503  1.00  0.00     0.027 A 
ENDBRANCH  18  21
ENDBRANCH   1  18
TORSDOF 8
ENDMDL
MODEL 2
REMARK VINA RESULT:      -7.7      2.353      7.247
REMARK  8 active torsions:
REMARK  status: ('A' for Active; 'I' for Inactive)
REMARK    1  A    between atoms: C_2  and  O_3 
REMARK    2  A    between atoms: O_3  and  C_4 
REMARK    3  A    between atoms: C_5  and  N_6 
REMARK       I    between atoms: N_6  and  C_7 
REMARK    4  A    between atoms: C_7  and  C_8 
REMARK    5  A    between atoms: C_8  and  C_9 
REMARK    6  A    between atoms: C_9  and  N_10 
REMARK    7  A    between atoms: N_10  and  S_11 
REMARK    8  A    between atoms: S_11  and  C_12 
ROOT
HETATM    1  N   UNL     1     -42.100  56.894 -52.894  1.00  0.00    -0.315 N 
HETATM    2  H   UNL     1     -41.439  57.602 -53.212  1.00  0.00     0.172 HD
ENDROOT
BRANCH   1   3
HETATM    3  C   UNL     1     -43.516  57.018 -53.275  1.00  0.00     0.141 C 
BRANCH   3   4
HETATM    4  C   UNL     1     -43.836  56.096 -54.445  1.00  0.00     0.123 C 
BRANCH   4   5
HETATM    5  C   UNL     1     -42.930  56.415 -55.621  1.00  0.00     0.223 C 
HETATM    6  N   UNL     1     -43.584  57.085 -56.634  1.00  0.00    -0.325 N 
HETATM    7  H   UNL     1     -44.592  57.190 -56.583  1.00  0.00     0.169 HD
HETATM    8  O   UNL     1     -41.741  56.115 -55.603  1.00  0.00    -0.273 OA
BRANCH   6   9
HETATM    9  C   UNL     1     -43.030  57.584 -57.837  1.00  0.00     0.068 A 
HETATM   10  C   UNL     1     -43.070  56.736 -58.966  1.00  0.00     0.095 A 
HETATM   11  C   UNL     1     -42.549  57.179 -60.186  1.00  0.00     0.039 A 
HETATM   12  C   UNL     1     -41.987  58.453 -60.289  1.00  0.00     0.003 A 
HETATM   13  C   UNL     1     -41.945  59.288 -59.176  1.00  0.00     0.002 A 
HETATM   14  C   UNL     1     -42.465  58.856 -57.955  1.00  0.00     0.032 A 
BRANCH  10  15
HETATM   15  O   UNL     1     -43.641  55.499 -58.759  1.00  0.00    -0.349 OA
BRANCH  15  16
HETATM   16  C   UNL     1     -44.401  54.953 -59.837  1.00  0.00     0.171 C 
HETATM   17  C   UNL     1     -44.739  53.514 -59.493  1.00  0.00     0.034 C 
ENDBRANCH  15  16
ENDBRANCH  10  15
ENDBRANCH   6   9
ENDBRANCH   4   5
ENDBRANCH   3   4
ENDBRANCH   1   3
BRANCH   1  18
HETATM   18  S   UNL     1     -41.756  56.415 -51.312  1.00  0.00     0.258 S 
HETATM   19  O   UNL     1     -40.684  57.281 -50.869  1.00  0.00    -0.201 OA
HETATM   20  O   UNL     1     -43.000  56.321 -50.583  1.00  0.00    -0.201 OA
BRANCH  18  21
HETATM   21  C   UNL     1     -41.094  54.781 -51.523  1.00  0.00     0.080 A 
HETATM   22  C   UNL     1     -41.263  54.128 -52.751  1.00  0.00     0.034 A 
HETATM   23  C   UNL     1     -40.760  52.834 -52.924  1.00  0.00    -0.029 A 
HETATM   24  C   UNL     1     -40.141  52.188 -51.849  1.00  0.00     0.041 A 
HETATM   25  C   UNL     1     -40.977  52.083 -54.209  1.00  0.00     0.050 C 
HETATM   26  N   UNL     1     -39.673  50.881 -52.008  1.00  0.00    -0.327 N 
HETATM   27  C   UNL     1     -40.015  52.822 -50.611  1.00  0.00     0.031 A 
HETATM   28  C   UNL     1     -39.605  50.230 -53.212  1.00  0.00     0.222 C 
HETATM   29  H   UNL     1     -39.359  50.351 -51.206  1.00  0.00     0.169 HD
HETATM   30  O   UNL     1     -39.233  49.061 -53.278  1.00  0.00    -0.273 OA
HETATM   31  C   UNL     1     -39.874  51.064 -54.443  1.00  0.00     0.108 C 
HETATM   32  C   UNL     1     -40.485  54.128 -50.448  1.00  0.00     0.027 A 
ENDBRANCH  18  21
ENDBRANCH   1  18
TORSDOF 8
ENDMDL
MODEL 3
REMARK VINA RESULT:      -7.6      2.380      7.093
REMARK  8 active torsions:
REMARK  status: ('A' for Active; 'I' for Inactive)
REMARK    1  A    between atoms: C_2  and  O_3 
REMARK    2  A    between atoms: O_3  and  C_4 
REMARK    3  A    between atoms: C_5  and  N_6 
REMARK       I    between atoms: N_6  and  C_7 
REMARK    4  A    between atoms: C_7  and  C_8 
REMARK    5  A    between atoms: C_8  and  C_9 
REMARK    6  A    between atoms: C_9  and  N_10 
REMARK    7  A    between atoms: N_10  and  S_11 
REMARK    8  A    between atoms: S_11  and  C_12 
ROOT
HETATM    1  N   UNL     1     -41.893  56.917 -52.827  1.00  0.00    -0.315 N 
HETATM    2  H   UNL     1     -41.095  57.465 -53.145  1.00  0.00     0.172 HD
ENDROOT
BRANCH   1   3
HETATM    3  C   UNL     1     -43.248  57.337 -53.218  1.00  0.00     0.141 C 
BRANCH   3   4
HETATM    4  C   UNL     1     -43.953  56.223 -53.982  1.00  0.00     0.123 C 
BRANCH   4   5
HETATM    5  C   UNL     1     -43.247  55.971 -55.302  1.00  0.00     0.223 C 
HETATM    6  N   UNL     1     -43.688  56.800 -56.313  1.00  0.00    -0.325 N 
HETATM    7  H   UNL     1     -44.497  57.390 -56.145  1.00  0.00     0.169 HD
HETATM    8  O   UNL     1     -42.359  55.129 -55.396  1.00  0.00    -0.273 OA
BRANCH   6   9
HETATM    9  C   UNL     1     -43.205  56.876 -57.641  1.00  0.00     0.068 A 
HETATM   10  C   UNL     1     -42.395  57.985 -57.970  1.00  0.00     0.095 A 
HETATM   11  C   UNL     1     -41.879  58.108 -59.263  1.00  0.00     0.039 A 
HETATM   12  C   UNL     1     -42.164  57.141 -60.229  1.00  0.00     0.003 A 
HETATM   13  C   UNL     1     -42.964  56.048 -59.906  1.00  0.00     0.002 A 
HETATM   14  C   UNL     1     -43.482  55.916 -58.617  1.00  0.00     0.032 A 
BRANCH  10  15
HETATM   15  O   UNL     1     -42.177  58.885 -56.949  1.00  0.00    -0.349 OA
BRANCH  15  16
HETATM   16  C   UNL     1     -42.537  60.243 -57.201  1.00  0.00     0.171 C 
HETATM   17  C   UNL     1     -43.944  60.462 -56.677  1.00  0.00     0.034 C 
ENDBRANCH  15  16
ENDBRANCH  10  15
ENDBRANCH   6   9
ENDBRANCH   4   5
ENDBRANCH   3   4
ENDBRANCH   1   3
BRANCH   1  18
HETATM   18  S   UNL     1     -41.669  56.387 -51.240  1.00  0.00     0.258 S 
HETATM   19  O   UNL     1     -40.613  57.217 -50.700  1.00  0.00    -0.201 OA
HETATM   20  O   UNL     1     -42.961  56.299 -50.600  1.00  0.00    -0.201 OA
BRANCH  18  21
HETATM   21  C   UNL     1     -41.024  54.746 -51.453  1.00  0.00     0.080 A 
HETATM   22  C   UNL     1     -41.205  54.095 -52.679  1.00  0.00     0.034 A 
HETATM   23  C   UNL     1     -40.717  52.795 -52.854  1.00  0.00    -0.029 A 
HETATM   24  C   UNL     1     -40.100  52.143 -51.781  1.00  0.00     0.041 A 
HETATM   25  C   UNL     1     -40.947  52.046 -54.137  1.00  0.00     0.050 C 
HETATM   26  N   UNL     1     -39.646  50.831 -51.941  1.00  0.00    -0.327 N 
HETATM   27  C   UNL     1     -39.962  52.776 -50.544  1.00  0.00     0.031 A 
HETATM   28  C   UNL     1     -39.590  50.179 -53.145  1.00  0.00     0.222 C 
HETATM   29  H   UNL     1     -39.335  50.298 -51.140  1.00  0.00     0.169 HD
HETATM   30  O   UNL     1     -39.231  49.006 -53.212  1.00  0.00    -0.273 OA
HETATM   31  C   UNL     1     -39.855  51.015 -54.376  1.00  0.00     0.108 C 
HETATM   32  C   UNL     1     -40.418  54.087 -50.380  1.00  0.00     0.027 A 
ENDBRANCH  18  21
ENDBRANCH   1  18
TORSDOF 8
ENDMDL
MODEL 4
REMARK VINA RESULT:      -7.6      1.466      2.087
REMARK  8 active torsions:
REMARK  status: ('A' for Active; 'I' for Inactive)
REMARK    1  A    between atoms: C_2  and  O_3 
REMARK    2  A    between atoms: O_3  and  C_4 
REMARK    3  A    between atoms: C_5  and  N_6 
REMARK       I    between atoms: N_6  and  C_7 
REMARK    4  A    between atoms: C_7  and  C_8 
REMARK    5  A    between atoms: C_8  and  C_9 
REMARK    6  A    between atoms: C_9  and  N_10 
REMARK    7  A    between atoms: N_10  and  S_11 
REMARK    8  A    between atoms: S_11  and  C_12 
ROOT
HETATM    1  N   UNL     1     -42.958  58.226 -53.213  1.00  0.00    -0.315 N 
HETATM    2  H   UNL     1     -43.495  59.089 -53.288  1.00  0.00     0.172 HD
ENDROOT
BRANCH   1   3
HETATM    3  C   UNL     1     -42.761  57.621 -51.887  1.00  0.00     0.141 C 
BRANCH   3   4
HETATM    4  C   UNL     1     -43.868  56.618 -51.587  1.00  0.00     0.123 C 
BRANCH   4   5
HETATM    5  C   UNL     1     -43.317  55.204 -51.644  1.00  0.00     0.223 C 
HETATM    6  N   UNL     1     -42.133  55.119 -52.347  1.00  0.00    -0.325 N 
HETATM    7  H   UNL     1     -41.805  55.932 -52.858  1.00  0.00     0.169 HD
HETATM    8  O   UNL     1     -43.888  54.278 -51.077  1.00  0.00    -0.273 OA
BRANCH   6   9
HETATM    9  C   UNL     1     -41.324  53.974 -52.540  1.00  0.00     0.068 A 
HETATM   10  C   UNL     1     -40.409  53.650 -51.514  1.00  0.00     0.095 A 
HETATM   11  C   UNL     1     -39.591  52.523 -51.642  1.00  0.00     0.039 A 
HETATM   12  C   UNL     1     -39.675  51.721 -52.782  1.00  0.00     0.003 A 
HETATM   13  C   UNL     1     -40.575  52.040 -53.795  1.00  0.00     0.002 A 
HETATM   14  C   UNL     1     -41.397  53.161 -53.674  1.00  0.00     0.032 A 
BRANCH  10  15
HETATM   15  O   UNL     1     -40.400  54.508 -50.434  1.00  0.00    -0.349 OA
BRANCH  15  16
HETATM   16  C   UNL     1     -39.541  54.164 -49.348  1.00  0.00     0.171 C 
HETATM   17  C   UNL     1     -40.402  53.959 -48.114  1.00  0.00     0.034 C 
ENDBRANCH  15  16
ENDBRANCH  10  15
ENDBRANCH   6   9
ENDBRANCH   4   5
ENDBRANCH   3   4
ENDBRANCH   1   3
BRANCH   1  18
HETATM   18  S   UNL     1     -41.639  58.242 -54.267  1.00  0.00     0.258 S 
HETATM   19  O   UNL     1     -41.462  59.628 -54.646  1.00  0.00    -0.201 OA
HETATM   20  O   UNL     1     -40.567  57.479 -53.670  1.00  0.00    -0.201 OA
BRANCH  18  21
HETATM   21  C   UNL     1     -42.247  57.358 -55.683  1.00  0.00     0.080 A 
HETATM   22  C   UNL     1     -42.658  58.076 -56.812  1.00  0.00     0.034 A 
HETATM   23  C   UNL     1     -43.155  57.393 -57.927  1.00  0.00    -0.029 A 
HETATM   24  C   UNL     1     -43.284  56.000 -57.879  1.00  0.00     0.041 A 
HETATM   25  C   UNL     1     -43.661  58.137 -59.132  1.00  0.00     0.050 C 
HETATM   26  N   UNL     1     -43.816  55.318 -58.976  1.00  0.00    -0.327 N 
HETATM   27  C   UNL     1     -42.917  55.289 -56.734  1.00  0.00     0.031 A 
HETATM   28  C   UNL     1     -44.058  55.895 -60.195  1.00  0.00     0.222 C 
HETATM   29  H   UNL     1     -44.052  54.338 -58.901  1.00  0.00     0.169 HD
HETATM   30  O   UNL     1     -44.578  55.254 -61.105  1.00  0.00    -0.273 OA
HETATM   31  C   UNL     1     -43.529  57.297 -60.392  1.00  0.00     0.108 C 
HETATM   32  C   UNL     1     -42.388  55.968 -55.633  1.00  0.00     0.027 A 
ENDBRANCH  18  21
ENDBRANCH   1  18
TORSDOF 8
ENDMDL
MODEL 5
REMARK VINA RESULT:      -7.5      2.403      6.683
REMARK  8 active torsions:
REMARK  status: ('A' for Active; 'I' for Inactive)
REMARK    1  A    between atoms: C_2  and  O_3 
REMARK    2  A    between atoms: O_3  and  C_4 
REMARK    3  A    between atoms: C_5  and  N_6 
REMARK       I    between atoms: N_6  and  C_7 
REMARK    4  A    between atoms: C_7  and  C_8 
REMARK    5  A    between atoms: C_8  and  C_9 
REMARK    6  A    between atoms: C_9  and  N_10 
REMARK    7  A    between atoms: N_10  and  S_11 
REMARK    8  A    between atoms: S_11  and  C_12 
ROOT
HETATM    1  N   UNL     1     -41.741  57.051 -52.809  1.00  0.00    -0.315 N 
HETATM    2  H   UNL     1     -41.965  56.281 -53.438  1.00  0.00     0.172 HD
ENDROOT
BRANCH   1   3
HETATM    3  C   UNL     1     -40.785  58.078 -53.252  1.00  0.00     0.141 C 
BRANCH   3   4
HETATM    4  C   UNL     1     -41.523  59.272 -53.846  1.00  0.00     0.123 C 
BRANCH   4   5
HETATM    5  C   UNL     1     -42.575  58.795 -54.831  1.00  0.00     0.223 C 
HETATM    6  N   UNL     1     -42.055  58.511 -56.076  1.00  0.00    -0.325 N 
HETATM    7  H   UNL     1     -41.089  58.755 -56.272  1.00  0.00     0.169 HD
HETATM    8  O   UNL     1     -43.747  58.661 -54.490  1.00  0.00    -0.273 OA
BRANCH   6   9
HETATM    9  C   UNL     1     -42.739  57.990 -57.200  1.00  0.00     0.068 A 
HETATM   10  C   UNL     1     -42.842  56.585 -57.298  1.00  0.00     0.095 A 
HETATM   11  C   UNL     1     -43.517  56.012 -58.380  1.00  0.00     0.039 A 
HETATM   12  C   UNL     1     -44.086  56.824 -59.363  1.00  0.00     0.003 A 
HETATM   13  C   UNL     1     -43.984  58.209 -59.268  1.00  0.00     0.002 A 
HETATM   14  C   UNL     1     -43.314  58.790 -58.191  1.00  0.00     0.032 A 
BRANCH  10  15
HETATM   15  O   UNL     1     -42.243  55.874 -56.281  1.00  0.00    -0.349 OA
BRANCH  15  16
HETATM   16  C   UNL     1     -42.902  54.681 -55.856  1.00  0.00     0.171 C 
HETATM   17  C   UNL     1     -43.850  55.043 -54.728  1.00  0.00     0.034 C 
ENDBRANCH  15  16
ENDBRANCH  10  15
ENDBRANCH   6   9
ENDBRANCH   4   5
ENDBRANCH   3   4
ENDBRANCH   1   3
BRANCH   1  18
HETATM   18  S   UNL     1     -41.623  56.513 -51.213  1.00  0.00     0.258 S 
HETATM   19  O   UNL     1     -40.577  57.313 -50.611  1.00  0.00    -0.201 OA
HETATM   20  O   UNL     1     -42.952  56.459 -50.649  1.00  0.00    -0.201 OA
BRANCH  18  21
HETATM   21  C   UNL     1     -41.012  54.854 -51.394  1.00  0.00     0.080 A 
HETATM   22  C   UNL     1     -41.135  54.212 -52.632  1.00  0.00     0.034 A 
HETATM   23  C   UNL     1     -40.674  52.900 -52.783  1.00  0.00    -0.029 A 
HETATM   24  C   UNL     1     -40.142  52.227 -51.677  1.00  0.00     0.041 A 
HETATM   25  C   UNL     1     -40.845  52.161 -54.081  1.00  0.00     0.050 C 
HETATM   26  N   UNL     1     -39.716  50.904 -51.815  1.00  0.00    -0.327 N 
HETATM   27  C   UNL     1     -40.063  52.853 -50.431  1.00  0.00     0.031 A 
HETATM   28  C   UNL     1     -39.604  50.254 -53.016  1.00  0.00     0.222 C 
HETATM   29  H   UNL     1     -39.470  50.360 -50.999  1.00  0.00     0.169 HD
HETATM   30  O   UNL     1     -39.274  49.072 -53.066  1.00  0.00    -0.273 OA
HETATM   31  C   UNL     1     -39.770  51.102 -54.257  1.00  0.00     0.108 C 
HETATM   32  C   UNL     1     -40.492  54.176 -50.289  1.00  0.00     0.027 A 
ENDBRANCH  18  21
ENDBRANCH   1  18
TORSDOF 8
ENDMDL
MODEL 6
REMARK VINA RESULT:      -7.4      2.705      7.079
REMARK  8 active torsions:
REMARK  status: ('A' for Active; 'I' for Inactive)
REMARK    1  A    between atoms: C_2  and  O_3 
REMARK    2  A    between atoms: O_3  and  C_4 
REMARK    3  A    between atoms: C_5  and  N_6 
REMARK       I    between atoms: N_6  and  C_7 
REMARK    4  A    between atoms: C_7  and  C_8 
REMARK    5  A    between atoms: C_8  and  C_9 
REMARK    6  A    between atoms: C_9  and  N_10 
REMARK    7  A    between atoms: N_10  and  S_11 
REMARK    8  A    between atoms: S_11  and  C_12 
ROOT
HETATM    1  N   UNL     1     -42.034  57.436 -52.585  1.00  0.00    -0.315 N 
HETATM    2  H   UNL     1     -41.159  57.953 -52.667  1.00  0.00     0.172 HD
ENDROOT
BRANCH   1   3
HETATM    3  C   UNL     1     -43.306  58.158 -52.737  1.00  0.00     0.141 C 
BRANCH   3   4
HETATM    4  C   UNL     1     -44.159  57.515 -53.824  1.00  0.00     0.123 C 
BRANCH   4   5
HETATM    5  C   UNL     1     -43.446  57.600 -55.161  1.00  0.00     0.223 C 
HETATM    6  N   UNL     1     -44.155  57.007 -56.185  1.00  0.00    -0.325 N 
HETATM    7  H   UNL     1     -44.989  56.473 -55.960  1.00  0.00     0.169 HD
HETATM    8  O   UNL     1     -42.368  58.176 -55.269  1.00  0.00    -0.273 OA
BRANCH   6   9
HETATM    9  C   UNL     1     -43.814  56.960 -57.558  1.00  0.00     0.068 A 
HETATM   10  C   UNL     1     -44.256  58.029 -58.369  1.00  0.00     0.095 A 
HETATM   11  C   UNL     1     -43.939  58.044 -59.730  1.00  0.00     0.039 A 
HETATM   12  C   UNL     1     -43.192  57.006 -60.290  1.00  0.00     0.003 A 
HETATM   13  C   UNL     1     -42.758  55.951 -59.492  1.00  0.00     0.002 A 
HETATM   14  C   UNL     1     -43.067  55.929 -58.131  1.00  0.00     0.032 A 
BRANCH  10  15
HETATM   15  O   UNL     1     -44.990  59.001 -57.723  1.00  0.00    -0.349 OA
BRANCH  15  16
HETATM   16  C   UNL     1     -46.297  59.262 -58.231  1.00  0.00     0.171 C 
HETATM   17  C   UNL     1     -47.232  58.190 -57.702  1.00  0.00     0.034 C 
ENDBRANCH  15  16
ENDBRANCH  10  15
ENDBRANCH   6   9
ENDBRANCH   4   5
ENDBRANCH   3   4
ENDBRANCH   1   3
BRANCH   1  18
HETATM   18  S   UNL     1     -41.937  56.274 -51.363  1.00  0.00     0.258 S 
HETATM   19  O   UNL     1     -40.783  56.641 -50.570  1.00  0.00    -0.201 OA
HETATM   20  O   UNL     1     -43.246  56.127 -50.768  1.00  0.00    -0.201 OA
BRANCH  18  21
HETATM   21  C   UNL     1     -41.544  54.788 -52.253  1.00  0.00     0.080 A 
HETATM   22  C   UNL     1     -40.667  53.860 -51.679  1.00  0.00     0.034 A 
HETATM   23  C   UNL     1     -40.336  52.694 -52.378  1.00  0.00    -0.029 A 
HETATM   24  C   UNL     1     -40.846  52.495 -53.665  1.00  0.00     0.041 A 
HETATM   25  C   UNL     1     -39.351  51.706 -51.816  1.00  0.00     0.050 C 
HETATM   26  N   UNL     1     -40.487  51.350 -54.380  1.00  0.00    -0.327 N 
HETATM   27  C   UNL     1     -41.684  53.445 -54.255  1.00  0.00     0.031 A 
HETATM   28  C   UNL     1     -39.805  50.291 -53.842  1.00  0.00     0.222 C 
HETATM   29  H   UNL     1     -40.726  51.265 -55.359  1.00  0.00     0.169 HD
HETATM   30  O   UNL     1     -39.471  49.335 -54.538  1.00  0.00    -0.273 OA
HETATM   31  C   UNL     1     -39.616  50.305 -52.342  1.00  0.00     0.108 C 
HETATM   32  C   UNL     1     -42.043  54.593 -53.544  1.00  0.00     0.027 A 
ENDBRANCH  18  21
ENDBRANCH   1  18
TORSDOF 8
ENDMDL
MODEL 7
REMARK VINA RESULT:      -7.4      1.802      2.130
REMARK  8 active torsions:
REMARK  status: ('A' for Active; 'I' for Inactive)
REMARK    1  A    between atoms: C_2  and  O_3 
REMARK    2  A    between atoms: O_3  and  C_4 
REMARK    3  A    between atoms: C_5  and  N_6 
REMARK       I    between atoms: N_6  and  C_7 
REMARK    4  A    between atoms: C_7  and  C_8 
REMARK    5  A    between atoms: C_8  and  C_9 
REMARK    6  A    between atoms: C_9  and  N_10 
REMARK    7  A    between atoms: N_10  and  S_11 
REMARK    8  A    between atoms: S_11  and  C_12 
ROOT
HETATM    1  N   UNL     1     -43.077  57.599 -54.553  1.00  0.00    -0.315 N 
HETATM    2  H   UNL     1     -43.409  56.763 -55.032  1.00  0.00     0.172 HD
ENDROOT
BRANCH   1   3
HETATM    3  C   UNL     1     -43.508  57.845 -53.168  1.00  0.00     0.141 C 
BRANCH   3   4
HETATM    4  C   UNL     1     -42.379  57.529 -52.194  1.00  0.00     0.123 C 
BRANCH   4   5
HETATM    5  C   UNL     1     -41.457  56.481 -52.791  1.00  0.00     0.223 C 
HETATM    6  N   UNL     1     -41.757  55.202 -52.371  1.00  0.00    -0.325 N 
HETATM    7  H   UNL     1     -42.444  55.075 -51.634  1.00  0.00     0.169 HD
HETATM    8  O   UNL     1     -40.575  56.791 -53.586  1.00  0.00    -0.273 OA
BRANCH   6   9
HETATM    9  C   UNL     1     -41.142  53.993 -52.776  1.00  0.00     0.068 A 
HETATM   10  C   UNL     1     -40.278  53.367 -51.851  1.00  0.00     0.095 A 
HETATM   11  C   UNL     1     -39.652  52.164 -52.190  1.00  0.00     0.039 A 
HETATM   12  C   UNL     1     -39.875  51.583 -53.440  1.00  0.00     0.003 A 
HETATM   13  C   UNL     1     -40.725  52.200 -54.354  1.00  0.00     0.002 A 
HETATM   14  C   UNL     1     -41.357  53.400 -54.023  1.00  0.00     0.032 A 
BRANCH  10  15
HETATM   15  O   UNL     1     -40.121  54.022 -50.649  1.00  0.00    -0.349 OA
BRANCH  15  16
HETATM   16  C   UNL     1     -40.475  53.297 -49.471  1.00  0.00     0.171 C 
HETATM   17  C   UNL     1     -40.471  54.267 -48.303  1.00  0.00     0.034 C 
ENDBRANCH  15  16
ENDBRANCH  10  15
ENDBRANCH   6   9
ENDBRANCH   4   5
ENDBRANCH   3   4
ENDBRANCH   1   3
BRANCH   1  18
HETATM   18  S   UNL     1     -43.036  58.921 -55.603  1.00  0.00     0.258 S 
HETATM   19  O   UNL     1     -44.075  59.817 -55.139  1.00  0.00    -0.201 OA
HETATM   20  O   UNL     1     -41.665  59.358 -55.735  1.00  0.00    -0.201 OA
BRANCH  18  21
HETATM   21  C   UNL     1     -43.563  58.221 -57.149  1.00  0.00     0.080 A 
HETATM   22  C   UNL     1     -43.449  56.840 -57.347  1.00  0.00     0.034 A 
HETATM   23  C   UNL     1     -43.845  56.278 -58.566  1.00  0.00    -0.029 A 
HETATM   24  C   UNL     1     -44.301  57.114 -59.592  1.00  0.00     0.041 A 
HETATM   25  C   UNL     1     -43.680  54.808 -58.834  1.00  0.00     0.050 C 
HETATM   26  N   UNL     1     -44.660  56.561 -60.823  1.00  0.00    -0.327 N 
HETATM   27  C   UNL     1     -44.370  58.497 -59.408  1.00  0.00     0.031 A 
HETATM   28  C   UNL     1     -44.779  55.215 -61.055  1.00  0.00     0.222 C 
HETATM   29  H   UNL     1     -44.848  57.160 -61.616  1.00  0.00     0.169 HD
HETATM   30  O   UNL     1     -45.046  54.789 -62.176  1.00  0.00    -0.273 OA
HETATM   31  C   UNL     1     -44.702  54.314 -59.844  1.00  0.00     0.108 C 
HETATM   32  C   UNL     1     -44.008  59.054 -58.179  1.00  0.00     0.027 A 
ENDBRANCH  18  21
ENDBRANCH   1  18
TORSDOF 8
ENDMDL
MODEL 8
REMARK VINA RESULT:      -7.3      2.885      8.439
REMARK  8 active torsions:
REMARK  status: ('A' for Active; 'I' for Inactive)
REMARK    1  A    between atoms: C_2  and  O_3 
REMARK    2  A    between atoms: O_3  and  C_4 
REMARK    3  A    between atoms: C_5  and  N_6 
REMARK       I    between atoms: N_6  and  C_7 
REMARK    4  A    between atoms: C_7  and  C_8 
REMARK    5  A    between atoms: C_8  and  C_9 
REMARK    6  A    between atoms: C_9  and  N_10 
REMARK    7  A    between atoms: N_10  and  S_11 
REMARK    8  A    between atoms: S_11  and  C_12 
ROOT
HETATM    1  N   UNL     1     -41.835  56.356 -56.060  1.00  0.00    -0.315 N 
HETATM    2  H   UNL     1     -41.067  56.934 -56.398  1.00  0.00     0.172 HD
ENDROOT
BRANCH   1   3
HETATM    3  C   UNL     1     -43.094  56.325 -56.822  1.00  0.00     0.141 C 
BRANCH   3   4
HETATM    4  C   UNL     1     -42.988  55.348 -57.987  1.00  0.00     0.123 C 
BRANCH   4   5
HETATM    5  C   UNL     1     -43.739  55.891 -59.189  1.00  0.00     0.223 C 
HETATM    6  N   UNL     1     -45.049  56.214 -58.901  1.00  0.00    -0.325 N 
HETATM    7  H   UNL     1     -45.431  55.956 -57.996  1.00  0.00     0.169 HD
HETATM    8  O   UNL     1     -43.181  56.038 -60.272  1.00  0.00    -0.273 OA
BRANCH   6   9
HETATM    9  C   UNL     1     -46.005  56.798 -59.767  1.00  0.00     0.068 A 
HETATM   10  C   UNL     1     -46.090  58.208 -59.776  1.00  0.00     0.095 A 
HETATM   11  C   UNL     1     -47.007  58.842 -60.620  1.00  0.00     0.039 A 
HETATM   12  C   UNL     1     -47.840  58.086 -61.448  1.00  0.00     0.003 A 
HETATM   13  C   UNL     1     -47.758  56.697 -61.438  1.00  0.00     0.002 A 
HETATM   14  C   UNL     1     -46.844  56.055 -60.601  1.00  0.00     0.032 A 
BRANCH  10  15
HETATM   15  O   UNL     1     -45.230  58.860 -58.920  1.00  0.00    -0.349 OA
BRANCH  15  16
HETATM   16  C   UNL     1     -45.824  59.685 -57.918  1.00  0.00     0.171 C 
HETATM   17  C   UNL     1     -45.727  58.956 -56.590  1.00  0.00     0.034 C 
ENDBRANCH  15  16
ENDBRANCH  10  15
ENDBRANCH   6   9
ENDBRANCH   4   5
ENDBRANCH   3   4
ENDBRANCH   1   3
BRANCH   1  18
HETATM   18  S   UNL     1     -41.945  56.424 -54.376  1.00  0.00     0.258 S 
HETATM   19  O   UNL     1     -41.011  57.452 -53.968  1.00  0.00    -0.201 OA
HETATM   20  O   UNL     1     -43.342  56.484 -54.011  1.00  0.00    -0.201 OA
BRANCH  18  21
HETATM   21  C   UNL     1     -41.290  54.852 -53.869  1.00  0.00     0.080 A 
HETATM   22  C   UNL     1     -41.086  54.604 -52.506  1.00  0.00     0.034 A 
HETATM   23  C   UNL     1     -40.555  53.377 -52.095  1.00  0.00    -0.029 A 
HETATM   24  C   UNL     1     -40.185  52.432 -53.058  1.00  0.00     0.041 A 
HETATM   25  C   UNL     1     -40.267  53.102 -50.645  1.00  0.00     0.050 C 
HETATM   26  N   UNL     1     -39.618  51.221 -52.653  1.00  0.00    -0.327 N 
HETATM   27  C   UNL     1     -40.345  52.699 -54.420  1.00  0.00     0.031 A 
HETATM   28  C   UNL     1     -39.562  50.797 -51.351  1.00  0.00     0.222 C 
HETATM   29  H   UNL     1     -39.212  50.594 -53.335  1.00  0.00     0.169 HD
HETATM   30  O   UNL     1     -39.002  49.744 -51.053  1.00  0.00    -0.273 OA
HETATM   31  C   UNL     1     -40.337  51.614 -50.343  1.00  0.00     0.108 C 
HETATM   32  C   UNL     1     -40.908  53.910 -54.829  1.00  0.00     0.027 A 
ENDBRANCH  18  21
ENDBRANCH   1  18
TORSDOF 8
ENDMDL
MODEL 9
REMARK VINA RESULT:      -7.3      1.844      2.799
REMARK  8 active torsions:
REMARK  status: ('A' for Active; 'I' for Inactive)
REMARK    1  A    between atoms: C_2  and  O_3 
REMARK    2  A    between atoms: O_3  and  C_4 
REMARK    3  A    between atoms: C_5  and  N_6 
REMARK       I    between atoms: N_6  and  C_7 
REMARK    4  A    between atoms: C_7  and  C_8 
REMARK    5  A    between atoms: C_8  and  C_9 
REMARK    6  A    between atoms: C_9  and  N_10 
REMARK    7  A    between atoms: N_10  and  S_11 
REMARK    8  A    between atoms: S_11  and  C_12 
ROOT
HETATM    1  N   UNL     1     -43.462  59.492 -54.055  1.00  0.00    -0.315 N 
HETATM    2  H   UNL     1     -43.593  60.490 -54.214  1.00  0.00     0.172 HD
ENDROOT
BRANCH   1   3
HETATM    3  C   UNL     1     -43.455  58.985 -52.673  1.00  0.00     0.141 C 
BRANCH   3   4
HETATM    4  C   UNL     1     -44.446  57.838 -52.520  1.00  0.00     0.123 C 
BRANCH   4   5
HETATM    5  C   UNL     1     -43.856  56.756 -51.634  1.00  0.00     0.223 C 
HETATM    6  N   UNL     1     -42.599  56.358 -52.040  1.00  0.00    -0.325 N 
HETATM    7  H   UNL     1     -42.238  56.699 -52.925  1.00  0.00     0.169 HD
HETATM    8  O   UNL     1     -44.462  56.340 -50.652  1.00  0.00    -0.273 OA
BRANCH   6   9
HETATM    9  C   UNL     1     -41.744  55.422 -51.410  1.00  0.00     0.068 A 
HETATM   10  C   UNL     1     -41.570  54.175 -52.051  1.00  0.00     0.095 A 
HETATM   11  C   UNL     1     -40.728  53.214 -51.484  1.00  0.00     0.039 A 
HETATM   12  C   UNL     1     -40.063  53.482 -50.285  1.00  0.00     0.003 A 
HETATM   13  C   UNL     1     -40.235  54.710 -49.652  1.00  0.00     0.002 A 
HETATM   14  C   UNL     1     -41.072  55.676 -50.213  1.00  0.00     0.032 A 
BRANCH  10  15
HETATM   15  O   UNL     1     -42.274  54.007 -53.225  1.00  0.00    -0.349 OA
BRANCH  15  16
HETATM   16  C   UNL     1     -41.608  53.314 -54.280  1.00  0.00     0.171 C 
HETATM   17  C   UNL     1     -40.767  54.318 -55.047  1.00  0.00     0.034 C 
ENDBRANCH  15  16
ENDBRANCH  10  15
ENDBRANCH   6   9
ENDBRANCH   4   5
ENDBRANCH   3   4
ENDBRANCH   1   3
BRANCH   1  18
HETATM   18  S   UNL     1     -42.323  58.853 -55.125  1.00  0.00     0.258 S 
HETATM   19  O   UNL     1     -41.578  59.991 -55.622  1.00  0.00    -0.201 OA
HETATM   20  O   UNL     1     -41.663  57.741 -54.481  1.00  0.00    -0.201 OA
BRANCH  18  21
HETATM   21  C   UNL     1     -43.326  58.230 -56.452  1.00  0.00     0.080 A 
HETATM   22  C   UNL     1     -42.804  57.243 -57.297  1.00  0.00     0.034 A 
HETATM   23  C   UNL     1     -43.578  56.755 -58.356  1.00  0.00    -0.029 A 
HETATM   24  C   UNL     1     -44.846  57.301 -58.589  1.00  0.00     0.041 A 
HETATM   25  C   UNL     1     -43.026  55.740 -59.318  1.00  0.00     0.050 C 
HETATM   26  N   UNL     1     -45.605  56.844 -59.669  1.00  0.00    -0.327 N 
HETATM   27  C   UNL     1     -45.345  58.318 -57.773  1.00  0.00     0.031 A 
HETATM   28  C   UNL     1     -45.279  55.751 -60.429  1.00  0.00     0.222 C 
HETATM   29  H   UNL     1     -46.452  57.326 -59.937  1.00  0.00     0.169 HD
HETATM   30  O   UNL     1     -45.961  55.431 -61.400  1.00  0.00    -0.273 OA
HETATM   31  C   UNL     1     -44.136  54.899 -59.927  1.00  0.00     0.108 C 
HETATM   32  C   UNL     1     -44.587  58.780 -56.694  1.00  0.00     0.027 A 
ENDBRANCH  18  21
ENDBRANCH   1  18
TORSDOF 8
ENDMDL
MODEL 10
REMARK VINA RESULT:      -7.3      2.586      7.489
REMARK  8 active torsions:
REMARK  status: ('A' for Active; 'I' for Inactive)
REMARK    1  A    between atoms: C_2  and  O_3 
REMARK    2  A    between atoms: O_3  and  C_4 
REMARK    3  A    between atoms: C_5  and  N_6 
REMARK       I    between atoms: N_6  and  C_7 
REMARK    4  A    between atoms: C_7  and  C_8 
REMARK    5  A    between atoms: C_8  and  C_9 
REMARK    6  A    between atoms: C_9  and  N_10 
REMARK    7  A    between atoms: N_10  and  S_11 
REMARK    8  A    between atoms: S_11  and  C_12 
ROOT
HETATM    1  N   UNL     1     -41.521  57.081 -52.909  1.00  0.00    -0.315 N 
HETATM    2  H   UNL     1     -40.581  56.957 -53.282  1.00  0.00     0.172 HD
ENDROOT
BRANCH   1   3
HETATM    3  C   UNL     1     -42.244  58.329 -53.198  1.00  0.00     0.141 C 
BRANCH   3   4
HETATM    4  C   UNL     1     -42.267  58.598 -54.698  1.00  0.00     0.123 C 
BRANCH   4   5
HETATM    5  C   UNL     1     -43.472  57.922 -55.327  1.00  0.00     0.223 C 
HETATM    6  N   UNL     1     -43.815  58.468 -56.547  1.00  0.00    -0.325 N 
HETATM    7  H   UNL     1     -43.349  59.316 -56.854  1.00  0.00     0.169 HD
HETATM    8  O   UNL     1     -44.024  56.973 -54.780  1.00  0.00    -0.273 OA
BRANCH   6   9
HETATM    9  C   UNL     1     -44.840  58.042 -57.426  1.00  0.00     0.068 A 
HETATM   10  C   UNL     1     -44.457  57.227 -58.515  1.00  0.00     0.095 A 
HETATM   11  C   UNL     1     -45.427  56.766 -59.410  1.00  0.00     0.039 A 
HETATM   12  C   UNL     1     -46.768  57.110 -59.233  1.00  0.00     0.003 A 
HETATM   13  C   UNL     1     -47.146  57.914 -58.161  1.00  0.00     0.002 A 
HETATM   14  C   UNL     1     -46.185  58.378 -57.261  1.00  0.00     0.032 A 
BRANCH  10  15
HETATM   15  O   UNL     1     -43.110  56.949 -58.604  1.00  0.00    -0.349 OA
BRANCH  15  16
HETATM   16  C   UNL     1     -42.596  56.675 -59.907  1.00  0.00     0.171 C 
HETATM   17  C   UNL     1     -41.725  57.846 -60.325  1.00  0.00     0.034 C 
ENDBRANCH  15  16
ENDBRANCH  10  15
ENDBRANCH   6   9
ENDBRANCH   4   5
ENDBRANCH   3   4
ENDBRANCH   1   3
BRANCH   1  18
HETATM   18  S   UNL     1     -41.637  56.458 -51.343  1.00  0.00     0.258 S 
HETATM   19  O   UNL     1     -40.685  57.212 -50.555  1.00  0.00    -0.201 OA
HETATM   20  O   UNL     1     -43.033  56.390 -50.980  1.00  0.00    -0.201 OA
BRANCH  18  21
HETATM   21  C   UNL     1     -41.014  54.804 -51.524  1.00  0.00     0.080 A 
HETATM   22  C   UNL     1     -41.187  54.138 -52.744  1.00  0.00     0.034 A 
HETATM   23  C   UNL     1     -40.716  52.829 -52.893  1.00  0.00    -0.029 A 
HETATM   24  C   UNL     1     -40.123  52.183 -51.803  1.00  0.00     0.041 A 
HETATM   25  C   UNL     1     -40.939  52.065 -54.169  1.00  0.00     0.050 C 
HETATM   26  N   UNL     1     -39.686  50.863 -51.938  1.00  0.00    -0.327 N 
HETATM   27  C   UNL     1     -39.993  52.833 -50.573  1.00  0.00     0.031 A 
HETATM   28  C   UNL     1     -39.623  50.193 -53.132  1.00  0.00     0.222 C 
HETATM   29  H   UNL     1     -39.394  50.337 -51.125  1.00  0.00     0.169 HD
HETATM   30  O   UNL     1     -39.281  49.014 -53.177  1.00  0.00    -0.273 OA
HETATM   31  C   UNL     1     -39.860  51.015 -54.378  1.00  0.00     0.108 C 
HETATM   32  C   UNL     1     -40.432  54.152 -50.434  1.00  0.00     0.027 A 
ENDBRANCH  18  21
ENDBRANCH   1  18
TORSDOF 8
ENDMDL
