MODEL 1
REMARK VINA RESULT:      -8.8      0.000      0.000
REMARK  8 active torsions:
REMARK  status: ('A' for Active; 'I' for Inactive)
REMARK    1  A    between atoms: C_6  and  N_7 
REMARK       I    between atoms: N_7  and  C_8 
REMARK    2  A    between atoms: C_8  and  C_9 
REMARK    3  A    between atoms: C_10  and  N_11 
REMARK       I    between atoms: N_11  and  C_12 
REMARK    4  A    between atoms: C_12  and  C_13 
REMARK    5  A    between atoms: C_13  and  N_14 
REMARK    6  A    between atoms: N_14  and  C_17 
REMARK    7  A    between atoms: C_17  and  C_18 
REMARK    8  A    between atoms: C_30  and  C_31 
ROOT
HETATM    1  C   UNL     1     -42.426  56.748 -54.912  1.00  0.00     0.073 A 
HETATM    2  C   UNL     1     -42.213  57.961 -54.286  1.00  0.00     0.093 A 
HETATM    3  S   UNL     1     -42.327  59.288 -55.351  1.00  0.00    -0.075 SA
HETATM    4  C   UNL     1     -42.675  58.281 -56.667  1.00  0.00    -0.008 A 
HETATM    5  C   UNL     1     -42.667  56.945 -56.329  1.00  0.00    -0.026 A 
HETATM    6  C   UNL     1     -42.868  55.871 -57.361  1.00  0.00     0.041 C 
HETATM    7  C   UNL     1     -42.861  56.416 -58.803  1.00  0.00     0.010 C 
HETATM    8  C   UNL     1     -43.512  57.815 -59.011  1.00  0.00    -0.002 C 
HETATM    9  C   UNL     1     -42.862  58.837 -58.043  1.00  0.00     0.052 C 
ENDROOT
BRANCH   2  10
HETATM   10  N   UNL     1     -41.905  58.392 -53.015  1.00  0.00    -0.319 N 
HETATM   11  C   UNL     1     -40.695  58.910 -52.627  1.00  0.00     0.248 C 
HETATM   12  O   UNL     1     -39.634  58.884 -53.242  1.00  0.00    -0.271 OA
HETATM   13  H   UNL     1     -42.630  58.193 -52.332  1.00  0.00     0.169 HD
BRANCH  11  14
HETATM   14  C   UNL     1     -40.707  59.539 -51.238  1.00  0.00     0.335 C 
BRANCH  14  15
HETATM   15  N   UNL     1     -42.028  59.318 -50.551  1.00  0.00    -0.063 N 
HETATM   16  H   UNL     1     -42.624  58.688 -51.100  1.00  0.00     0.278 HD
HETATM   17  H   UNL     1     -41.822  58.827 -49.663  1.00  0.00     0.278 HD
BRANCH  15  18
HETATM   18  C   UNL     1     -42.785  60.556 -50.196  1.00  0.00     0.272 C 
BRANCH  18  19
HETATM   19  C   UNL     1     -44.099  60.592 -50.911  1.00  0.00    -0.015 A 
HETATM   20  C   UNL     1     -45.247  60.068 -50.328  1.00  0.00     0.125 A 
HETATM   21  N   UNL     1     -46.441  60.003 -50.952  1.00  0.00    -0.273 NA
HETATM   22  C   UNL     1     -46.517  60.500 -52.206  1.00  0.00     0.116 A 
HETATM   23  C   UNL     1     -45.437  61.049 -52.873  1.00  0.00     0.020 A 
HETATM   24  C   UNL     1     -44.210  61.091 -52.217  1.00  0.00     0.012 A 
ENDBRANCH  18  19
ENDBRANCH  15  18
ENDBRANCH  14  15
ENDBRANCH  11  14
ENDBRANCH   2  10
BRANCH   1  25
HETATM   25  C   UNL     1     -42.334  55.438 -54.270  1.00  0.00     0.259 C 
HETATM   26  N   UNL     1     -41.020  55.080 -54.021  1.00  0.00    -0.322 N 
HETATM   27  H   UNL     1     -40.350  55.552 -54.613  1.00  0.00     0.169 HD
HETATM   28  O   UNL     1     -43.337  54.761 -54.079  1.00  0.00    -0.267 OA
BRANCH  26  29
HETATM   29  C   UNL     1     -40.621  53.824 -53.516  1.00  0.00     0.041 A 
HETATM   30  C   UNL     1     -40.480  53.531 -52.151  1.00  0.00    -0.035 A 
HETATM   31  C   UNL     1     -40.121  52.221 -51.773  1.00  0.00     0.015 A 
HETATM   32  C   UNL     1     -40.634  54.552 -51.059  1.00  0.00     0.050 C 
HETATM   33  C   UNL     1     -39.849  51.231 -52.726  1.00  0.00    -0.061 A 
HETATM   34  C   UNL     1     -39.472  49.840 -52.309  1.00  0.00     0.048 C 
HETATM   35  C   UNL     1     -39.939  51.556 -54.079  1.00  0.00     0.009 A 
HETATM   36  C   UNL     1     -40.305  52.845 -54.470  1.00  0.00     0.030 A 
ENDBRANCH  26  29
ENDBRANCH   1  25
BRANCH   8  37
HETATM   37  C   UNL     1     -45.089  57.838 -59.103  1.00  0.00    -0.047 C 
HETATM   38  C   UNL     1     -45.799  58.110 -57.767  1.00  0.00     0.015 C 
HETATM   39  C   UNL     1     -45.572  58.906 -60.111  1.00  0.00     0.015 C 
HETATM   40  C   UNL     1     -45.585  56.471 -59.632  1.00  0.00     0.015 C 
ENDBRANCH   8  37
TORSDOF 8
ENDMDL
MODEL 2
REMARK VINA RESULT:      -8.8      2.397      6.686
REMARK  8 active torsions:
REMARK  status: ('A' for Active; 'I' for Inactive)
REMARK    1  A    between atoms: C_6  and  N_7 
REMARK       I    between atoms: N_7  and  C_8 
REMARK    2  A    between atoms: C_8  and  C_9 
REMARK    3  A    between atoms: C_10  and  N_11 
REMARK       I    between atoms: N_11  and  C_12 
REMARK    4  A    between atoms: C_12  and  C_13 
REMARK    5  A    between atoms: C_13  and  N_14 
REMARK    6  A    between atoms: N_14  and  C_17 
REMARK    7  A    between atoms: C_17  and  C_18 
REMARK    8  A    between atoms: C_30  and  C_31 
ROOT
HETATM    1  C   UNL     1     -43.344  58.457 -53.998  1.00  0.00     0.073 A 
HETATM    2  C   UNL     1     -43.732  59.046 -55.187  1.00  0.00     0.093 A 
HETATM    3  S   UNL     1     -45.074  60.082 -55.009  1.00  0.00    -0.075 SA
HETATM    4  C   UNL     1     -45.163  59.781 -53.344  1.00  0.00    -0.008 A 
HETATM    5  C   UNL     1     -44.218  58.873 -52.918  1.00  0.00    -0.026 A 
HETATM    6  C   UNL     1     -44.170  58.398 -51.494  1.00  0.00     0.041 C 
HETATM    7  C   UNL     1     -45.387  58.858 -50.667  1.00  0.00     0.010 C 
HETATM    8  C   UNL     1     -45.935  60.280 -50.985  1.00  0.00    -0.002 C 
HETATM    9  C   UNL     1     -46.238  60.389 -52.502  1.00  0.00     0.052 C 
ENDROOT
BRANCH   2  10
HETATM   10  N   UNL     1     -43.333  59.002 -56.504  1.00  0.00    -0.319 N 
HETATM   11  C   UNL     1     -42.174  59.544 -56.999  1.00  0.00     0.248 C 
HETATM   12  O   UNL     1     -41.414  60.329 -56.442  1.00  0.00    -0.271 OA
HETATM   13  H   UNL     1     -44.036  58.617 -57.128  1.00  0.00     0.169 HD
BRANCH  11  14
HETATM   14  C   UNL     1     -41.859  59.131 -58.433  1.00  0.00     0.335 C 
BRANCH  14  15
HETATM   15  N   UNL     1     -41.861  57.633 -58.581  1.00  0.00    -0.063 N 
HETATM   16  H   UNL     1     -41.000  57.227 -58.198  1.00  0.00     0.278 HD
HETATM   17  H   UNL     1     -42.638  57.278 -57.996  1.00  0.00     0.278 HD
BRANCH  15  18
HETATM   18  C   UNL     1     -42.094  57.122 -59.965  1.00  0.00     0.272 C 
BRANCH  18  19
HETATM   19  C   UNL     1     -43.487  56.593 -60.103  1.00  0.00    -0.015 A 
HETATM   20  C   UNL     1     -44.562  57.448 -60.313  1.00  0.00     0.125 A 
HETATM   21  N   UNL     1     -45.846  57.038 -60.368  1.00  0.00    -0.273 NA
HETATM   22  C   UNL     1     -46.084  55.715 -60.234  1.00  0.00     0.116 A 
HETATM   23  C   UNL     1     -45.086  54.780 -60.029  1.00  0.00     0.020 A 
HETATM   24  C   UNL     1     -43.769  55.226 -59.958  1.00  0.00     0.012 A 
ENDBRANCH  18  19
ENDBRANCH  15  18
ENDBRANCH  14  15
ENDBRANCH  11  14
ENDBRANCH   2  10
BRANCH   1  25
HETATM   25  C   UNL     1     -42.266  57.480 -53.852  1.00  0.00     0.259 C 
HETATM   26  N   UNL     1     -42.718  56.186 -54.040  1.00  0.00    -0.322 N 
HETATM   27  H   UNL     1     -43.711  56.073 -53.882  1.00  0.00     0.169 HD
HETATM   28  O   UNL     1     -41.140  57.834 -53.522  1.00  0.00    -0.267 OA
BRANCH  26  29
HETATM   29  C   UNL     1     -41.928  55.032 -53.847  1.00  0.00     0.041 A 
HETATM   30  C   UNL     1     -41.870  54.308 -52.646  1.00  0.00    -0.035 A 
HETATM   31  C   UNL     1     -41.078  53.142 -52.595  1.00  0.00     0.015 A 
HETATM   32  C   UNL     1     -42.559  54.736 -51.380  1.00  0.00     0.050 C 
HETATM   33  C   UNL     1     -40.312  52.728 -53.692  1.00  0.00    -0.061 A 
HETATM   34  C   UNL     1     -39.478  51.482 -53.626  1.00  0.00     0.048 C 
HETATM   35  C   UNL     1     -40.338  53.491 -54.859  1.00  0.00     0.009 A 
HETATM   36  C   UNL     1     -41.127  54.641 -54.929  1.00  0.00     0.030 A 
ENDBRANCH  26  29
ENDBRANCH   1  25
BRANCH   8  37
HETATM   37  C   UNL     1     -45.147  61.487 -50.337  1.00  0.00    -0.047 C 
HETATM   38  C   UNL     1     -43.873  61.893 -51.093  1.00  0.00     0.015 C 
HETATM   39  C   UNL     1     -46.043  62.742 -50.228  1.00  0.00     0.015 C 
HETATM   40  C   UNL     1     -44.738  61.107 -48.893  1.00  0.00     0.015 C 
ENDBRANCH   8  37
TORSDOF 8
ENDMDL
MODEL 3
REMARK VINA RESULT:      -8.4      1.933      3.438
REMARK  8 active torsions:
REMARK  status: ('A' for Active; 'I' for Inactive)
REMARK    1  A    between atoms: C_6  and  N_7 
REMARK       I    between atoms: N_7  and  C_8 
REMARK    2  A    between atoms: C_8  and  C_9 
REMARK    3  A    between atoms: C_10  and  N_11 
REMARK       I    between atoms: N_11  and  C_12 
REMARK    4  A    between atoms: C_12  and  C_13 
REMARK    5  A    between atoms: C_13  and  N_14 
REMARK    6  A    between atoms: N_14  and  C_17 
REMARK    7  A    between atoms: C_17  and  C_18 
REMARK    8  A    between atoms: C_30  and  C_31 
ROOT
HETATM    1  C   UNL     1     -43.570  57.500 -56.061  1.00  0.00     0.073 A 
HETATM    2  C   UNL     1     -44.535  58.442 -55.756  1.00  0.00     0.093 A 
HETATM    3  S   UNL     1     -45.400  58.975 -57.125  1.00  0.00    -0.075 SA
HETATM    4  C   UNL     1     -44.521  57.956 -58.154  1.00  0.00    -0.008 A 
HETATM    5  C   UNL     1     -43.547  57.243 -57.489  1.00  0.00    -0.026 A 
HETATM    6  C   UNL     1     -42.594  56.341 -58.221  1.00  0.00     0.041 C 
HETATM    7  C   UNL     1     -42.693  56.480 -59.753  1.00  0.00     0.010 C 
HETATM    8  C   UNL     1     -44.120  56.723 -60.329  1.00  0.00    -0.002 C 
HETATM    9  C   UNL     1     -44.756  57.953 -59.631  1.00  0.00     0.052 C 
ENDROOT
BRANCH   2  10
HETATM   10  N   UNL     1     -44.976  59.094 -54.627  1.00  0.00    -0.319 N 
HETATM   11  C   UNL     1     -44.507  60.302 -54.176  1.00  0.00     0.248 C 
HETATM   12  O   UNL     1     -43.500  60.900 -54.541  1.00  0.00    -0.271 OA
HETATM   13  H   UNL     1     -45.625  58.546 -54.069  1.00  0.00     0.169 HD
BRANCH  11  14
HETATM   14  C   UNL     1     -45.341  60.912 -53.055  1.00  0.00     0.335 C 
BRANCH  14  15
HETATM   15  N   UNL     1     -44.670  60.737 -51.719  1.00  0.00    -0.063 N 
HETATM   16  H   UNL     1     -43.791  61.266 -51.680  1.00  0.00     0.278 HD
HETATM   17  H   UNL     1     -45.299  61.161 -51.014  1.00  0.00     0.278 HD
BRANCH  15  18
HETATM   18  C   UNL     1     -44.433  59.324 -51.296  1.00  0.00     0.272 C 
BRANCH  18  19
HETATM   19  C   UNL     1     -42.968  59.024 -51.261  1.00  0.00    -0.015 A 
HETATM   20  C   UNL     1     -42.025  60.031 -51.439  1.00  0.00     0.125 A 
HETATM   21  N   UNL     1     -40.696  59.810 -51.494  1.00  0.00    -0.273 NA
HETATM   22  C   UNL     1     -40.268  58.537 -51.343  1.00  0.00     0.116 A 
HETATM   23  C   UNL     1     -41.121  57.466 -51.154  1.00  0.00     0.020 A 
HETATM   24  C   UNL     1     -42.491  57.713 -51.117  1.00  0.00     0.012 A 
ENDBRANCH  18  19
ENDBRANCH  15  18
ENDBRANCH  14  15
ENDBRANCH  11  14
ENDBRANCH   2  10
BRANCH   1  25
HETATM   25  C   UNL     1     -42.636  56.907 -55.105  1.00  0.00     0.259 C 
HETATM   26  N   UNL     1     -42.984  55.606 -54.787  1.00  0.00    -0.322 N 
HETATM   27  H   UNL     1     -43.961  55.396 -54.944  1.00  0.00     0.169 HD
HETATM   28  O   UNL     1     -41.724  57.571 -54.627  1.00  0.00    -0.267 OA
BRANCH  26  29
HETATM   29  C   UNL     1     -42.334  54.827 -53.807  1.00  0.00     0.041 A 
HETATM   30  C   UNL     1     -41.081  54.219 -53.985  1.00  0.00    -0.035 A 
HETATM   31  C   UNL     1     -40.516  53.505 -52.909  1.00  0.00     0.015 A 
HETATM   32  C   UNL     1     -40.324  54.235 -55.283  1.00  0.00     0.050 C 
HETATM   33  C   UNL     1     -41.199  53.343 -51.697  1.00  0.00    -0.061 A 
HETATM   34  C   UNL     1     -40.583  52.584 -50.558  1.00  0.00     0.048 C 
HETATM   35  C   UNL     1     -42.467  53.906 -51.557  1.00  0.00     0.009 A 
HETATM   36  C   UNL     1     -43.035  54.626 -52.609  1.00  0.00     0.030 A 
ENDBRANCH  26  29
ENDBRANCH   1  25
BRANCH   8  37
HETATM   37  C   UNL     1     -45.035  55.444 -60.473  1.00  0.00    -0.047 C 
HETATM   38  C   UNL     1     -46.520  55.686 -60.158  1.00  0.00     0.015 C 
HETATM   39  C   UNL     1     -44.952  54.858 -61.901  1.00  0.00     0.015 C 
HETATM   40  C   UNL     1     -44.523  54.344 -59.511  1.00  0.00     0.015 C 
ENDBRANCH   8  37
TORSDOF 8
ENDMDL
MODEL 4
REMARK VINA RESULT:      -8.2      2.554      6.155
REMARK  8 active torsions:
REMARK  status: ('A' for Active; 'I' for Inactive)
REMARK    1  A    between atoms: C_6  and  N_7 
REMARK       I    between atoms: N_7  and  C_8 
REMARK    2  A    between atoms: C_8  and  C_9 
REMARK    3  A    between atoms: C_10  and  N_11 
REMARK       I    between atoms: N_11  and  C_12 
REMARK    4  A    between atoms: C_12  and  C_13 
REMARK    5  A    between atoms: C_13  and  N_14 
REMARK    6  A    between atoms: N_14  and  C_17 
REMARK    7  A    between atoms: C_17  and  C_18 
REMARK    8  A    between atoms: C_30  and  C_31 
ROOT
HETATM    1  C   UNL     1     -42.081  56.470 -54.966  1.00  0.00     0.073 A 
HETATM    2  C   UNL     1     -42.456  56.901 -56.225  1.00  0.00     0.093 A 
HETATM    3  S   UNL     1     -43.638  58.129 -56.183  1.00  0.00    -0.075 SA
HETATM    4  C   UNL     1     -43.670  58.126 -54.489  1.00  0.00    -0.008 A 
HETATM    5  C   UNL     1     -42.830  57.179 -53.945  1.00  0.00    -0.026 A 
HETATM    6  C   UNL     1     -42.763  56.946 -52.462  1.00  0.00     0.041 C 
HETATM    7  C   UNL     1     -43.859  57.703 -51.686  1.00  0.00     0.010 C 
HETATM    8  C   UNL     1     -44.232  59.115 -52.227  1.00  0.00    -0.002 C 
HETATM    9  C   UNL     1     -44.606  59.010 -53.729  1.00  0.00     0.052 C 
ENDROOT
BRANCH   2  10
HETATM   10  N   UNL     1     -42.143  56.581 -57.527  1.00  0.00    -0.319 N 
HETATM   11  C   UNL     1     -43.051  56.411 -58.541  1.00  0.00     0.248 C 
HETATM   12  O   UNL     1     -44.269  56.292 -58.446  1.00  0.00    -0.271 OA
HETATM   13  H   UNL     1     -41.160  56.367 -57.667  1.00  0.00     0.169 HD
BRANCH  11  14
HETATM   14  C   UNL     1     -42.423  56.315 -59.926  1.00  0.00     0.335 C 
BRANCH  14  15
HETATM   15  N   UNL     1     -41.718  57.593 -60.294  1.00  0.00    -0.063 N 
HETATM   16  H   UNL     1     -40.925  57.767 -59.666  1.00  0.00     0.278 HD
HETATM   17  H   UNL     1     -41.319  57.450 -61.239  1.00  0.00     0.278 HD
BRANCH  15  18
HETATM   18  C   UNL     1     -42.584  58.808 -60.371  1.00  0.00     0.272 C 
BRANCH  18  19
HETATM   19  C   UNL     1     -41.882  59.992 -59.784  1.00  0.00    -0.015 A 
HETATM   20  C   UNL     1     -41.547  60.031 -58.435  1.00  0.00     0.125 A 
HETATM   21  N   UNL     1     -40.984  61.099 -57.834  1.00  0.00    -0.273 NA
HETATM   22  C   UNL     1     -40.713  62.176 -58.603  1.00  0.00     0.116 A 
HETATM   23  C   UNL     1     -40.998  62.237 -59.954  1.00  0.00     0.020 A 
HETATM   24  C   UNL     1     -41.595  61.130 -60.552  1.00  0.00     0.012 A 
ENDBRANCH  18  19
ENDBRANCH  15  18
ENDBRANCH  14  15
ENDBRANCH  11  14
ENDBRANCH   2  10
BRANCH   1  25
HETATM   25  C   UNL     1     -41.135  55.391 -54.689  1.00  0.00     0.259 C 
HETATM   26  N   UNL     1     -41.762  54.287 -54.138  1.00  0.00    -0.322 N 
HETATM   27  H   UNL     1     -42.641  54.502 -53.684  1.00  0.00     0.169 HD
HETATM   28  O   UNL     1     -39.934  55.547 -54.875  1.00  0.00    -0.267 OA
BRANCH  26  29
HETATM   29  C   UNL     1     -41.086  53.143 -53.663  1.00  0.00     0.041 A 
HETATM   30  C   UNL     1     -40.565  53.016 -52.366  1.00  0.00    -0.035 A 
HETATM   31  C   UNL     1     -39.952  51.801 -51.998  1.00  0.00     0.015 A 
HETATM   32  C   UNL     1     -40.567  54.127 -51.354  1.00  0.00     0.050 C 
HETATM   33  C   UNL     1     -39.805  50.748 -52.910  1.00  0.00    -0.061 A 
HETATM   34  C   UNL     1     -39.155  49.458 -52.503  1.00  0.00     0.048 C 
HETATM   35  C   UNL     1     -40.278  50.913 -54.212  1.00  0.00     0.009 A 
HETATM   36  C   UNL     1     -40.898  52.106 -54.588  1.00  0.00     0.030 A 
ENDBRANCH  26  29
ENDBRANCH   1  25
BRANCH   8  37
HETATM   37  C   UNL     1     -43.257  60.290 -51.826  1.00  0.00    -0.047 C 
HETATM   38  C   UNL     1     -43.959  61.530 -51.249  1.00  0.00     0.015 C 
HETATM   39  C   UNL     1     -42.217  59.818 -50.783  1.00  0.00     0.015 C 
HETATM   40  C   UNL     1     -42.461  60.737 -53.076  1.00  0.00     0.015 C 
ENDBRANCH   8  37
TORSDOF 8
ENDMDL
MODEL 5
REMARK VINA RESULT:      -8.2      2.940      6.805
REMARK  8 active torsions:
REMARK  status: ('A' for Active; 'I' for Inactive)
REMARK    1  A    between atoms: C_6  and  N_7 
REMARK       I    between atoms: N_7  and  C_8 
REMARK    2  A    between atoms: C_8  and  C_9 
REMARK    3  A    between atoms: C_10  and  N_11 
REMARK       I    between atoms: N_11  and  C_12 
REMARK    4  A    between atoms: C_12  and  C_13 
REMARK    5  A    between atoms: C_13  and  N_14 
REMARK    6  A    between atoms: N_14  and  C_17 
REMARK    7  A    between atoms: C_17  and  C_18 
REMARK    8  A    between atoms: C_30  and  C_31 
ROOT
HETATM    1  C   UNL     1     -44.217  57.140 -54.345  1.00  0.00     0.073 A 
HETATM    2  C   UNL     1     -44.595  57.673 -55.563  1.00  0.00     0.093 A 
HETATM    3  S   UNL     1     -45.221  59.254 -55.432  1.00  0.00    -0.075 SA
HETATM    4  C   UNL     1     -44.992  59.272 -53.754  1.00  0.00    -0.008 A 
HETATM    5  C   UNL     1     -44.486  58.082 -53.275  1.00  0.00    -0.026 A 
HETATM    6  C   UNL     1     -44.284  57.849 -51.804  1.00  0.00     0.041 C 
HETATM    7  C   UNL     1     -44.891  58.964 -50.931  1.00  0.00     0.010 C 
HETATM    8  C   UNL     1     -44.797  60.410 -51.500  1.00  0.00    -0.002 C 
HETATM    9  C   UNL     1     -45.408  60.445 -52.925  1.00  0.00     0.052 C 
ENDROOT
BRANCH   2  10
HETATM   10  N   UNL     1     -44.625  57.254 -56.874  1.00  0.00    -0.319 N 
HETATM   11  C   UNL     1     -43.523  56.988 -57.646  1.00  0.00     0.248 C 
HETATM   12  O   UNL     1     -42.353  57.272 -57.408  1.00  0.00    -0.271 OA
HETATM   13  H   UNL     1     -45.557  57.257 -57.280  1.00  0.00     0.169 HD
BRANCH  11  14
HETATM   14  C   UNL     1     -43.842  56.300 -58.968  1.00  0.00     0.335 C 
BRANCH  14  15
HETATM   15  N   UNL     1     -45.305  55.960 -59.066  1.00  0.00    -0.063 N 
HETATM   16  H   UNL     1     -45.534  55.157 -58.469  1.00  0.00     0.278 HD
HETATM   17  H   UNL     1     -45.824  56.769 -58.680  1.00  0.00     0.278 HD
BRANCH  15  18
HETATM   18  C   UNL     1     -45.824  55.732 -60.448  1.00  0.00     0.272 C 
BRANCH  18  19
HETATM   19  C   UNL     1     -46.787  56.811 -60.832  1.00  0.00    -0.015 A 
HETATM   20  C   UNL     1     -47.783  56.580 -61.774  1.00  0.00     0.125 A 
HETATM   21  N   UNL     1     -48.629  57.532 -62.217  1.00  0.00    -0.273 NA
HETATM   22  C   UNL     1     -48.507  58.770 -61.689  1.00  0.00     0.116 A 
HETATM   23  C   UNL     1     -47.556  59.102 -60.743  1.00  0.00     0.020 A 
HETATM   24  C   UNL     1     -46.680  58.109 -60.311  1.00  0.00     0.012 A 
ENDBRANCH  18  19
ENDBRANCH  15  18
ENDBRANCH  14  15
ENDBRANCH  11  14
ENDBRANCH   2  10
BRANCH   1  25
HETATM   25  C   UNL     1     -43.704  55.787 -54.137  1.00  0.00     0.259 C 
HETATM   26  N   UNL     1     -42.366  55.794 -53.786  1.00  0.00    -0.322 N 
HETATM   27  H   UNL     1     -41.873  56.629 -54.074  1.00  0.00     0.169 HD
HETATM   28  O   UNL     1     -44.413  54.809 -54.345  1.00  0.00    -0.267 OA
BRANCH  26  29
HETATM   29  C   UNL     1     -41.577  54.634 -53.636  1.00  0.00     0.041 A 
HETATM   30  C   UNL     1     -41.362  53.978 -52.414  1.00  0.00    -0.035 A 
HETATM   31  C   UNL     1     -40.592  52.797 -52.404  1.00  0.00     0.015 A 
HETATM   32  C   UNL     1     -41.858  54.495 -51.092  1.00  0.00     0.050 C 
HETATM   33  C   UNL     1     -39.997  52.301 -53.571  1.00  0.00    -0.061 A 
HETATM   34  C   UNL     1     -39.184  51.040 -53.547  1.00  0.00     0.048 C 
HETATM   35  C   UNL     1     -40.174  52.996 -54.767  1.00  0.00     0.009 A 
HETATM   36  C   UNL     1     -40.944  54.160 -54.795  1.00  0.00     0.030 A 
ENDBRANCH  26  29
ENDBRANCH   1  25
BRANCH   8  37
HETATM   37  C   UNL     1     -43.408  61.139 -51.313  1.00  0.00    -0.047 C 
HETATM   38  C   UNL     1     -43.486  62.468 -50.547  1.00  0.00     0.015 C 
HETATM   39  C   UNL     1     -42.400  60.232 -50.569  1.00  0.00     0.015 C 
HETATM   40  C   UNL     1     -42.798  61.432 -52.705  1.00  0.00     0.015 C 
ENDBRANCH   8  37
TORSDOF 8
ENDMDL
MODEL 6
REMARK VINA RESULT:      -8.1      2.423      6.619
REMARK  8 active torsions:
REMARK  status: ('A' for Active; 'I' for Inactive)
REMARK    1  A    between atoms: C_6  and  N_7 
REMARK       I    between atoms: N_7  and  C_8 
REMARK    2  A    between atoms: C_8  and  C_9 
REMARK    3  A    between atoms: C_10  and  N_11 
REMARK       I    between atoms: N_11  and  C_12 
REMARK    4  A    between atoms: C_12  and  C_13 
REMARK    5  A    between atoms: C_13  and  N_14 
REMARK    6  A    between atoms: N_14  and  C_17 
REMARK    7  A    between atoms: C_17  and  C_18 
REMARK    8  A    between atoms: C_30  and  C_31 
ROOT
HETATM    1  C   UNL     1     -43.363  57.593 -55.005  1.00  0.00     0.073 A 
HETATM    2  C   UNL     1     -43.488  58.223 -53.781  1.00  0.00     0.093 A 
HETATM    3  S   UNL     1     -43.351  57.149 -52.463  1.00  0.00    -0.075 SA
HETATM    4  C   UNL     1     -43.109  55.823 -53.489  1.00  0.00    -0.008 A 
HETATM    5  C   UNL     1     -43.171  56.166 -54.823  1.00  0.00    -0.026 A 
HETATM    6  C   UNL     1     -43.067  55.131 -55.906  1.00  0.00     0.041 C 
HETATM    7  C   UNL     1     -43.106  53.689 -55.364  1.00  0.00     0.010 C 
HETATM    8  C   UNL     1     -42.394  53.449 -54.000  1.00  0.00    -0.002 C 
HETATM    9  C   UNL     1     -42.951  54.439 -52.945  1.00  0.00     0.052 C 
ENDROOT
BRANCH   2  10
HETATM   10  N   UNL     1     -43.722  59.503 -53.333  1.00  0.00    -0.319 N 
HETATM   11  C   UNL     1     -42.756  60.446 -53.088  1.00  0.00     0.248 C 
HETATM   12  O   UNL     1     -41.543  60.275 -53.007  1.00  0.00    -0.271 OA
HETATM   13  H   UNL     1     -44.692  59.675 -53.083  1.00  0.00     0.169 HD
BRANCH  11  14
HETATM   14  C   UNL     1     -43.303  61.848 -52.847  1.00  0.00     0.335 C 
BRANCH  14  15
HETATM   15  N   UNL     1     -44.518  61.813 -51.959  1.00  0.00    -0.063 N 
HETATM   16  H   UNL     1     -45.377  61.909 -52.511  1.00  0.00     0.278 HD
HETATM   17  H   UNL     1     -44.546  60.870 -51.533  1.00  0.00     0.278 HD
BRANCH  15  18
HETATM   18  C   UNL     1     -44.522  62.796 -50.834  1.00  0.00     0.272 C 
BRANCH  18  19
HETATM   19  C   UNL     1     -44.880  62.121 -49.548  1.00  0.00    -0.015 A 
HETATM   20  C   UNL     1     -45.517  60.885 -49.539  1.00  0.00     0.125 A 
HETATM   21  N   UNL     1     -45.932  60.265 -48.416  1.00  0.00    -0.273 NA
HETATM   22  C   UNL     1     -45.688  60.879 -47.238  1.00  0.00     0.116 A 
HETATM   23  C   UNL     1     -45.056  62.104 -47.136  1.00  0.00     0.020 A 
HETATM   24  C   UNL     1     -44.650  62.736 -48.308  1.00  0.00     0.012 A 
ENDBRANCH  18  19
ENDBRANCH  15  18
ENDBRANCH  14  15
ENDBRANCH  11  14
ENDBRANCH   2  10
BRANCH   1  25
HETATM   25  C   UNL     1     -43.495  58.243 -56.307  1.00  0.00     0.259 C 
HETATM   26  N   UNL     1     -42.273  58.368 -56.945  1.00  0.00    -0.322 N 
HETATM   27  H   UNL     1     -41.481  58.347 -56.316  1.00  0.00     0.169 HD
HETATM   28  O   UNL     1     -44.578  58.671 -56.687  1.00  0.00    -0.267 OA
BRANCH  26  29
HETATM   29  C   UNL     1     -42.077  59.056 -58.161  1.00  0.00     0.041 A 
HETATM   30  C   UNL     1     -42.165  58.460 -59.429  1.00  0.00    -0.035 A 
HETATM   31  C   UNL     1     -41.997  59.269 -60.571  1.00  0.00     0.015 A 
HETATM   32  C   UNL     1     -42.373  56.987 -59.644  1.00  0.00     0.050 C 
HETATM   33  C   UNL     1     -41.690  60.631 -60.466  1.00  0.00    -0.061 A 
HETATM   34  C   UNL     1     -41.518  61.481 -61.690  1.00  0.00     0.048 C 
HETATM   35  C   UNL     1     -41.550  61.195 -59.198  1.00  0.00     0.009 A 
HETATM   36  C   UNL     1     -41.726  60.410 -58.057  1.00  0.00     0.030 A 
ENDBRANCH  26  29
ENDBRANCH   1  25
BRANCH   8  37
HETATM   37  C   UNL     1     -40.823  53.293 -54.057  1.00  0.00    -0.047 C 
HETATM   38  C   UNL     1     -40.133  54.187 -55.100  1.00  0.00     0.015 C 
HETATM   39  C   UNL     1     -40.183  53.601 -52.684  1.00  0.00     0.015 C 
HETATM   40  C   UNL     1     -40.472  51.822 -54.390  1.00  0.00     0.015 C 
ENDBRANCH   8  37
TORSDOF 8
ENDMDL
MODEL 7
REMARK VINA RESULT:      -8.0      3.110      6.844
REMARK  8 active torsions:
REMARK  status: ('A' for Active; 'I' for Inactive)
REMARK    1  A    between atoms: C_6  and  N_7 
REMARK       I    between atoms: N_7  and  C_8 
REMARK    2  A    between atoms: C_8  and  C_9 
REMARK    3  A    between atoms: C_10  and  N_11 
REMARK       I    between atoms: N_11  and  C_12 
REMARK    4  A    between atoms: C_12  and  C_13 
REMARK    5  A    between atoms: C_13  and  N_14 
REMARK    6  A    between atoms: N_14  and  C_17 
REMARK    7  A    between atoms: C_17  and  C_18 
REMARK    8  A    between atoms: C_30  and  C_31 
ROOT
HETATM    1  C   UNL     1     -43.157  58.400 -53.806  1.00  0.00     0.073 A 
HETATM    2  C   UNL     1     -43.394  59.034 -55.011  1.00  0.00     0.093 A 
HETATM    3  S   UNL     1     -44.714  60.112 -54.946  1.00  0.00    -0.075 SA
HETATM    4  C   UNL     1     -44.992  59.771 -53.311  1.00  0.00    -0.008 A 
HETATM    5  C   UNL     1     -44.129  58.818 -52.813  1.00  0.00    -0.026 A 
HETATM    6  C   UNL     1     -44.251  58.304 -51.407  1.00  0.00     0.041 C 
HETATM    7  C   UNL     1     -45.534  58.785 -50.702  1.00  0.00     0.010 C 
HETATM    8  C   UNL     1     -45.998  60.234 -51.034  1.00  0.00    -0.002 C 
HETATM    9  C   UNL     1     -46.132  60.394 -52.570  1.00  0.00     0.052 C 
ENDROOT
BRANCH   2  10
HETATM   10  N   UNL     1     -42.857  59.010 -56.278  1.00  0.00    -0.319 N 
HETATM   11  C   UNL     1     -42.947  57.961 -57.157  1.00  0.00     0.248 C 
HETATM   12  O   UNL     1     -43.309  56.812 -56.921  1.00  0.00    -0.271 OA
HETATM   13  H   UNL     1     -42.273  59.816 -56.487  1.00  0.00     0.169 HD
BRANCH  11  14
HETATM   14  C   UNL     1     -42.488  58.296 -58.572  1.00  0.00     0.335 C 
BRANCH  14  15
HETATM   15  N   UNL     1     -41.659  59.552 -58.593  1.00  0.00    -0.063 N 
HETATM   16  H   UNL     1     -41.315  59.778 -57.652  1.00  0.00     0.278 HD
HETATM   17  H   UNL     1     -40.824  59.346 -59.169  1.00  0.00     0.278 HD
BRANCH  15  18
HETATM   18  C   UNL     1     -42.317  60.749 -59.197  1.00  0.00     0.272 C 
BRANCH  18  19
HETATM   19  C   UNL     1     -41.293  61.684 -59.758  1.00  0.00    -0.015 A 
HETATM   20  C   UNL     1     -41.187  61.893 -61.129  1.00  0.00     0.125 A 
HETATM   21  N   UNL     1     -40.237  62.663 -61.697  1.00  0.00    -0.273 NA
HETATM   22  C   UNL     1     -39.359  63.280 -60.876  1.00  0.00     0.116 A 
HETATM   23  C   UNL     1     -39.382  63.144 -59.500  1.00  0.00     0.020 A 
HETATM   24  C   UNL     1     -40.360  62.332 -58.933  1.00  0.00     0.012 A 
ENDBRANCH  18  19
ENDBRANCH  15  18
ENDBRANCH  14  15
ENDBRANCH  11  14
ENDBRANCH   2  10
BRANCH   1  25
HETATM   25  C   UNL     1     -42.133  57.383 -53.574  1.00  0.00     0.259 C 
HETATM   26  N   UNL     1     -42.508  56.152 -54.084  1.00  0.00    -0.322 N 
HETATM   27  H   UNL     1     -43.508  56.043 -54.192  1.00  0.00     0.169 HD
HETATM   28  O   UNL     1     -41.125  57.643 -52.927  1.00  0.00    -0.267 OA
BRANCH  26  29
HETATM   29  C   UNL     1     -41.774  54.961 -53.907  1.00  0.00     0.041 A 
HETATM   30  C   UNL     1     -41.844  54.153 -52.762  1.00  0.00    -0.035 A 
HETATM   31  C   UNL     1     -41.095  52.959 -52.727  1.00  0.00     0.015 A 
HETATM   32  C   UNL     1     -42.631  54.515 -51.533  1.00  0.00     0.050 C 
HETATM   33  C   UNL     1     -40.246  52.595 -53.781  1.00  0.00    -0.061 A 
HETATM   34  C   UNL     1     -39.458  51.319 -53.733  1.00  0.00     0.048 C 
HETATM   35  C   UNL     1     -40.145  53.438 -54.887  1.00  0.00     0.009 A 
HETATM   36  C   UNL     1     -40.890  54.618 -54.941  1.00  0.00     0.030 A 
ENDBRANCH  26  29
ENDBRANCH   1  25
BRANCH   8  37
HETATM   37  C   UNL     1     -45.247  61.394 -50.269  1.00  0.00    -0.047 C 
HETATM   38  C   UNL     1     -43.873  61.756 -50.855  1.00  0.00     0.015 C 
HETATM   39  C   UNL     1     -46.096  62.686 -50.245  1.00  0.00     0.015 C 
HETATM   40  C   UNL     1     -45.035  60.974 -48.794  1.00  0.00     0.015 C 
ENDBRANCH   8  37
TORSDOF 8
ENDMDL
MODEL 8
REMARK VINA RESULT:      -7.9      2.443      6.174
REMARK  8 active torsions:
REMARK  status: ('A' for Active; 'I' for Inactive)
REMARK    1  A    between atoms: C_6  and  N_7 
REMARK       I    between atoms: N_7  and  C_8 
REMARK    2  A    between atoms: C_8  and  C_9 
REMARK    3  A    between atoms: C_10  and  N_11 
REMARK       I    between atoms: N_11  and  C_12 
REMARK    4  A    between atoms: C_12  and  C_13 
REMARK    5  A    between atoms: C_13  and  N_14 
REMARK    6  A    between atoms: N_14  and  C_17 
REMARK    7  A    between atoms: C_17  and  C_18 
REMARK    8  A    between atoms: C_30  and  C_31 
ROOT
HETATM    1  C   UNL     1     -44.059  56.779 -54.101  1.00  0.00     0.073 A 
HETATM    2  C   UNL     1     -44.302  57.274 -55.368  1.00  0.00     0.093 A 
HETATM    3  S   UNL     1     -44.965  58.845 -55.352  1.00  0.00    -0.075 SA
HETATM    4  C   UNL     1     -44.932  58.908 -53.659  1.00  0.00    -0.008 A 
HETATM    5  C   UNL     1     -44.466  57.741 -53.094  1.00  0.00    -0.026 A 
HETATM    6  C   UNL     1     -44.431  57.547 -51.605  1.00  0.00     0.041 C 
HETATM    7  C   UNL     1     -45.154  58.671 -50.837  1.00  0.00     0.010 C 
HETATM    8  C   UNL     1     -45.018  60.104 -51.429  1.00  0.00    -0.002 C 
HETATM    9  C   UNL     1     -45.461  60.093 -52.915  1.00  0.00     0.052 C 
ENDROOT
BRANCH   2  10
HETATM   10  N   UNL     1     -44.173  56.823 -56.662  1.00  0.00    -0.319 N 
HETATM   11  C   UNL     1     -43.053  56.962 -57.441  1.00  0.00     0.248 C 
HETATM   12  O   UNL     1     -42.076  57.675 -57.233  1.00  0.00    -0.271 OA
HETATM   13  H   UNL     1     -45.038  56.459 -57.053  1.00  0.00     0.169 HD
BRANCH  11  14
HETATM   14  C   UNL     1     -43.091  56.152 -58.733  1.00  0.00     0.335 C 
BRANCH  14  15
HETATM   15  N   UNL     1     -43.432  57.023 -59.912  1.00  0.00    -0.063 N 
HETATM   16  H   UNL     1     -43.107  57.985 -59.762  1.00  0.00     0.278 HD
HETATM   17  H   UNL     1     -42.897  56.654 -60.718  1.00  0.00     0.278 HD
BRANCH  15  18
HETATM   18  C   UNL     1     -44.871  57.028 -60.314  1.00  0.00     0.272 C 
BRANCH  18  19
HETATM   19  C   UNL     1     -45.616  58.104 -59.589  1.00  0.00    -0.015 A 
HETATM   20  C   UNL     1     -46.727  57.806 -58.808  1.00  0.00     0.125 A 
HETATM   21  N   UNL     1     -47.483  58.739 -58.195  1.00  0.00    -0.273 NA
HETATM   22  C   UNL     1     -47.114  60.031 -58.335  1.00  0.00     0.116 A 
HETATM   23  C   UNL     1     -46.023  60.434 -59.082  1.00  0.00     0.020 A 
HETATM   24  C   UNL     1     -45.266  59.456 -59.722  1.00  0.00     0.012 A 
ENDBRANCH  18  19
ENDBRANCH  15  18
ENDBRANCH  14  15
ENDBRANCH  11  14
ENDBRANCH   2  10
BRANCH   1  25
HETATM   25  C   UNL     1     -43.551  55.441 -53.800  1.00  0.00     0.259 C 
HETATM   26  N   UNL     1     -42.338  55.491 -53.135  1.00  0.00    -0.322 N 
HETATM   27  H   UNL     1     -41.829  56.352 -53.280  1.00  0.00     0.169 HD
HETATM   28  O   UNL     1     -44.144  54.443 -54.191  1.00  0.00    -0.267 OA
BRANCH  26  29
HETATM   29  C   UNL     1     -41.558  54.358 -52.820  1.00  0.00     0.041 A 
HETATM   30  C   UNL     1     -40.710  53.706 -53.729  1.00  0.00    -0.035 A 
HETATM   31  C   UNL     1     -39.945  52.612 -53.277  1.00  0.00     0.015 A 
HETATM   32  C   UNL     1     -40.611  54.069 -55.184  1.00  0.00     0.050 C 
HETATM   33  C   UNL     1     -40.054  52.133 -51.965  1.00  0.00    -0.061 A 
HETATM   34  C   UNL     1     -39.230  50.970 -51.496  1.00  0.00     0.048 C 
HETATM   35  C   UNL     1     -40.944  52.757 -51.091  1.00  0.00     0.009 A 
HETATM   36  C   UNL     1     -41.700  53.849 -51.521  1.00  0.00     0.030 A 
ENDBRANCH  26  29
ENDBRANCH   1  25
BRANCH   8  37
HETATM   37  C   UNL     1     -43.673  60.865 -51.102  1.00  0.00    -0.047 C 
HETATM   38  C   UNL     1     -42.467  59.945 -50.856  1.00  0.00     0.015 C 
HETATM   39  C   UNL     1     -43.292  61.836 -52.243  1.00  0.00     0.015 C 
HETATM   40  C   UNL     1     -43.875  61.728 -49.833  1.00  0.00     0.015 C 
ENDBRANCH   8  37
TORSDOF 8
ENDMDL
MODEL 9
REMARK VINA RESULT:      -7.8      1.989      7.528
REMARK  8 active torsions:
REMARK  status: ('A' for Active; 'I' for Inactive)
REMARK    1  A    between atoms: C_6  and  N_7 
REMARK       I    between atoms: N_7  and  C_8 
REMARK    2  A    between atoms: C_8  and  C_9 
REMARK    3  A    between atoms: C_10  and  N_11 
REMARK       I    between atoms: N_11  and  C_12 
REMARK    4  A    between atoms: C_12  and  C_13 
REMARK    5  A    between atoms: C_13  and  N_14 
REMARK    6  A    between atoms: N_14  and  C_17 
REMARK    7  A    between atoms: C_17  and  C_18 
REMARK    8  A    between atoms: C_30  and  C_31 
ROOT
HETATM    1  C   UNL     1     -42.562  58.209 -54.581  1.00  0.00     0.073 A 
HETATM    2  C   UNL     1     -42.339  56.860 -54.380  1.00  0.00     0.093 A 
HETATM    3  S   UNL     1     -42.810  55.903 -55.710  1.00  0.00    -0.075 SA
HETATM    4  C   UNL     1     -43.310  57.261 -56.589  1.00  0.00    -0.008 A 
HETATM    5  C   UNL     1     -43.169  58.434 -55.879  1.00  0.00    -0.026 A 
HETATM    6  C   UNL     1     -43.629  59.751 -56.437  1.00  0.00     0.041 C 
HETATM    7  C   UNL     1     -44.441  59.601 -57.738  1.00  0.00     0.010 C 
HETATM    8  C   UNL     1     -43.979  58.474 -58.709  1.00  0.00    -0.002 C 
HETATM    9  C   UNL     1     -43.925  57.125 -57.946  1.00  0.00     0.052 C 
ENDROOT
BRANCH   2  10
HETATM   10  N   UNL     1     -41.851  56.065 -53.367  1.00  0.00    -0.319 N 
HETATM   11  C   UNL     1     -42.420  55.926 -52.127  1.00  0.00     0.248 C 
HETATM   12  O   UNL     1     -43.300  56.616 -51.622  1.00  0.00    -0.271 OA
HETATM   13  H   UNL     1     -40.945  55.655 -53.573  1.00  0.00     0.169 HD
BRANCH  11  14
HETATM   14  C   UNL     1     -41.823  54.797 -51.294  1.00  0.00     0.335 C 
BRANCH  14  15
HETATM   15  N   UNL     1     -40.478  54.381 -51.825  1.00  0.00    -0.063 N 
HETATM   16  H   UNL     1     -40.510  54.257 -52.844  1.00  0.00     0.278 HD
HETATM   17  H   UNL     1     -39.831  55.169 -51.645  1.00  0.00     0.278 HD
BRANCH  15  18
HETATM   18  C   UNL     1     -39.877  53.173 -51.184  1.00  0.00     0.272 C 
BRANCH  18  19
HETATM   19  C   UNL     1     -39.904  52.010 -52.125  1.00  0.00    -0.015 A 
HETATM   20  C   UNL     1     -39.588  50.728 -51.689  1.00  0.00     0.125 A 
HETATM   21  N   UNL     1     -39.521  49.656 -52.504  1.00  0.00    -0.273 NA
HETATM   22  C   UNL     1     -39.803  49.847 -53.812  1.00  0.00     0.116 A 
HETATM   23  C   UNL     1     -40.136  51.079 -54.345  1.00  0.00     0.020 A 
HETATM   24  C   UNL     1     -40.182  52.176 -53.490  1.00  0.00     0.012 A 
ENDBRANCH  18  19
ENDBRANCH  15  18
ENDBRANCH  14  15
ENDBRANCH  11  14
ENDBRANCH   2  10
BRANCH   1  25
HETATM   25  C   UNL     1     -42.314  59.262 -53.597  1.00  0.00     0.259 C 
HETATM   26  N   UNL     1     -43.475  59.639 -52.945  1.00  0.00    -0.322 N 
HETATM   27  H   UNL     1     -44.319  59.431 -53.463  1.00  0.00     0.169 HD
HETATM   28  O   UNL     1     -41.200  59.758 -53.478  1.00  0.00    -0.267 OA
BRANCH  26  29
HETATM   29  C   UNL     1     -43.561  60.709 -52.030  1.00  0.00     0.041 A 
HETATM   30  C   UNL     1     -43.687  62.057 -52.401  1.00  0.00    -0.035 A 
HETATM   31  C   UNL     1     -43.813  63.030 -51.389  1.00  0.00     0.015 A 
HETATM   32  C   UNL     1     -43.637  62.538 -53.824  1.00  0.00     0.050 C 
HETATM   33  C   UNL     1     -43.759  62.687 -50.032  1.00  0.00    -0.061 A 
HETATM   34  C   UNL     1     -43.899  63.733 -48.964  1.00  0.00     0.048 C 
HETATM   35  C   UNL     1     -43.576  61.350 -49.681  1.00  0.00     0.009 A 
HETATM   36  C   UNL     1     -43.462  60.373 -50.672  1.00  0.00     0.030 A 
ENDBRANCH  26  29
ENDBRANCH   1  25
BRANCH   8  37
HETATM   37  C   UNL     1     -42.738  58.814 -59.625  1.00  0.00    -0.047 C 
HETATM   38  C   UNL     1     -41.725  59.779 -58.989  1.00  0.00     0.015 C 
HETATM   39  C   UNL     1     -41.972  57.531 -60.022  1.00  0.00     0.015 C 
HETATM   40  C   UNL     1     -43.240  59.457 -60.940  1.00  0.00     0.015 C 
ENDBRANCH   8  37
TORSDOF 8
ENDMDL
MODEL 10
REMARK VINA RESULT:      -7.8      1.880      2.695
REMARK  8 active torsions:
REMARK  status: ('A' for Active; 'I' for Inactive)
REMARK    1  A    between atoms: C_6  and  N_7 
REMARK       I    between atoms: N_7  and  C_8 
REMARK    2  A    between atoms: C_8  and  C_9 
REMARK    3  A    between atoms: C_10  and  N_11 
REMARK       I    between atoms: N_11  and  C_12 
REMARK    4  A    between atoms: C_12  and  C_13 
REMARK    5  A    between atoms: C_13  and  N_14 
REMARK    6  A    between atoms: N_14  and  C_17 
REMARK    7  A    between atoms: C_17  and  C_18 
REMARK    8  A    between atoms: C_30  and  C_31 
ROOT
HETATM    1  C   UNL     1     -43.578  57.087 -54.937  1.00  0.00     0.073 A 
HETATM    2  C   UNL     1     -43.795  58.283 -54.280  1.00  0.00     0.093 A 
HETATM    3  S   UNL     1     -44.039  59.592 -55.345  1.00  0.00    -0.075 SA
HETATM    4  C   UNL     1     -43.875  58.597 -56.705  1.00  0.00    -0.008 A 
HETATM    5  C   UNL     1     -43.595  57.288 -56.374  1.00  0.00    -0.026 A 
HETATM    6  C   UNL     1     -43.328  56.250 -57.427  1.00  0.00     0.041 C 
HETATM    7  C   UNL     1     -43.192  56.851 -58.840  1.00  0.00     0.010 C 
HETATM    8  C   UNL     1     -44.122  58.056 -59.166  1.00  0.00    -0.002 C 
HETATM    9  C   UNL     1     -43.938  59.157 -58.090  1.00  0.00     0.052 C 
ENDROOT
BRANCH   2  10
HETATM   10  N   UNL     1     -43.843  58.713 -52.973  1.00  0.00    -0.319 N 
HETATM   11  C   UNL     1     -42.752  58.942 -52.174  1.00  0.00     0.248 C 
HETATM   12  O   UNL     1     -41.588  58.612 -52.378  1.00  0.00    -0.271 OA
HETATM   13  H   UNL     1     -44.785  58.749 -52.592  1.00  0.00     0.169 HD
BRANCH  11  14
HETATM   14  C   UNL     1     -43.080  59.652 -50.865  1.00  0.00     0.335 C 
BRANCH  14  15
HETATM   15  N   UNL     1     -44.221  60.618 -51.040  1.00  0.00    -0.063 N 
HETATM   16  H   UNL     1     -43.895  61.587 -50.958  1.00  0.00     0.278 HD
HETATM   17  H   UNL     1     -44.560  60.503 -52.012  1.00  0.00     0.278 HD
BRANCH  15  18
HETATM   18  C   UNL     1     -45.395  60.398 -50.144  1.00  0.00     0.272 C 
BRANCH  18  19
HETATM   19  C   UNL     1     -45.341  61.323 -48.969  1.00  0.00    -0.015 A 
HETATM   20  C   UNL     1     -45.102  62.682 -49.137  1.00  0.00     0.125 A 
HETATM   21  N   UNL     1     -44.966  63.550 -48.113  1.00  0.00    -0.273 NA
HETATM   22  C   UNL     1     -45.095  63.062 -46.860  1.00  0.00     0.116 A 
HETATM   23  C   UNL     1     -45.340  61.730 -46.585  1.00  0.00     0.020 A 
HETATM   24  C   UNL     1     -45.460  60.847 -47.654  1.00  0.00     0.012 A 
ENDBRANCH  18  19
ENDBRANCH  15  18
ENDBRANCH  14  15
ENDBRANCH  11  14
ENDBRANCH   2  10
BRANCH   1  25
HETATM   25  C   UNL     1     -43.281  55.809 -54.291  1.00  0.00     0.259 C 
HETATM   26  N   UNL     1     -42.000  55.784 -53.768  1.00  0.00    -0.322 N 
HETATM   27  H   UNL     1     -41.370  56.445 -54.203  1.00  0.00     0.169 HD
HETATM   28  O   UNL     1     -44.091  54.890 -54.319  1.00  0.00    -0.267 OA
BRANCH  26  29
HETATM   29  C   UNL     1     -41.400  54.645 -53.191  1.00  0.00     0.041 A 
HETATM   30  C   UNL     1     -40.595  53.736 -53.895  1.00  0.00    -0.035 A 
HETATM   31  C   UNL     1     -40.012  52.662 -53.192  1.00  0.00     0.015 A 
HETATM   32  C   UNL     1     -40.362  53.803 -55.379  1.00  0.00     0.050 C 
HETATM   33  C   UNL     1     -40.263  52.455 -51.830  1.00  0.00    -0.061 A 
HETATM   34  C   UNL     1     -39.631  51.311 -51.092  1.00  0.00     0.048 C 
HETATM   35  C   UNL     1     -41.110  53.337 -51.159  1.00  0.00     0.009 A 
HETATM   36  C   UNL     1     -41.686  54.412 -51.838  1.00  0.00     0.030 A 
ENDBRANCH  26  29
ENDBRANCH   1  25
BRANCH   8  37
HETATM   37  C   UNL     1     -45.610  57.696 -59.556  1.00  0.00    -0.047 C 
HETATM   38  C   UNL     1     -45.791  56.286 -60.138  1.00  0.00     0.015 C 
HETATM   39  C   UNL     1     -46.551  57.821 -58.336  1.00  0.00     0.015 C 
HETATM   40  C   UNL     1     -46.116  58.710 -60.612  1.00  0.00     0.015 C 
ENDBRANCH   8  37
TORSDOF 8
ENDMDL
