MODEL 1
REMARK VINA RESULT:      -7.6      0.000      0.000
REMARK  2 active torsions:
REMARK  status: ('A' for Active; 'I' for Inactive)
REMARK    1  A    between atoms: C_2  and  C_3 
REMARK    2  A    between atoms: C_4  and  N_5 
ROOT
HETATM    1  N   UNL     1     -42.271  55.475 -51.646  1.00  0.00    -0.321 N 
HETATM    2  C   UNL     1     -43.647  55.444 -51.245  1.00  0.00     0.141 C 
HETATM    3  N   UNL     1     -44.305  54.327 -51.103  1.00  0.00    -0.380 N 
HETATM    4  H   UNL     1     -43.821  53.452 -51.254  1.00  0.00     0.158 HD
HETATM    5  H   UNL     1     -45.279  54.349 -50.837  1.00  0.00     0.158 HD
HETATM    6  S   UNL     1     -44.344  57.010 -51.046  1.00  0.00    -0.086 SA
HETATM    7  C   UNL     1     -43.010  57.725 -52.061  1.00  0.00     0.093 C 
HETATM    8  C   UNL     1     -41.781  56.867 -51.694  1.00  0.00     0.121 C 
HETATM    9  C   UNL     1     -42.560  59.154 -51.883  1.00  0.00     0.158 C 
HETATM   10  S   UNL     1     -40.907  59.107 -52.608  1.00  0.00     0.147 S 
HETATM   11  O   UNL     1     -40.986  59.603 -53.965  1.00  0.00    -0.228 OA
HETATM   12  O   UNL     1     -39.971  59.633 -51.637  1.00  0.00    -0.228 OA
HETATM   13  C   UNL     1     -40.717  57.314 -52.669  1.00  0.00     0.167 C 
ENDROOT
BRANCH   1  14
HETATM   14  C   UNL     1     -41.654  54.512 -52.456  1.00  0.00     0.043 A 
HETATM   15  C   UNL     1     -40.860  53.459 -51.957  1.00  0.00    -0.028 A 
HETATM   16  C   UNL     1     -40.308  52.550 -52.895  1.00  0.00     0.010 A 
HETATM   17  C   UNL     1     -40.532  52.663 -54.266  1.00  0.00     0.001 A 
HETATM   18  C   UNL     1     -41.326  53.690 -54.746  1.00  0.00     0.002 A 
HETATM   19  C   UNL     1     -41.881  54.600 -53.850  1.00  0.00     0.030 A 
BRANCH  15  20
HETATM   20  C   UNL     1     -40.556  53.135 -50.493  1.00  0.00     0.013 C 
HETATM   21  C   UNL     1     -39.533  53.998 -49.755  1.00  0.00     0.015 C 
HETATM   22  C   UNL     1     -40.206  51.651 -50.318  1.00  0.00     0.015 C 
ENDBRANCH  15  20
ENDBRANCH   1  14
TORSDOF 2
ENDMDL
MODEL 2
REMARK VINA RESULT:      -7.4      0.817      2.651
REMARK  2 active torsions:
REMARK  status: ('A' for Active; 'I' for Inactive)
REMARK    1  A    between atoms: C_2  and  C_3 
REMARK    2  A    between atoms: C_4  and  N_5 
ROOT
HETATM    1  N   UNL     1     -42.228  55.390 -51.333  1.00  0.00    -0.321 N 
HETATM    2  C   UNL     1     -43.643  55.378 -51.097  1.00  0.00     0.141 C 
HETATM    3  N   UNL     1     -44.315  54.270 -50.957  1.00  0.00    -0.380 N 
HETATM    4  H   UNL     1     -43.818  53.390 -50.988  1.00  0.00     0.158 HD
HETATM    5  H   UNL     1     -45.314  54.304 -50.811  1.00  0.00     0.158 HD
HETATM    6  S   UNL     1     -44.356  56.950 -51.093  1.00  0.00    -0.086 SA
HETATM    7  C   UNL     1     -42.908  57.600 -51.990  1.00  0.00     0.093 C 
HETATM    8  C   UNL     1     -41.734  56.778 -51.420  1.00  0.00     0.121 C 
HETATM    9  C   UNL     1     -42.480  59.042 -51.859  1.00  0.00     0.158 C 
HETATM   10  S   UNL     1     -40.752  58.955 -52.378  1.00  0.00     0.147 S 
HETATM   11  O   UNL     1     -40.668  59.354 -53.766  1.00  0.00    -0.228 OA
HETATM   12  O   UNL     1     -39.939  59.553 -51.341  1.00  0.00    -0.228 OA
HETATM   13  C   UNL     1     -40.560  57.163 -52.290  1.00  0.00     0.167 C 
ENDROOT
BRANCH   1  14
HETATM   14  C   UNL     1     -41.521  54.377 -51.994  1.00  0.00     0.043 A 
HETATM   15  C   UNL     1     -41.640  54.107 -53.372  1.00  0.00    -0.028 A 
HETATM   16  C   UNL     1     -40.851  53.058 -53.909  1.00  0.00     0.010 A 
HETATM   17  C   UNL     1     -39.974  52.309 -53.126  1.00  0.00     0.001 A 
HETATM   18  C   UNL     1     -39.851  52.591 -51.777  1.00  0.00     0.002 A 
HETATM   19  C   UNL     1     -40.613  53.615 -51.221  1.00  0.00     0.030 A 
BRANCH  15  20
HETATM   20  C   UNL     1     -42.494  54.857 -54.397  1.00  0.00     0.013 C 
HETATM   21  C   UNL     1     -43.427  54.047 -55.297  1.00  0.00     0.015 C 
HETATM   22  C   UNL     1     -41.632  55.795 -55.253  1.00  0.00     0.015 C 
ENDBRANCH  15  20
ENDBRANCH   1  14
TORSDOF 2
ENDMDL
MODEL 3
REMARK VINA RESULT:      -7.2      1.629      2.115
REMARK  2 active torsions:
REMARK  status: ('A' for Active; 'I' for Inactive)
REMARK    1  A    between atoms: C_2  and  C_3 
REMARK    2  A    between atoms: C_4  and  N_5 
ROOT
HETATM    1  N   UNL     1     -42.801  56.174 -53.047  1.00  0.00    -0.321 N 
HETATM    2  C   UNL     1     -43.899  56.657 -53.834  1.00  0.00     0.141 C 
HETATM    3  N   UNL     1     -44.570  55.882 -54.640  1.00  0.00    -0.380 N 
HETATM    4  H   UNL     1     -44.327  54.902 -54.691  1.00  0.00     0.158 HD
HETATM    5  H   UNL     1     -45.324  56.265 -55.192  1.00  0.00     0.158 HD
HETATM    6  S   UNL     1     -44.182  58.350 -53.660  1.00  0.00    -0.086 SA
HETATM    7  C   UNL     1     -42.492  58.558 -53.009  1.00  0.00     0.093 C 
HETATM    8  C   UNL     1     -42.253  57.260 -52.210  1.00  0.00     0.121 C 
HETATM    9  C   UNL     1     -42.144  59.676 -52.057  1.00  0.00     0.158 C 
HETATM   10  S   UNL     1     -40.642  59.038 -51.283  1.00  0.00     0.147 S 
HETATM   11  O   UNL     1     -39.498  59.629 -51.943  1.00  0.00    -0.228 OA
HETATM   12  O   UNL     1     -40.823  59.076 -49.847  1.00  0.00    -0.228 OA
HETATM   13  C   UNL     1     -40.792  57.326 -51.831  1.00  0.00     0.167 C 
ENDROOT
BRANCH   1  14
HETATM   14  C   UNL     1     -41.963  55.113 -53.412  1.00  0.00     0.043 A 
HETATM   15  C   UNL     1     -41.740  53.977 -52.608  1.00  0.00    -0.028 A 
HETATM   16  C   UNL     1     -40.875  52.973 -53.112  1.00  0.00     0.010 A 
HETATM   17  C   UNL     1     -40.260  53.074 -54.359  1.00  0.00     0.001 A 
HETATM   18  C   UNL     1     -40.498  54.185 -55.149  1.00  0.00     0.002 A 
HETATM   19  C   UNL     1     -41.342  55.188 -54.681  1.00  0.00     0.030 A 
BRANCH  15  20
HETATM   20  C   UNL     1     -42.370  53.658 -51.250  1.00  0.00     0.013 C 
HETATM   21  C   UNL     1     -43.842  54.009 -51.032  1.00  0.00     0.015 C 
HETATM   22  C   UNL     1     -41.525  54.228 -50.103  1.00  0.00     0.015 C 
ENDBRANCH  15  20
ENDBRANCH   1  14
TORSDOF 2
ENDMDL
MODEL 4
REMARK VINA RESULT:      -6.7     15.722     17.346
REMARK  2 active torsions:
REMARK  status: ('A' for Active; 'I' for Inactive)
REMARK    1  A    between atoms: C_2  and  C_3 
REMARK    2  A    between atoms: C_4  and  N_5 
ROOT
HETATM    1  N   UNL     1     -37.042  40.380 -55.833  1.00  0.00    -0.321 N 
HETATM    2  C   UNL     1     -37.788  41.046 -54.804  1.00  0.00     0.141 C 
HETATM    3  N   UNL     1     -38.985  41.518 -55.009  1.00  0.00    -0.380 N 
HETATM    4  H   UNL     1     -39.414  41.387 -55.915  1.00  0.00     0.158 HD
HETATM    5  H   UNL     1     -39.470  41.998 -54.264  1.00  0.00     0.158 HD
HETATM    6  S   UNL     1     -36.920  41.216 -53.322  1.00  0.00    -0.086 SA
HETATM    7  C   UNL     1     -35.355  40.945 -54.216  1.00  0.00     0.093 C 
HETATM    8  C   UNL     1     -35.738  39.927 -55.310  1.00  0.00     0.121 C 
HETATM    9  C   UNL     1     -34.146  40.353 -53.532  1.00  0.00     0.158 C 
HETATM   10  S   UNL     1     -33.199  39.737 -54.941  1.00  0.00     0.147 S 
HETATM   11  O   UNL     1     -32.180  40.710 -55.270  1.00  0.00    -0.228 OA
HETATM   12  O   UNL     1     -32.901  38.339 -54.709  1.00  0.00    -0.228 OA
HETATM   13  C   UNL     1     -34.506  39.843 -56.180  1.00  0.00     0.167 C 
ENDROOT
BRANCH   1  14
HETATM   14  C   UNL     1     -37.169  40.638 -57.204  1.00  0.00     0.043 A 
HETATM   15  C   UNL     1     -37.579  39.675 -58.149  1.00  0.00    -0.028 A 
HETATM   16  C   UNL     1     -37.675  40.081 -59.504  1.00  0.00     0.010 A 
HETATM   17  C   UNL     1     -37.389  41.382 -59.915  1.00  0.00     0.001 A 
HETATM   18  C   UNL     1     -37.003  42.326 -58.979  1.00  0.00     0.002 A 
HETATM   19  C   UNL     1     -36.899  41.956 -57.641  1.00  0.00     0.030 A 
BRANCH  15  20
HETATM   20  C   UNL     1     -37.994  38.227 -57.882  1.00  0.00     0.013 C 
HETATM   21  C   UNL     1     -36.912  37.222 -57.485  1.00  0.00     0.015 C 
HETATM   22  C   UNL     1     -38.820  37.666 -59.047  1.00  0.00     0.015 C 
ENDBRANCH  15  20
ENDBRANCH   1  14
TORSDOF 2
ENDMDL
MODEL 5
REMARK VINA RESULT:      -6.7      1.719      2.977
REMARK  2 active torsions:
REMARK  status: ('A' for Active; 'I' for Inactive)
REMARK    1  A    between atoms: C_2  and  C_3 
REMARK    2  A    between atoms: C_4  and  N_5 
ROOT
HETATM    1  N   UNL     1     -43.077  55.771 -52.767  1.00  0.00    -0.321 N 
HETATM    2  C   UNL     1     -43.837  55.537 -53.960  1.00  0.00     0.141 C 
HETATM    3  N   UNL     1     -44.340  54.369 -54.247  1.00  0.00    -0.380 N 
HETATM    4  H   UNL     1     -44.214  53.609 -53.592  1.00  0.00     0.158 HD
HETATM    5  H   UNL     1     -44.852  54.240 -55.107  1.00  0.00     0.158 HD
HETATM    6  S   UNL     1     -43.948  56.918 -54.990  1.00  0.00    -0.086 SA
HETATM    7  C   UNL     1     -42.502  57.648 -54.154  1.00  0.00     0.093 C 
HETATM    8  C   UNL     1     -42.662  57.185 -52.691  1.00  0.00     0.121 C 
HETATM    9  C   UNL     1     -42.306  59.142 -54.076  1.00  0.00     0.158 C 
HETATM   10  S   UNL     1     -41.178  59.286 -52.673  1.00  0.00     0.147 S 
HETATM   11  O   UNL     1     -39.829  59.424 -53.179  1.00  0.00    -0.228 OA
HETATM   12  O   UNL     1     -41.755  60.213 -51.722  1.00  0.00    -0.228 OA
HETATM   13  C   UNL     1     -41.374  57.613 -52.028  1.00  0.00     0.167 C 
ENDROOT
BRANCH   1  14
HETATM   14  C   UNL     1     -42.306  54.803 -52.108  1.00  0.00     0.043 A 
HETATM   15  C   UNL     1     -41.393  53.950 -52.761  1.00  0.00    -0.028 A 
HETATM   16  C   UNL     1     -40.670  53.027 -51.964  1.00  0.00     0.010 A 
HETATM   17  C   UNL     1     -40.831  52.948 -50.582  1.00  0.00     0.001 A 
HETATM   18  C   UNL     1     -41.718  53.799 -49.947  1.00  0.00     0.002 A 
HETATM   19  C   UNL     1     -42.442  54.717 -50.703  1.00  0.00     0.030 A 
BRANCH  15  20
HETATM   20  C   UNL     1     -41.035  53.933 -54.248  1.00  0.00     0.013 C 
HETATM   21  C   UNL     1     -40.431  52.657 -54.835  1.00  0.00     0.015 C 
HETATM   22  C   UNL     1     -40.163  55.139 -54.621  1.00  0.00     0.015 C 
ENDBRANCH  15  20
ENDBRANCH   1  14
TORSDOF 2
ENDMDL
MODEL 6
REMARK VINA RESULT:      -6.4      2.735      4.080
REMARK  2 active torsions:
REMARK  status: ('A' for Active; 'I' for Inactive)
REMARK    1  A    between atoms: C_2  and  C_3 
REMARK    2  A    between atoms: C_4  and  N_5 
ROOT
HETATM    1  N   UNL     1     -41.645  56.806 -52.976  1.00  0.00    -0.321 N 
HETATM    2  C   UNL     1     -41.034  57.993 -52.452  1.00  0.00     0.141 C 
HETATM    3  N   UNL     1     -40.611  58.073 -51.222  1.00  0.00    -0.380 N 
HETATM    4  H   UNL     1     -40.691  57.261 -50.624  1.00  0.00     0.158 HD
HETATM    5  H   UNL     1     -40.204  58.934 -50.886  1.00  0.00     0.158 HD
HETATM    6  S   UNL     1     -40.988  59.300 -53.579  1.00  0.00    -0.086 SA
HETATM    7  C   UNL     1     -42.302  58.497 -54.554  1.00  0.00     0.093 C 
HETATM    8  C   UNL     1     -41.996  56.993 -54.398  1.00  0.00     0.121 C 
HETATM    9  C   UNL     1     -42.432  58.721 -56.040  1.00  0.00     0.158 C 
HETATM   10  S   UNL     1     -43.389  57.273 -56.542  1.00  0.00     0.147 S 
HETATM   11  O   UNL     1     -44.780  57.658 -56.652  1.00  0.00    -0.228 OA
HETATM   12  O   UNL     1     -42.674  56.607 -57.610  1.00  0.00    -0.228 OA
HETATM   13  C   UNL     1     -43.185  56.309 -55.031  1.00  0.00     0.167 C 
ENDROOT
BRANCH   1  14
HETATM   14  C   UNL     1     -42.373  55.881 -52.216  1.00  0.00     0.043 A 
HETATM   15  C   UNL     1     -42.075  54.504 -52.159  1.00  0.00    -0.028 A 
HETATM   16  C   UNL     1     -42.890  53.687 -51.336  1.00  0.00     0.010 A 
HETATM   17  C   UNL     1     -43.950  54.201 -50.591  1.00  0.00     0.001 A 
HETATM   18  C   UNL     1     -44.226  55.556 -50.638  1.00  0.00     0.002 A 
HETATM   19  C   UNL     1     -43.443  56.384 -51.439  1.00  0.00     0.030 A 
BRANCH  15  20
HETATM   20  C   UNL     1     -40.922  53.772 -52.849  1.00  0.00     0.013 C 
HETATM   21  C   UNL     1     -41.197  53.077 -54.183  1.00  0.00     0.015 C 
HETATM   22  C   UNL     1     -40.234  52.794 -51.887  1.00  0.00     0.015 C 
ENDBRANCH  15  20
ENDBRANCH   1  14
TORSDOF 2
ENDMDL
MODEL 7
REMARK VINA RESULT:      -6.2      2.871      5.330
REMARK  2 active torsions:
REMARK  status: ('A' for Active; 'I' for Inactive)
REMARK    1  A    between atoms: C_2  and  C_3 
REMARK    2  A    between atoms: C_4  and  N_5 
ROOT
HETATM    1  N   UNL     1     -42.676  55.667 -51.400  1.00  0.00    -0.321 N 
HETATM    2  C   UNL     1     -41.645  55.104 -50.577  1.00  0.00     0.141 C 
HETATM    3  N   UNL     1     -41.431  55.506 -49.357  1.00  0.00    -0.380 N 
HETATM    4  H   UNL     1     -42.030  56.221 -48.966  1.00  0.00     0.158 HD
HETATM    5  H   UNL     1     -40.682  55.097 -48.817  1.00  0.00     0.158 HD
HETATM    6  S   UNL     1     -40.691  53.913 -51.386  1.00  0.00    -0.086 SA
HETATM    7  C   UNL     1     -41.252  54.565 -52.993  1.00  0.00     0.093 C 
HETATM    8  C   UNL     1     -42.707  54.999 -52.716  1.00  0.00     0.121 C 
HETATM    9  C   UNL     1     -41.329  53.688 -54.218  1.00  0.00     0.158 C 
HETATM   10  S   UNL     1     -42.492  54.607 -55.249  1.00  0.00     0.147 S 
HETATM   11  O   UNL     1     -41.740  55.388 -56.207  1.00  0.00    -0.228 OA
HETATM   12  O   UNL     1     -43.559  53.709 -55.638  1.00  0.00    -0.228 OA
HETATM   13  C   UNL     1     -43.120  55.721 -53.977  1.00  0.00     0.167 C 
ENDROOT
BRANCH   1  14
HETATM   14  C   UNL     1     -43.149  56.982 -51.297  1.00  0.00     0.043 A 
HETATM   15  C   UNL     1     -42.337  58.123 -51.458  1.00  0.00    -0.028 A 
HETATM   16  C   UNL     1     -42.956  59.393 -51.339  1.00  0.00     0.010 A 
HETATM   17  C   UNL     1     -44.318  59.539 -51.082  1.00  0.00     0.001 A 
HETATM   18  C   UNL     1     -45.111  58.414 -50.942  1.00  0.00     0.002 A 
HETATM   19  C   UNL     1     -44.532  57.153 -51.052  1.00  0.00     0.030 A 
BRANCH  15  20
HETATM   20  C   UNL     1     -40.848  58.164 -51.805  1.00  0.00     0.013 C 
HETATM   21  C   UNL     1     -39.921  59.007 -50.929  1.00  0.00     0.015 C 
HETATM   22  C   UNL     1     -40.635  58.523 -53.282  1.00  0.00     0.015 C 
ENDBRANCH  15  20
ENDBRANCH   1  14
TORSDOF 2
ENDMDL
MODEL 8
REMARK VINA RESULT:      -6.2      2.694      4.384
REMARK  2 active torsions:
REMARK  status: ('A' for Active; 'I' for Inactive)
REMARK    1  A    between atoms: C_2  and  C_3 
REMARK    2  A    between atoms: C_4  and  N_5 
ROOT
HETATM    1  N   UNL     1     -41.659  58.042 -51.632  1.00  0.00    -0.321 N 
HETATM    2  C   UNL     1     -40.725  58.949 -51.030  1.00  0.00     0.141 C 
HETATM    3  N   UNL     1     -39.488  58.615 -50.789  1.00  0.00    -0.380 N 
HETATM    4  H   UNL     1     -39.169  57.694 -51.060  1.00  0.00     0.158 HD
HETATM    5  H   UNL     1     -38.867  59.276 -50.346  1.00  0.00     0.158 HD
HETATM    6  S   UNL     1     -41.418  60.470 -50.601  1.00  0.00    -0.086 SA
HETATM    7  C   UNL     1     -43.079  59.723 -50.664  1.00  0.00     0.093 C 
HETATM    8  C   UNL     1     -42.969  58.698 -51.812  1.00  0.00     0.121 C 
HETATM    9  C   UNL     1     -44.304  60.544 -50.984  1.00  0.00     0.158 C 
HETATM   10  S   UNL     1     -45.461  59.270 -51.531  1.00  0.00     0.147 S 
HETATM   11  O   UNL     1     -46.330  58.932 -50.424  1.00  0.00    -0.228 OA
HETATM   12  O   UNL     1     -45.966  59.647 -52.835  1.00  0.00    -0.228 OA
HETATM   13  C   UNL     1     -44.270  57.933 -51.747  1.00  0.00     0.167 C 
ENDROOT
BRANCH   1  14
HETATM   14  C   UNL     1     -41.613  56.647 -51.504  1.00  0.00     0.043 A 
HETATM   15  C   UNL     1     -41.386  55.768 -52.583  1.00  0.00    -0.028 A 
HETATM   16  C   UNL     1     -41.353  54.378 -52.302  1.00  0.00     0.010 A 
HETATM   17  C   UNL     1     -41.526  53.872 -51.016  1.00  0.00     0.001 A 
HETATM   18  C   UNL     1     -41.731  54.743 -49.960  1.00  0.00     0.002 A 
HETATM   19  C   UNL     1     -41.770  56.113 -50.204  1.00  0.00     0.030 A 
BRANCH  15  20
HETATM   20  C   UNL     1     -41.113  56.135 -54.042  1.00  0.00     0.013 C 
HETATM   21  C   UNL     1     -42.288  56.583 -54.911  1.00  0.00     0.015 C 
HETATM   22  C   UNL     1     -40.335  55.021 -54.755  1.00  0.00     0.015 C 
ENDBRANCH  15  20
ENDBRANCH   1  14
TORSDOF 2
ENDMDL
MODEL 9
REMARK VINA RESULT:      -6.1      3.082      5.627
REMARK  2 active torsions:
REMARK  status: ('A' for Active; 'I' for Inactive)
REMARK    1  A    between atoms: C_2  and  C_3 
REMARK    2  A    between atoms: C_4  and  N_5 
ROOT
HETATM    1  N   UNL     1     -42.021  55.814 -52.725  1.00  0.00    -0.321 N 
HETATM    2  C   UNL     1     -42.341  54.908 -53.790  1.00  0.00     0.141 C 
HETATM    3  N   UNL     1     -43.073  55.264 -54.808  1.00  0.00    -0.380 N 
HETATM    4  H   UNL     1     -43.404  56.218 -54.862  1.00  0.00     0.158 HD
HETATM    5  H   UNL     1     -43.293  54.590 -55.528  1.00  0.00     0.158 HD
HETATM    6  S   UNL     1     -41.728  53.313 -53.547  1.00  0.00    -0.086 SA
HETATM    7  C   UNL     1     -41.552  53.659 -51.767  1.00  0.00     0.093 C 
HETATM    8  C   UNL     1     -41.156  55.150 -51.728  1.00  0.00     0.121 C 
HETATM    9  C   UNL     1     -40.516  52.955 -50.924  1.00  0.00     0.158 C 
HETATM   10  S   UNL     1     -40.356  54.088 -49.527  1.00  0.00     0.147 S 
HETATM   11  O   UNL     1     -41.166  53.590 -48.436  1.00  0.00    -0.228 OA
HETATM   12  O   UNL     1     -38.955  54.420 -49.372  1.00  0.00    -0.228 OA
HETATM   13  C   UNL     1     -41.200  55.503 -50.261  1.00  0.00     0.167 C 
ENDROOT
BRANCH   1  14
HETATM   14  C   UNL     1     -42.830  56.881 -52.314  1.00  0.00     0.043 A 
HETATM   15  C   UNL     1     -42.576  58.229 -52.638  1.00  0.00    -0.028 A 
HETATM   16  C   UNL     1     -43.490  59.204 -52.164  1.00  0.00     0.010 A 
HETATM   17  C   UNL     1     -44.613  58.870 -51.408  1.00  0.00     0.001 A 
HETATM   18  C   UNL     1     -44.864  57.542 -51.108  1.00  0.00     0.002 A 
HETATM   19  C   UNL     1     -43.984  56.562 -51.559  1.00  0.00     0.030 A 
BRANCH  15  20
HETATM   20  C   UNL     1     -41.441  58.781 -53.503  1.00  0.00     0.013 C 
HETATM   21  C   UNL     1     -40.057  58.935 -52.873  1.00  0.00     0.015 C 
HETATM   22  C   UNL     1     -41.852  60.094 -54.182  1.00  0.00     0.015 C 
ENDBRANCH  15  20
ENDBRANCH   1  14
TORSDOF 2
ENDMDL
MODEL 10
REMARK VINA RESULT:      -6.1      3.135      4.023
REMARK  2 active torsions:
REMARK  status: ('A' for Active; 'I' for Inactive)
REMARK    1  A    between atoms: C_2  and  C_3 
REMARK    2  A    between atoms: C_4  and  N_5 
ROOT
HETATM    1  N   UNL     1     -42.504  58.221 -53.153  1.00  0.00    -0.321 N 
HETATM    2  C   UNL     1     -41.277  58.741 -52.620  1.00  0.00     0.141 C 
HETATM    3  N   UNL     1     -40.113  58.283 -52.982  1.00  0.00    -0.380 N 
HETATM    4  H   UNL     1     -40.070  57.555 -53.683  1.00  0.00     0.158 HD
HETATM    5  H   UNL     1     -39.273  58.663 -52.569  1.00  0.00     0.158 HD
HETATM    6  S   UNL     1     -41.508  59.961 -51.421  1.00  0.00    -0.086 SA
HETATM    7  C   UNL     1     -43.220  59.385 -51.175  1.00  0.00     0.093 C 
HETATM    8  C   UNL     1     -43.658  58.948 -52.588  1.00  0.00     0.121 C 
HETATM    9  C   UNL     1     -44.306  60.317 -50.696  1.00  0.00     0.158 C 
HETATM   10  S   UNL     1     -45.793  59.451 -51.245  1.00  0.00     0.147 S 
HETATM   11  O   UNL     1     -46.333  58.710 -50.125  1.00  0.00    -0.228 OA
HETATM   12  O   UNL     1     -46.588  60.372 -52.029  1.00  0.00    -0.228 OA
HETATM   13  C   UNL     1     -44.998  58.285 -52.368  1.00  0.00     0.167 C 
ENDROOT
BRANCH   1  14
HETATM   14  C   UNL     1     -42.685  56.906 -53.600  1.00  0.00     0.043 A 
HETATM   15  C   UNL     1     -42.714  55.784 -52.748  1.00  0.00    -0.028 A 
HETATM   16  C   UNL     1     -42.919  54.512 -53.340  1.00  0.00     0.010 A 
HETATM   17  C   UNL     1     -43.097  54.348 -54.713  1.00  0.00     0.001 A 
HETATM   18  C   UNL     1     -43.084  55.456 -55.541  1.00  0.00     0.002 A 
HETATM   19  C   UNL     1     -42.883  56.719 -54.988  1.00  0.00     0.030 A 
BRANCH  15  20
HETATM   20  C   UNL     1     -42.602  55.771 -51.222  1.00  0.00     0.013 C 
HETATM   21  C   UNL     1     -41.210  55.691 -50.595  1.00  0.00     0.015 C 
HETATM   22  C   UNL     1     -43.509  54.693 -50.611  1.00  0.00     0.015 C 
ENDBRANCH  15  20
ENDBRANCH   1  14
TORSDOF 2
ENDMDL
