MODEL 1
REMARK VINA RESULT:      -7.6      0.000      0.000
REMARK  8 active torsions:
REMARK  status: ('A' for Active; 'I' for Inactive)
REMARK    1  A    between atoms: C_3  and  C_4 
REMARK    2  A    between atoms: C_4  and  C_5 
REMARK       I    between atoms: C_5  and  N_6 
REMARK    3  A    between atoms: N_6  and  C_7 
REMARK    4  A    between atoms: C_14  and  N_15 
REMARK       I    between atoms: N_15  and  C_16 
REMARK    5  A    between atoms: C_16  and  C_17 
REMARK    6  A    between atoms: C_26  and  C_27 
REMARK    7  A    between atoms: C_27  and  O_28 
REMARK    8  A    between atoms: C_30  and  O_31 
ROOT
HETATM    1  C   UNL     1     -45.295  54.841 -60.319  1.00  0.00     0.216 C 
HETATM    2  C   UNL     1     -46.420  55.802 -60.668  1.00  0.00    -0.098 C 
HETATM    3  C   UNL     1     -47.384  56.627 -60.966  1.00  0.00     0.014 C 
ENDROOT
BRANCH   1   4
HETATM    4  N   UNL     1     -44.544  55.260 -59.160  1.00  0.00    -0.351 N 
HETATM    5  C   UNL     1     -43.302  55.847 -59.325  1.00  0.00     0.219 C 
HETATM    6  O   UNL     1     -42.900  56.228 -60.419  1.00  0.00    -0.274 OA
HETATM    7  H   UNL     1     -44.817  54.902 -58.255  1.00  0.00     0.163 HD
BRANCH   5   8
HETATM    8  C   UNL     1     -42.514  56.029 -58.040  1.00  0.00     0.114 C 
BRANCH   8   9
HETATM    9  C   UNL     1     -43.146  57.013 -57.011  1.00  0.00     0.056 C 
HETATM   10  C   UNL     1     -43.276  58.547 -57.481  1.00  0.00    -0.030 C 
HETATM   11  C   UNL     1     -41.979  58.966 -58.239  1.00  0.00     0.016 C 
HETATM   12  C   UNL     1     -43.461  59.532 -56.237  1.00  0.00     0.012 C 
HETATM   13  C   UNL     1     -44.446  58.773 -58.492  1.00  0.00     0.013 C 
HETATM   14  C   UNL     1     -42.249  59.451 -55.275  1.00  0.00     0.055 C 
HETATM   15  C   UNL     1     -44.897  59.504 -55.530  1.00  0.00     0.008 C 
HETATM   16  C   UNL     1     -41.949  58.031 -54.973  1.00  0.00     0.012 C 
HETATM   17  C   UNL     1     -42.364  56.934 -55.703  1.00  0.00     0.056 C 
HETATM   18  S   UNL     1     -41.113  57.543 -53.575  1.00  0.00    -0.055 SA
HETATM   19  N   UNL     1     -42.175  55.721 -55.054  1.00  0.00    -0.227 NA
HETATM   20  C   UNL     1     -41.608  55.939 -53.894  1.00  0.00     0.174 C 
HETATM   21  C   UNL     1     -45.150  60.936 -54.972  1.00  0.00     0.020 C 
HETATM   22  C   UNL     1     -46.017  59.211 -56.575  1.00  0.00     0.128 C 
HETATM   23  C   UNL     1     -45.603  59.629 -57.979  1.00  0.00     0.033 C 
BRANCH  20  24
HETATM   24  N   UNL     1     -41.438  55.124 -52.816  1.00  0.00    -0.300 N 
HETATM   25  C   UNL     1     -42.278  55.146 -51.730  1.00  0.00     0.281 C 
HETATM   26  O   UNL     1     -43.431  55.560 -51.709  1.00  0.00    -0.265 OA
HETATM   27  H   UNL     1     -40.507  54.755 -52.680  1.00  0.00     0.171 HD
BRANCH  25  28
HETATM   28  C   UNL     1     -41.610  54.649 -50.536  1.00  0.00     0.142 A 
HETATM   29  O   UNL     1     -41.056  53.390 -50.556  1.00  0.00    -0.317 OA
HETATM   30  C   UNL     1     -40.446  53.201 -49.358  1.00  0.00     0.143 A 
HETATM   31  C   UNL     1     -40.593  54.312 -48.562  1.00  0.00     0.027 A 
HETATM   32  C   UNL     1     -41.347  55.243 -49.316  1.00  0.00     0.045 A 
ENDBRANCH  25  28
ENDBRANCH  20  24
BRANCH  15  33
HETATM   33  C   UNL     1     -45.069  58.517 -54.343  1.00  0.00     0.176 C 
BRANCH  33  34
HETATM   34  O   UNL     1     -45.001  59.164 -53.076  1.00  0.00    -0.400 OA
HETATM   35  H   UNL     1     -44.062  59.155 -52.821  1.00  0.00     0.209 HD
ENDBRANCH  33  34
ENDBRANCH  15  33
BRANCH  22  36
HETATM   36  O   UNL     1     -46.357  57.826 -56.576  1.00  0.00    -0.395 OA
HETATM   37  H   UNL     1     -46.024  57.417 -57.394  1.00  0.00     0.210 HD
ENDBRANCH  22  36
ENDBRANCH   8   9
ENDBRANCH   5   8
ENDBRANCH   1   4
TORSDOF 8
ENDMDL
MODEL 2
REMARK VINA RESULT:      -7.5      2.995      4.874
REMARK  8 active torsions:
REMARK  status: ('A' for Active; 'I' for Inactive)
REMARK    1  A    between atoms: C_3  and  C_4 
REMARK    2  A    between atoms: C_4  and  C_5 
REMARK       I    between atoms: C_5  and  N_6 
REMARK    3  A    between atoms: N_6  and  C_7 
REMARK    4  A    between atoms: C_14  and  N_15 
REMARK       I    between atoms: N_15  and  C_16 
REMARK    5  A    between atoms: C_16  and  C_17 
REMARK    6  A    between atoms: C_26  and  C_27 
REMARK    7  A    between atoms: C_27  and  O_28 
REMARK    8  A    between atoms: C_30  and  O_31 
ROOT
HETATM    1  C   UNL     1     -41.023  54.657 -54.359  1.00  0.00     0.216 C 
HETATM    2  C   UNL     1     -40.615  53.192 -54.362  1.00  0.00    -0.098 C 
HETATM    3  C   UNL     1     -40.266  51.937 -54.366  1.00  0.00     0.014 C 
ENDROOT
BRANCH   1   4
HETATM    4  N   UNL     1     -41.359  55.145 -55.674  1.00  0.00    -0.351 N 
HETATM    5  C   UNL     1     -42.670  55.087 -56.113  1.00  0.00     0.219 C 
HETATM    6  O   UNL     1     -43.602  54.840 -55.354  1.00  0.00    -0.274 OA
HETATM    7  H   UNL     1     -40.611  55.290 -56.339  1.00  0.00     0.163 HD
BRANCH   5   8
HETATM    8  C   UNL     1     -42.859  55.408 -57.584  1.00  0.00     0.114 C 
BRANCH   8   9
HETATM    9  C   UNL     1     -43.689  56.694 -57.879  1.00  0.00     0.056 C 
HETATM   10  C   UNL     1     -44.035  56.978 -59.426  1.00  0.00    -0.030 C 
HETATM   11  C   UNL     1     -42.782  56.662 -60.300  1.00  0.00     0.016 C 
HETATM   12  C   UNL     1     -44.434  58.505 -59.669  1.00  0.00     0.012 C 
HETATM   13  C   UNL     1     -45.173  56.057 -59.971  1.00  0.00     0.013 C 
HETATM   14  C   UNL     1     -43.276  59.456 -59.278  1.00  0.00     0.055 C 
HETATM   15  C   UNL     1     -45.882  58.942 -59.143  1.00  0.00     0.008 C 
HETATM   16  C   UNL     1     -42.772  59.097 -57.931  1.00  0.00     0.012 C 
HETATM   17  C   UNL     1     -42.972  57.897 -57.275  1.00  0.00     0.056 C 
HETATM   18  S   UNL     1     -41.942  60.196 -56.934  1.00  0.00    -0.055 SA
HETATM   19  N   UNL     1     -42.628  57.926 -55.931  1.00  0.00    -0.227 NA
HETATM   20  C   UNL     1     -42.161  59.112 -55.632  1.00  0.00     0.174 C 
HETATM   21  C   UNL     1     -46.385  60.067 -60.097  1.00  0.00     0.020 C 
HETATM   22  C   UNL     1     -46.888  57.756 -59.259  1.00  0.00     0.128 C 
HETATM   23  C   UNL     1     -46.475  56.767 -60.339  1.00  0.00     0.033 C 
BRANCH  20  24
HETATM   24  N   UNL     1     -41.920  59.699 -54.427  1.00  0.00    -0.300 N 
HETATM   25  C   UNL     1     -41.153  59.107 -53.454  1.00  0.00     0.281 C 
HETATM   26  O   UNL     1     -40.310  58.234 -53.621  1.00  0.00    -0.265 OA
HETATM   27  H   UNL     1     -42.581  60.406 -54.136  1.00  0.00     0.171 HD
BRANCH  25  28
HETATM   28  C   UNL     1     -41.496  59.611 -52.132  1.00  0.00     0.142 A 
HETATM   29  O   UNL     1     -40.741  59.222 -51.051  1.00  0.00    -0.317 OA
HETATM   30  C   UNL     1     -41.225  59.878 -49.966  1.00  0.00     0.143 A 
HETATM   31  C   UNL     1     -42.279  60.685 -50.322  1.00  0.00     0.027 A 
HETATM   32  C   UNL     1     -42.460  60.510 -51.715  1.00  0.00     0.045 A 
ENDBRANCH  25  28
ENDBRANCH  20  24
BRANCH  15  33
HETATM   33  C   UNL     1     -45.957  59.504 -57.697  1.00  0.00     0.176 C 
BRANCH  33  34
HETATM   34  O   UNL     1     -47.294  59.756 -57.274  1.00  0.00    -0.400 OA
HETATM   35  H   UNL     1     -47.827  59.019 -57.618  1.00  0.00     0.209 HD
ENDBRANCH  33  34
ENDBRANCH  15  33
BRANCH  22  36
HETATM   36  O   UNL     1     -47.006  57.070 -58.014  1.00  0.00    -0.395 OA
HETATM   37  H   UNL     1     -47.881  57.255 -57.629  1.00  0.00     0.210 HD
ENDBRANCH  22  36
ENDBRANCH   8   9
ENDBRANCH   5   8
ENDBRANCH   1   4
TORSDOF 8
ENDMDL
MODEL 3
REMARK VINA RESULT:      -7.4      3.017      7.807
REMARK  8 active torsions:
REMARK  status: ('A' for Active; 'I' for Inactive)
REMARK    1  A    between atoms: C_3  and  C_4 
REMARK    2  A    between atoms: C_4  and  C_5 
REMARK       I    between atoms: C_5  and  N_6 
REMARK    3  A    between atoms: N_6  and  C_7 
REMARK    4  A    between atoms: C_14  and  N_15 
REMARK       I    between atoms: N_15  and  C_16 
REMARK    5  A    between atoms: C_16  and  C_17 
REMARK    6  A    between atoms: C_26  and  C_27 
REMARK    7  A    between atoms: C_27  and  O_28 
REMARK    8  A    between atoms: C_30  and  O_31 
ROOT
HETATM    1  C   UNL     1     -39.887  52.312 -52.575  1.00  0.00     0.216 C 
HETATM    2  C   UNL     1     -39.717  51.123 -53.507  1.00  0.00    -0.098 C 
HETATM    3  C   UNL     1     -39.572  50.103 -54.306  1.00  0.00     0.014 C 
ENDROOT
BRANCH   1   4
HETATM    4  N   UNL     1     -41.165  52.963 -52.730  1.00  0.00    -0.351 N 
HETATM    5  C   UNL     1     -41.240  54.181 -53.383  1.00  0.00     0.219 C 
HETATM    6  O   UNL     1     -40.301  54.633 -54.029  1.00  0.00    -0.274 OA
HETATM    7  H   UNL     1     -41.937  52.650 -52.157  1.00  0.00     0.163 HD
BRANCH   5   8
HETATM    8  C   UNL     1     -42.588  54.872 -53.279  1.00  0.00     0.114 C 
BRANCH   8   9
HETATM    9  C   UNL     1     -42.525  56.422 -53.126  1.00  0.00     0.056 C 
HETATM   10  C   UNL     1     -42.808  57.003 -51.652  1.00  0.00    -0.030 C 
HETATM   11  C   UNL     1     -43.994  56.221 -51.008  1.00  0.00     0.016 C 
HETATM   12  C   UNL     1     -43.202  58.551 -51.694  1.00  0.00     0.012 C 
HETATM   13  C   UNL     1     -41.599  56.809 -50.682  1.00  0.00     0.013 C 
HETATM   14  C   UNL     1     -44.488  58.778 -52.529  1.00  0.00     0.055 C 
HETATM   15  C   UNL     1     -42.005  59.570 -51.995  1.00  0.00     0.008 C 
HETATM   16  C   UNL     1     -44.365  58.077 -53.830  1.00  0.00     0.012 C 
HETATM   17  C   UNL     1     -43.482  57.058 -54.130  1.00  0.00     0.056 C 
HETATM   18  S   UNL     1     -45.257  58.526 -55.206  1.00  0.00    -0.055 SA
HETATM   19  N   UNL     1     -43.393  56.771 -55.485  1.00  0.00    -0.227 NA
HETATM   20  C   UNL     1     -44.217  57.547 -56.144  1.00  0.00     0.174 C 
HETATM   21  C   UNL     1     -42.344  60.894 -51.247  1.00  0.00     0.020 C 
HETATM   22  C   UNL     1     -40.667  59.034 -51.398  1.00  0.00     0.128 C 
HETATM   23  C   UNL     1     -40.907  58.093 -50.227  1.00  0.00     0.033 C 
BRANCH  20  24
HETATM   24  N   UNL     1     -44.325  57.811 -57.475  1.00  0.00    -0.300 N 
HETATM   25  C   UNL     1     -43.362  58.499 -58.174  1.00  0.00     0.281 C 
HETATM   26  O   UNL     1     -42.186  58.629 -57.860  1.00  0.00    -0.265 OA
HETATM   27  H   UNL     1     -45.259  57.794 -57.859  1.00  0.00     0.171 HD
BRANCH  25  28
HETATM   28  C   UNL     1     -43.924  59.130 -59.360  1.00  0.00     0.142 A 
HETATM   29  O   UNL     1     -43.073  59.662 -60.300  1.00  0.00    -0.317 OA
HETATM   30  C   UNL     1     -43.839  60.123 -61.321  1.00  0.00     0.143 A 
HETATM   31  C   UNL     1     -45.171  59.901 -61.061  1.00  0.00     0.027 A 
HETATM   32  C   UNL     1     -45.228  59.267 -59.796  1.00  0.00     0.045 A 
ENDBRANCH  25  28
ENDBRANCH  20  24
BRANCH  15  33
HETATM   33  C   UNL     1     -41.761  59.938 -53.484  1.00  0.00     0.176 C 
BRANCH  33  34
HETATM   34  O   UNL     1     -42.144  61.275 -53.789  1.00  0.00    -0.400 OA
HETATM   35  H   UNL     1     -42.685  61.221 -54.596  1.00  0.00     0.209 HD
ENDBRANCH  33  34
ENDBRANCH  15  33
BRANCH  22  36
HETATM   36  O   UNL     1     -39.903  58.359 -52.396  1.00  0.00    -0.395 OA
HETATM   37  H   UNL     1     -38.981  58.669 -52.357  1.00  0.00     0.210 HD
ENDBRANCH  22  36
ENDBRANCH   8   9
ENDBRANCH   5   8
ENDBRANCH   1   4
TORSDOF 8
ENDMDL
MODEL 4
REMARK VINA RESULT:      -7.3      3.401      6.246
REMARK  8 active torsions:
REMARK  status: ('A' for Active; 'I' for Inactive)
REMARK    1  A    between atoms: C_3  and  C_4 
REMARK    2  A    between atoms: C_4  and  C_5 
REMARK       I    between atoms: C_5  and  N_6 
REMARK    3  A    between atoms: N_6  and  C_7 
REMARK    4  A    between atoms: C_14  and  N_15 
REMARK       I    between atoms: N_15  and  C_16 
REMARK    5  A    between atoms: C_16  and  C_17 
REMARK    6  A    between atoms: C_26  and  C_27 
REMARK    7  A    between atoms: C_27  and  O_28 
REMARK    8  A    between atoms: C_30  and  O_31 
ROOT
HETATM    1  C   UNL     1     -42.809  62.502 -50.231  1.00  0.00     0.216 C 
HETATM    2  C   UNL     1     -43.272  63.326 -51.423  1.00  0.00    -0.098 C 
HETATM    3  C   UNL     1     -43.669  64.031 -52.444  1.00  0.00     0.014 C 
ENDROOT
BRANCH   1   4
HETATM    4  N   UNL     1     -43.139  61.104 -50.359  1.00  0.00    -0.351 N 
HETATM    5  C   UNL     1     -42.190  60.217 -50.836  1.00  0.00     0.219 C 
HETATM    6  O   UNL     1     -41.009  60.525 -50.952  1.00  0.00    -0.274 OA
HETATM    7  H   UNL     1     -44.113  60.836 -50.335  1.00  0.00     0.163 HD
BRANCH   5   8
HETATM    8  C   UNL     1     -42.722  58.829 -51.145  1.00  0.00     0.114 C 
BRANCH   8   9
HETATM    9  C   UNL     1     -42.813  58.478 -52.661  1.00  0.00     0.056 C 
HETATM   10  C   UNL     1     -44.052  59.117 -53.466  1.00  0.00    -0.030 C 
HETATM   11  C   UNL     1     -45.337  59.032 -52.586  1.00  0.00     0.016 C 
HETATM   12  C   UNL     1     -44.335  58.335 -54.830  1.00  0.00     0.012 C 
HETATM   13  C   UNL     1     -43.853  60.635 -53.777  1.00  0.00     0.013 C 
HETATM   14  C   UNL     1     -44.683  56.850 -54.561  1.00  0.00     0.055 C 
HETATM   15  C   UNL     1     -43.285  58.588 -56.012  1.00  0.00     0.008 C 
HETATM   16  C   UNL     1     -43.678  56.263 -53.643  1.00  0.00     0.012 C 
HETATM   17  C   UNL     1     -42.814  56.961 -52.821  1.00  0.00     0.056 C 
HETATM   18  S   UNL     1     -43.370  54.592 -53.559  1.00  0.00    -0.055 SA
HETATM   19  N   UNL     1     -41.803  56.182 -52.275  1.00  0.00    -0.227 NA
HETATM   20  C   UNL     1     -41.953  54.943 -52.673  1.00  0.00     0.174 C 
HETATM   21  C   UNL     1     -44.074  58.454 -57.348  1.00  0.00     0.020 C 
HETATM   22  C   UNL     1     -42.728  60.043 -55.949  1.00  0.00     0.128 C 
HETATM   23  C   UNL     1     -43.697  60.990 -55.255  1.00  0.00     0.033 C 
BRANCH  20  24
HETATM   24  N   UNL     1     -41.109  53.877 -52.609  1.00  0.00    -0.300 N 
HETATM   25  C   UNL     1     -40.440  53.393 -53.707  1.00  0.00     0.281 C 
HETATM   26  O   UNL     1     -40.189  54.008 -54.736  1.00  0.00    -0.265 OA
HETATM   27  H   UNL     1     -41.246  53.247 -51.830  1.00  0.00     0.171 HD
BRANCH  25  28
HETATM   28  C   UNL     1     -40.085  51.992 -53.533  1.00  0.00     0.142 A 
HETATM   29  O   UNL     1     -39.741  51.540 -52.280  1.00  0.00    -0.317 OA
HETATM   30  C   UNL     1     -39.523  50.204 -52.381  1.00  0.00     0.143 A 
HETATM   31  C   UNL     1     -39.719  49.781 -53.674  1.00  0.00     0.027 A 
HETATM   32  C   UNL     1     -40.074  50.931 -54.418  1.00  0.00     0.045 A 
ENDBRANCH  25  28
ENDBRANCH  20  24
BRANCH  15  33
HETATM   33  C   UNL     1     -42.082  57.609 -56.094  1.00  0.00     0.176 C 
BRANCH  33  34
HETATM   34  O   UNL     1     -42.197  56.687 -57.173  1.00  0.00    -0.400 OA
HETATM   35  H   UNL     1     -41.314  56.637 -57.578  1.00  0.00     0.209 HD
ENDBRANCH  33  34
ENDBRANCH  15  33
BRANCH  22  36
HETATM   36  O   UNL     1     -41.473  60.074 -55.272  1.00  0.00    -0.395 OA
HETATM   37  H   UNL     1     -41.148  60.992 -55.244  1.00  0.00     0.210 HD
ENDBRANCH  22  36
ENDBRANCH   8   9
ENDBRANCH   5   8
ENDBRANCH   1   4
TORSDOF 8
ENDMDL
MODEL 5
REMARK VINA RESULT:      -7.3      2.554      3.706
REMARK  8 active torsions:
REMARK  status: ('A' for Active; 'I' for Inactive)
REMARK    1  A    between atoms: C_3  and  C_4 
REMARK    2  A    between atoms: C_4  and  C_5 
REMARK       I    between atoms: C_5  and  N_6 
REMARK    3  A    between atoms: N_6  and  C_7 
REMARK    4  A    between atoms: C_14  and  N_15 
REMARK       I    between atoms: N_15  and  C_16 
REMARK    5  A    between atoms: C_16  and  C_17 
REMARK    6  A    between atoms: C_26  and  C_27 
REMARK    7  A    between atoms: C_27  and  O_28 
REMARK    8  A    between atoms: C_30  and  O_31 
ROOT
HETATM    1  C   UNL     1     -43.369  55.849 -58.514  1.00  0.00     0.216 C 
HETATM    2  C   UNL     1     -44.101  55.219 -59.688  1.00  0.00    -0.098 C 
HETATM    3  C   UNL     1     -44.730  54.678 -60.694  1.00  0.00     0.014 C 
ENDROOT
BRANCH   1   4
HETATM    4  N   UNL     1     -44.257  56.535 -57.607  1.00  0.00    -0.351 N 
HETATM    5  C   UNL     1     -43.928  57.799 -57.149  1.00  0.00     0.219 C 
HETATM    6  O   UNL     1     -43.021  58.457 -57.648  1.00  0.00    -0.274 OA
HETATM    7  H   UNL     1     -44.969  55.997 -57.133  1.00  0.00     0.163 HD
BRANCH   5   8
HETATM    8  C   UNL     1     -44.813  58.316 -56.030  1.00  0.00     0.114 C 
BRANCH   8   9
HETATM    9  C   UNL     1     -44.114  58.450 -54.643  1.00  0.00     0.056 C 
HETATM   10  C   UNL     1     -43.651  59.933 -54.220  1.00  0.00    -0.030 C 
HETATM   11  C   UNL     1     -43.032  60.652 -55.459  1.00  0.00     0.016 C 
HETATM   12  C   UNL     1     -42.547  59.899 -53.066  1.00  0.00     0.012 C 
HETATM   13  C   UNL     1     -44.844  60.832 -53.763  1.00  0.00     0.013 C 
HETATM   14  C   UNL     1     -41.278  59.139 -53.528  1.00  0.00     0.055 C 
HETATM   15  C   UNL     1     -43.076  59.520 -51.604  1.00  0.00     0.008 C 
HETATM   16  C   UNL     1     -41.668  57.840 -54.127  1.00  0.00     0.012 C 
HETATM   17  C   UNL     1     -42.923  57.498 -54.593  1.00  0.00     0.056 C 
HETATM   18  S   UNL     1     -40.608  56.514 -54.223  1.00  0.00    -0.055 SA
HETATM   19  N   UNL     1     -43.078  56.142 -54.850  1.00  0.00    -0.227 NA
HETATM   20  C   UNL     1     -41.949  55.526 -54.601  1.00  0.00     0.174 C 
HETATM   21  C   UNL     1     -42.165  60.273 -50.588  1.00  0.00     0.020 C 
HETATM   22  C   UNL     1     -44.530  60.042 -51.394  1.00  0.00     0.128 C 
HETATM   23  C   UNL     1     -44.838  61.233 -52.288  1.00  0.00     0.033 C 
BRANCH  20  24
HETATM   24  N   UNL     1     -41.665  54.201 -54.473  1.00  0.00    -0.300 N 
HETATM   25  C   UNL     1     -41.554  53.581 -53.251  1.00  0.00     0.281 C 
HETATM   26  O   UNL     1     -42.036  53.966 -52.193  1.00  0.00    -0.265 OA
HETATM   27  H   UNL     1     -41.208  53.765 -55.261  1.00  0.00     0.171 HD
BRANCH  25  28
HETATM   28  C   UNL     1     -40.724  52.389 -53.339  1.00  0.00     0.142 A 
HETATM   29  O   UNL     1     -40.022  51.981 -52.229  1.00  0.00    -0.317 OA
HETATM   30  C   UNL     1     -39.391  50.824 -52.557  1.00  0.00     0.143 A 
HETATM   31  C   UNL     1     -39.670  50.475 -53.856  1.00  0.00     0.027 A 
HETATM   32  C   UNL     1     -40.523  51.484 -54.364  1.00  0.00     0.045 A 
ENDBRANCH  25  28
ENDBRANCH  20  24
BRANCH  15  33
HETATM   33  C   UNL     1     -43.038  58.015 -51.218  1.00  0.00     0.176 C 
BRANCH  33  34
HETATM   34  O   UNL     1     -41.920  57.685 -50.401  1.00  0.00    -0.400 OA
HETATM   35  H   UNL     1     -41.223  57.385 -51.009  1.00  0.00     0.209 HD
ENDBRANCH  33  34
ENDBRANCH  15  33
BRANCH  22  36
HETATM   36  O   UNL     1     -45.479  59.007 -51.645  1.00  0.00    -0.395 OA
HETATM   37  H   UNL     1     -45.344  58.662 -52.546  1.00  0.00     0.210 HD
ENDBRANCH  22  36
ENDBRANCH   8   9
ENDBRANCH   5   8
ENDBRANCH   1   4
TORSDOF 8
ENDMDL
MODEL 6
REMARK VINA RESULT:      -7.0      2.749      5.748
REMARK  8 active torsions:
REMARK  status: ('A' for Active; 'I' for Inactive)
REMARK    1  A    between atoms: C_3  and  C_4 
REMARK    2  A    between atoms: C_4  and  C_5 
REMARK       I    between atoms: C_5  and  N_6 
REMARK    3  A    between atoms: N_6  and  C_7 
REMARK    4  A    between atoms: C_14  and  N_15 
REMARK       I    between atoms: N_15  and  C_16 
REMARK    5  A    between atoms: C_16  and  C_17 
REMARK    6  A    between atoms: C_26  and  C_27 
REMARK    7  A    between atoms: C_27  and  O_28 
REMARK    8  A    between atoms: C_30  and  O_31 
ROOT
HETATM    1  C   UNL     1     -40.611  57.604 -50.326  1.00  0.00     0.216 C 
HETATM    2  C   UNL     1     -41.015  56.219 -49.845  1.00  0.00    -0.098 C 
HETATM    3  C   UNL     1     -41.361  55.033 -49.433  1.00  0.00     0.014 C 
ENDROOT
BRANCH   1   4
HETATM    4  N   UNL     1     -41.637  58.240 -51.117  1.00  0.00    -0.351 N 
HETATM    5  C   UNL     1     -41.289  59.207 -52.042  1.00  0.00     0.219 C 
HETATM    6  O   UNL     1     -40.125  59.399 -52.380  1.00  0.00    -0.274 OA
HETATM    7  H   UNL     1     -42.599  58.152 -50.817  1.00  0.00     0.163 HD
BRANCH   5   8
HETATM    8  C   UNL     1     -42.462  59.963 -52.639  1.00  0.00     0.114 C 
BRANCH   8   9
HETATM    9  C   UNL     1     -42.756  59.651 -54.138  1.00  0.00     0.056 C 
HETATM   10  C   UNL     1     -43.889  60.552 -54.843  1.00  0.00    -0.030 C 
HETATM   11  C   UNL     1     -45.081  60.746 -53.857  1.00  0.00     0.016 C 
HETATM   12  C   UNL     1     -44.452  59.860 -56.168  1.00  0.00     0.012 C 
HETATM   13  C   UNL     1     -43.389  61.991 -55.189  1.00  0.00     0.013 C 
HETATM   14  C   UNL     1     -45.093  58.485 -55.853  1.00  0.00     0.055 C 
HETATM   15  C   UNL     1     -43.476  59.883 -57.438  1.00  0.00     0.008 C 
HETATM   16  C   UNL     1     -44.167  57.686 -55.016  1.00  0.00     0.012 C 
HETATM   17  C   UNL     1     -43.104  58.172 -54.278  1.00  0.00     0.056 C 
HETATM   18  S   UNL     1     -44.227  55.988 -54.937  1.00  0.00    -0.055 SA
HETATM   19  N   UNL     1     -42.246  57.186 -53.810  1.00  0.00    -0.227 NA
HETATM   20  C   UNL     1     -42.697  56.013 -54.178  1.00  0.00     0.174 C 
HETATM   21  C   UNL     1     -44.386  59.934 -58.701  1.00  0.00     0.020 C 
HETATM   22  C   UNL     1     -42.610  61.179 -57.440  1.00  0.00     0.128 C 
HETATM   23  C   UNL     1     -43.284  62.311 -56.679  1.00  0.00     0.033 C 
BRANCH  20  24
HETATM   24  N   UNL     1     -42.106  54.787 -54.171  1.00  0.00    -0.300 N 
HETATM   25  C   UNL     1     -42.173  53.937 -53.094  1.00  0.00     0.281 C 
HETATM   26  O   UNL     1     -43.016  53.952 -52.205  1.00  0.00    -0.265 OA
HETATM   27  H   UNL     1     -41.346  54.655 -54.824  1.00  0.00     0.171 HD
BRANCH  25  28
HETATM   28  C   UNL     1     -41.056  53.004 -53.089  1.00  0.00     0.142 A 
HETATM   29  O   UNL     1     -40.473  52.666 -51.890  1.00  0.00    -0.317 OA
HETATM   30  C   UNL     1     -39.513  51.743 -52.157  1.00  0.00     0.143 A 
HETATM   31  C   UNL     1     -39.463  51.476 -53.504  1.00  0.00     0.027 A 
HETATM   32  C   UNL     1     -40.451  52.291 -54.107  1.00  0.00     0.045 A 
ENDBRANCH  25  28
ENDBRANCH  20  24
BRANCH  15  33
HETATM   33  C   UNL     1     -42.528  58.664 -57.609  1.00  0.00     0.176 C 
BRANCH  33  34
HETATM   34  O   UNL     1     -41.702  58.769 -58.765  1.00  0.00    -0.400 OA
HETATM   35  H   UNL     1     -40.997  58.109 -58.650  1.00  0.00     0.209 HD
ENDBRANCH  33  34
ENDBRANCH  15  33
BRANCH  22  36
HETATM   36  O   UNL     1     -41.325  60.930 -56.872  1.00  0.00    -0.395 OA
HETATM   37  H   UNL     1     -40.646  61.030 -57.562  1.00  0.00     0.210 HD
ENDBRANCH  22  36
ENDBRANCH   8   9
ENDBRANCH   5   8
ENDBRANCH   1   4
TORSDOF 8
ENDMDL
MODEL 7
REMARK VINA RESULT:      -7.0      3.053      5.973
REMARK  8 active torsions:
REMARK  status: ('A' for Active; 'I' for Inactive)
REMARK    1  A    between atoms: C_3  and  C_4 
REMARK    2  A    between atoms: C_4  and  C_5 
REMARK       I    between atoms: C_5  and  N_6 
REMARK    3  A    between atoms: N_6  and  C_7 
REMARK    4  A    between atoms: C_14  and  N_15 
REMARK       I    between atoms: N_15  and  C_16 
REMARK    5  A    between atoms: C_16  and  C_17 
REMARK    6  A    between atoms: C_26  and  C_27 
REMARK    7  A    between atoms: C_27  and  O_28 
REMARK    8  A    between atoms: C_30  and  O_31 
ROOT
HETATM    1  C   UNL     1     -39.958  58.223 -50.593  1.00  0.00     0.216 C 
HETATM    2  C   UNL     1     -39.072  59.399 -50.212  1.00  0.00    -0.098 C 
HETATM    3  C   UNL     1     -38.314  60.407 -49.886  1.00  0.00     0.014 C 
ENDROOT
BRANCH   1   4
HETATM    4  N   UNL     1     -41.039  58.601 -51.469  1.00  0.00    -0.351 N 
HETATM    5  C   UNL     1     -40.758  59.134 -52.715  1.00  0.00     0.219 C 
HETATM    6  O   UNL     1     -39.632  59.100 -53.200  1.00  0.00    -0.274 OA
HETATM    7  H   UNL     1     -41.965  58.702 -51.075  1.00  0.00     0.163 HD
BRANCH   5   8
HETATM    8  C   UNL     1     -41.961  59.706 -53.444  1.00  0.00     0.114 C 
BRANCH   8   9
HETATM    9  C   UNL     1     -42.464  58.862 -54.653  1.00  0.00     0.056 C 
HETATM   10  C   UNL     1     -43.846  59.338 -55.328  1.00  0.00    -0.030 C 
HETATM   11  C   UNL     1     -44.853  59.741 -54.207  1.00  0.00     0.016 C 
HETATM   12  C   UNL     1     -44.511  58.173 -56.195  1.00  0.00     0.012 C 
HETATM   13  C   UNL     1     -43.677  60.609 -56.220  1.00  0.00     0.013 C 
HETATM   14  C   UNL     1     -44.833  56.937 -55.318  1.00  0.00     0.055 C 
HETATM   15  C   UNL     1     -43.803  57.851 -57.594  1.00  0.00     0.008 C 
HETATM   16  C   UNL     1     -43.644  56.580 -54.507  1.00  0.00     0.012 C 
HETATM   17  C   UNL     1     -42.567  57.400 -54.229  1.00  0.00     0.056 C 
HETATM   18  S   UNL     1     -43.391  55.020 -53.879  1.00  0.00    -0.055 SA
HETATM   19  N   UNL     1     -41.479  56.734 -53.683  1.00  0.00    -0.227 NA
HETATM   20  C   UNL     1     -41.777  55.466 -53.543  1.00  0.00     0.174 C 
HETATM   21  C   UNL     1     -44.922  57.365 -58.562  1.00  0.00     0.020 C 
HETATM   22  C   UNL     1     -43.192  59.147 -58.211  1.00  0.00     0.128 C 
HETATM   23  C   UNL     1     -43.904  60.398 -57.716  1.00  0.00     0.033 C 
BRANCH  20  24
HETATM   24  N   UNL     1     -40.989  54.387 -53.282  1.00  0.00    -0.300 N 
HETATM   25  C   UNL     1     -40.415  53.631 -54.275  1.00  0.00     0.281 C 
HETATM   26  O   UNL     1     -40.195  53.986 -55.427  1.00  0.00    -0.265 OA
HETATM   27  H   UNL     1     -41.111  53.955 -52.377  1.00  0.00     0.171 HD
BRANCH  25  28
HETATM   28  C   UNL     1     -40.125  52.282 -53.809  1.00  0.00     0.142 A 
HETATM   29  O   UNL     1     -39.694  52.100 -52.516  1.00  0.00    -0.317 OA
HETATM   30  C   UNL     1     -39.562  50.763 -52.321  1.00  0.00     0.143 A 
HETATM   31  C   UNL     1     -39.899  50.075 -53.463  1.00  0.00     0.027 A 
HETATM   32  C   UNL     1     -40.256  51.051 -54.424  1.00  0.00     0.045 A 
ENDBRANCH  25  28
ENDBRANCH  20  24
BRANCH  15  33
HETATM   33  C   UNL     1     -42.703  56.754 -57.582  1.00  0.00     0.176 C 
BRANCH  33  34
HETATM   34  O   UNL     1     -42.157  56.508 -58.874  1.00  0.00    -0.400 OA
HETATM   35  H   UNL     1     -42.086  55.542 -58.955  1.00  0.00     0.209 HD
ENDBRANCH  33  34
ENDBRANCH  15  33
BRANCH  22  36
HETATM   36  O   UNL     1     -41.802  59.245 -57.905  1.00  0.00    -0.395 OA
HETATM   37  H   UNL     1     -41.410  59.966 -58.429  1.00  0.00     0.210 HD
ENDBRANCH  22  36
ENDBRANCH   8   9
ENDBRANCH   5   8
ENDBRANCH   1   4
TORSDOF 8
ENDMDL
MODEL 8
REMARK VINA RESULT:      -7.0     17.541     20.463
REMARK  8 active torsions:
REMARK  status: ('A' for Active; 'I' for Inactive)
REMARK    1  A    between atoms: C_3  and  C_4 
REMARK    2  A    between atoms: C_4  and  C_5 
REMARK       I    between atoms: C_5  and  N_6 
REMARK    3  A    between atoms: N_6  and  C_7 
REMARK    4  A    between atoms: C_14  and  N_15 
REMARK       I    between atoms: N_15  and  C_16 
REMARK    5  A    between atoms: C_16  and  C_17 
REMARK    6  A    between atoms: C_26  and  C_27 
REMARK    7  A    between atoms: C_27  and  O_28 
REMARK    8  A    between atoms: C_30  and  O_31 
ROOT
HETATM    1  C   UNL     1     -36.585  40.033 -49.908  1.00  0.00     0.216 C 
HETATM    2  C   UNL     1     -35.132  39.592 -49.828  1.00  0.00    -0.098 C 
HETATM    3  C   UNL     1     -33.887  39.214 -49.761  1.00  0.00     0.014 C 
ENDROOT
BRANCH   1   4
HETATM    4  N   UNL     1     -36.914  40.643 -51.173  1.00  0.00    -0.351 N 
HETATM    5  C   UNL     1     -37.312  39.849 -52.234  1.00  0.00     0.219 C 
HETATM    6  O   UNL     1     -37.609  38.668 -52.090  1.00  0.00    -0.274 OA
HETATM    7  H   UNL     1     -36.617  41.595 -51.339  1.00  0.00     0.163 HD
BRANCH   5   8
HETATM    8  C   UNL     1     -37.403  40.572 -53.566  1.00  0.00     0.114 C 
BRANCH   8   9
HETATM    9  C   UNL     1     -36.229  40.291 -54.552  1.00  0.00     0.056 C 
HETATM   10  C   UNL     1     -34.886  41.149 -54.322  1.00  0.00    -0.030 C 
HETATM   11  C   UNL     1     -35.267  42.624 -53.991  1.00  0.00     0.016 C 
HETATM   12  C   UNL     1     -33.961  41.157 -55.624  1.00  0.00     0.012 C 
HETATM   13  C   UNL     1     -34.048  40.645 -53.102  1.00  0.00     0.013 C 
HETATM   14  C   UNL     1     -34.702  41.785 -56.832  1.00  0.00     0.055 C 
HETATM   15  C   UNL     1     -33.179  39.796 -55.936  1.00  0.00     0.008 C 
HETATM   16  C   UNL     1     -36.046  41.173 -56.962  1.00  0.00     0.012 C 
HETATM   17  C   UNL     1     -36.727  40.477 -55.982  1.00  0.00     0.056 C 
HETATM   18  S   UNL     1     -36.913  41.156 -58.425  1.00  0.00    -0.055 SA
HETATM   19  N   UNL     1     -37.836  39.785 -56.450  1.00  0.00    -0.227 NA
HETATM   20  C   UNL     1     -37.968  40.004 -57.734  1.00  0.00     0.174 C 
HETATM   21  C   UNL     1     -31.848  40.194 -56.640  1.00  0.00     0.020 C 
HETATM   22  C   UNL     1     -32.800  39.065 -54.612  1.00  0.00     0.128 C 
HETATM   23  C   UNL     1     -32.690  40.034 -53.443  1.00  0.00     0.033 C 
BRANCH  20  24
HETATM   24  N   UNL     1     -38.735  39.381 -58.672  1.00  0.00    -0.300 N 
HETATM   25  C   UNL     1     -38.337  38.232 -59.311  1.00  0.00     0.281 C 
HETATM   26  O   UNL     1     -37.506  37.425 -58.910  1.00  0.00    -0.265 OA
HETATM   27  H   UNL     1     -39.431  39.953 -59.129  1.00  0.00     0.171 HD
BRANCH  25  28
HETATM   28  C   UNL     1     -39.001  38.088 -60.598  1.00  0.00     0.142 A 
HETATM   29  O   UNL     1     -38.236  37.966 -61.735  1.00  0.00    -0.317 OA
HETATM   30  C   UNL     1     -39.088  37.783 -62.775  1.00  0.00     0.143 A 
HETATM   31  C   UNL     1     -40.391  37.783 -62.335  1.00  0.00     0.027 A 
HETATM   32  C   UNL     1     -40.337  37.986 -60.935  1.00  0.00     0.045 A 
ENDBRANCH  25  28
ENDBRANCH  20  24
BRANCH  15  33
HETATM   33  C   UNL     1     -33.897  38.778 -56.865  1.00  0.00     0.176 C 
BRANCH  33  34
HETATM   34  O   UNL     1     -33.135  37.593 -57.075  1.00  0.00    -0.400 OA
HETATM   35  H   UNL     1     -33.158  37.427 -58.033  1.00  0.00     0.209 HD
ENDBRANCH  33  34
ENDBRANCH  15  33
BRANCH  22  36
HETATM   36  O   UNL     1     -33.759  38.057 -54.299  1.00  0.00    -0.395 OA
HETATM   37  H   UNL     1     -33.700  37.344 -54.960  1.00  0.00     0.210 HD
ENDBRANCH  22  36
ENDBRANCH   8   9
ENDBRANCH   5   8
ENDBRANCH   1   4
TORSDOF 8
ENDMDL
MODEL 9
REMARK VINA RESULT:      -6.8      4.080      6.702
REMARK  8 active torsions:
REMARK  status: ('A' for Active; 'I' for Inactive)
REMARK    1  A    between atoms: C_3  and  C_4 
REMARK    2  A    between atoms: C_4  and  C_5 
REMARK       I    between atoms: C_5  and  N_6 
REMARK    3  A    between atoms: N_6  and  C_7 
REMARK    4  A    between atoms: C_14  and  N_15 
REMARK       I    between atoms: N_15  and  C_16 
REMARK    5  A    between atoms: C_16  and  C_17 
REMARK    6  A    between atoms: C_26  and  C_27 
REMARK    7  A    between atoms: C_27  and  O_28 
REMARK    8  A    between atoms: C_30  and  O_31 
ROOT
HETATM    1  C   UNL     1     -43.507  56.572 -58.648  1.00  0.00     0.216 C 
HETATM    2  C   UNL     1     -44.171  55.527 -59.530  1.00  0.00    -0.098 C 
HETATM    3  C   UNL     1     -44.742  54.630 -60.284  1.00  0.00     0.014 C 
ENDROOT
BRANCH   1   4
HETATM    4  N   UNL     1     -44.337  56.974 -57.538  1.00  0.00    -0.351 N 
HETATM    5  C   UNL     1     -44.021  58.117 -56.825  1.00  0.00     0.219 C 
HETATM    6  O   UNL     1     -43.192  58.928 -57.225  1.00  0.00    -0.274 OA
HETATM    7  H   UNL     1     -44.979  56.298 -57.149  1.00  0.00     0.163 HD
BRANCH   5   8
HETATM    8  C   UNL     1     -44.821  58.307 -55.549  1.00  0.00     0.114 C 
BRANCH   8   9
HETATM    9  C   UNL     1     -43.977  58.343 -54.239  1.00  0.00     0.056 C 
HETATM   10  C   UNL     1     -43.231  56.975 -53.835  1.00  0.00    -0.030 C 
HETATM   11  C   UNL     1     -44.188  55.771 -54.092  1.00  0.00     0.016 C 
HETATM   12  C   UNL     1     -42.822  56.961 -52.291  1.00  0.00     0.012 C 
HETATM   13  C   UNL     1     -41.962  56.699 -54.705  1.00  0.00     0.013 C 
HETATM   14  C   UNL     1     -44.069  57.086 -51.381  1.00  0.00     0.055 C 
HETATM   15  C   UNL     1     -41.585  57.893 -51.887  1.00  0.00     0.008 C 
HETATM   16  C   UNL     1     -44.911  58.214 -51.845  1.00  0.00     0.012 C 
HETATM   17  C   UNL     1     -44.865  58.812 -53.090  1.00  0.00     0.056 C 
HETATM   18  S   UNL     1     -46.012  59.021 -50.830  1.00  0.00    -0.055 SA
HETATM   19  N   UNL     1     -45.564  60.009 -53.166  1.00  0.00    -0.227 NA
HETATM   20  C   UNL     1     -46.126  60.252 -52.009  1.00  0.00     0.174 C 
HETATM   21  C   UNL     1     -40.872  57.197 -50.689  1.00  0.00     0.020 C 
HETATM   22  C   UNL     1     -40.553  57.973 -53.054  1.00  0.00     0.128 C 
HETATM   23  C   UNL     1     -40.629  56.753 -53.960  1.00  0.00     0.033 C 
BRANCH  20  24
HETATM   24  N   UNL     1     -46.703  61.383 -51.517  1.00  0.00    -0.300 N 
HETATM   25  C   UNL     1     -46.065  62.215 -50.629  1.00  0.00     0.281 C 
HETATM   26  O   UNL     1     -44.855  62.304 -50.454  1.00  0.00    -0.265 OA
HETATM   27  H   UNL     1     -47.712  61.418 -51.547  1.00  0.00     0.171 HD
BRANCH  25  28
HETATM   28  C   UNL     1     -47.022  62.982 -49.845  1.00  0.00     0.142 A 
HETATM   29  O   UNL     1     -48.130  63.505 -50.468  1.00  0.00    -0.317 OA
HETATM   30  C   UNL     1     -48.881  64.109 -49.512  1.00  0.00     0.143 A 
HETATM   31  C   UNL     1     -48.282  63.987 -48.281  1.00  0.00     0.027 A 
HETATM   32  C   UNL     1     -47.081  63.268 -48.494  1.00  0.00     0.045 A 
ENDBRANCH  25  28
ENDBRANCH  20  24
BRANCH  15  33
HETATM   33  C   UNL     1     -41.923  59.341 -51.435  1.00  0.00     0.176 C 
BRANCH  33  34
HETATM   34  O   UNL     1     -40.814  60.001 -50.833  1.00  0.00    -0.400 OA
HETATM   35  H   UNL     1     -41.146  60.372 -49.997  1.00  0.00     0.209 HD
ENDBRANCH  33  34
ENDBRANCH  15  33
BRANCH  22  36
HETATM   36  O   UNL     1     -40.762  59.151 -53.831  1.00  0.00    -0.395 OA
HETATM   37  H   UNL     1     -41.046  58.896 -54.727  1.00  0.00     0.210 HD
ENDBRANCH  22  36
ENDBRANCH   8   9
ENDBRANCH   5   8
ENDBRANCH   1   4
TORSDOF 8
ENDMDL
MODEL 10
REMARK VINA RESULT:      -6.8      2.476      8.071
REMARK  8 active torsions:
REMARK  status: ('A' for Active; 'I' for Inactive)
REMARK    1  A    between atoms: C_3  and  C_4 
REMARK    2  A    between atoms: C_4  and  C_5 
REMARK       I    between atoms: C_5  and  N_6 
REMARK    3  A    between atoms: N_6  and  C_7 
REMARK    4  A    between atoms: C_14  and  N_15 
REMARK       I    between atoms: N_15  and  C_16 
REMARK    5  A    between atoms: C_16  and  C_17 
REMARK    6  A    between atoms: C_26  and  C_27 
REMARK    7  A    between atoms: C_27  and  O_28 
REMARK    8  A    between atoms: C_30  and  O_31 
ROOT
HETATM    1  C   UNL     1     -46.609  60.943 -51.683  1.00  0.00     0.216 C 
HETATM    2  C   UNL     1     -47.706  61.652 -52.462  1.00  0.00    -0.098 C 
HETATM    3  C   UNL     1     -48.645  62.260 -53.132  1.00  0.00     0.014 C 
ENDROOT
BRANCH   1   4
HETATM    4  N   UNL     1     -45.518  60.513 -52.523  1.00  0.00    -0.351 N 
HETATM    5  C   UNL     1     -44.850  59.337 -52.230  1.00  0.00     0.219 C 
HETATM    6  O   UNL     1     -45.281  58.527 -51.415  1.00  0.00    -0.274 OA
HETATM    7  H   UNL     1     -45.103  61.185 -53.153  1.00  0.00     0.163 HD
BRANCH   5   8
HETATM    8  C   UNL     1     -43.584  59.112 -53.036  1.00  0.00     0.114 C 
BRANCH   8   9
HETATM    9  C   UNL     1     -43.123  57.626 -53.141  1.00  0.00     0.056 C 
HETATM   10  C   UNL     1     -41.799  57.232 -52.314  1.00  0.00    -0.030 C 
HETATM   11  C   UNL     1     -40.743  58.371 -52.459  1.00  0.00     0.016 C 
HETATM   12  C   UNL     1     -41.146  55.880 -52.857  1.00  0.00     0.012 C 
HETATM   13  C   UNL     1     -42.064  57.094 -50.780  1.00  0.00     0.013 C 
HETATM   14  C   UNL     1     -40.731  56.016 -54.343  1.00  0.00     0.055 C 
HETATM   15  C   UNL     1     -41.922  54.530 -52.486  1.00  0.00     0.008 C 
HETATM   16  C   UNL     1     -41.857  56.582 -55.123  1.00  0.00     0.012 C 
HETATM   17  C   UNL     1     -42.945  57.265 -54.613  1.00  0.00     0.056 C 
HETATM   18  S   UNL     1     -42.019  56.361 -56.802  1.00  0.00    -0.055 SA
HETATM   19  N   UNL     1     -43.976  57.444 -55.525  1.00  0.00    -0.227 NA
HETATM   20  C   UNL     1     -43.626  56.927 -56.676  1.00  0.00     0.174 C 
HETATM   21  C   UNL     1     -40.844  53.411 -52.365  1.00  0.00     0.020 C 
HETATM   22  C   UNL     1     -42.612  54.658 -51.094  1.00  0.00     0.128 C 
HETATM   23  C   UNL     1     -41.917  55.684 -50.211  1.00  0.00     0.033 C 
BRANCH  20  24
HETATM   24  N   UNL     1     -44.360  56.644 -57.787  1.00  0.00    -0.300 N 
HETATM   25  C   UNL     1     -44.408  57.480 -58.876  1.00  0.00     0.281 C 
HETATM   26  O   UNL     1     -43.581  58.331 -59.180  1.00  0.00    -0.265 OA
HETATM   27  H   UNL     1     -45.121  55.992 -57.664  1.00  0.00     0.171 HD
BRANCH  25  28
HETATM   28  C   UNL     1     -45.629  57.275 -59.643  1.00  0.00     0.142 A 
HETATM   29  O   UNL     1     -46.311  58.371 -60.119  1.00  0.00    -0.317 OA
HETATM   30  C   UNL     1     -47.359  57.907 -60.845  1.00  0.00     0.143 A 
HETATM   31  C   UNL     1     -47.372  56.533 -60.849  1.00  0.00     0.027 A 
HETATM   32  C   UNL     1     -46.262  56.124 -60.070  1.00  0.00     0.045 A 
ENDBRANCH  25  28
ENDBRANCH  20  24
BRANCH  15  33
HETATM   33  C   UNL     1     -42.980  54.032 -53.509  1.00  0.00     0.176 C 
BRANCH  33  34
HETATM   34  O   UNL     1     -42.428  53.158 -54.489  1.00  0.00    -0.400 OA
HETATM   35  H   UNL     1     -42.137  53.727 -55.222  1.00  0.00     0.209 HD
ENDBRANCH  33  34
ENDBRANCH  15  33
BRANCH  22  36
HETATM   36  O   UNL     1     -43.985  55.017 -51.241  1.00  0.00    -0.395 OA
HETATM   37  H   UNL     1     -44.472  54.750 -50.442  1.00  0.00     0.210 HD
ENDBRANCH  22  36
ENDBRANCH   8   9
ENDBRANCH   5   8
ENDBRANCH   1   4
TORSDOF 8
ENDMDL
