MODEL 1
REMARK VINA RESULT:      -8.4      0.000      0.000
REMARK  6 active torsions:
REMARK  status: ('A' for Active; 'I' for Inactive)
REMARK    1  A    between atoms: C_4  and  N_5 
REMARK       I    between atoms: N_5  and  C_6 
REMARK       I    between atoms: C_6  and  N_7 
REMARK    2  A    between atoms: N_7  and  C_8 
REMARK    3  A    between atoms: N_11  and  C_13 
REMARK    4  A    between atoms: C_13  and  C_14 
REMARK       I    between atoms: C_14  and  N_15 
REMARK    5  A    between atoms: N_15  and  C_16 
REMARK    6  A    between atoms: C_16  and  C_17 
ROOT
HETATM    1  C   UNL     1     -41.597  55.942 -52.115  1.00  0.00     0.090 C 
HETATM    2  C   UNL     1     -43.121  55.864 -51.933  1.00  0.00     0.058 C 
HETATM    3  C   UNL     1     -43.917  57.037 -52.519  1.00  0.00     0.191 C 
HETATM    4  N   UNL     1     -43.058  58.264 -52.639  1.00  0.00    -0.054 N 
HETATM    5  H   UNL     1     -43.691  59.004 -53.002  1.00  0.00     0.281 HD
HETATM    6  C   UNL     1     -42.120  57.896 -53.748  1.00  0.00     0.191 C 
HETATM    7  C   UNL     1     -41.125  56.834 -53.281  1.00  0.00     0.058 C 
HETATM    8  C   UNL     1     -44.274  56.784 -53.989  1.00  0.00     0.035 C 
HETATM    9  C   UNL     1     -43.094  57.335 -54.791  1.00  0.00     0.035 C 
ENDROOT
BRANCH   1  10
HETATM   10  N   UNL     1     -41.001  54.607 -52.140  1.00  0.00    -0.338 N 
HETATM   11  C   UNL     1     -40.313  54.143 -51.052  1.00  0.00     0.321 C 
HETATM   12  N   UNL     1     -39.930  52.841 -51.051  1.00  0.00    -0.309 N 
HETATM   13  O   UNL     1     -40.099  54.842 -50.065  1.00  0.00    -0.247 OA
HETATM   14  H   UNL     1     -39.606  52.563 -50.131  1.00  0.00     0.170 HD
HETATM   15  H   UNL     1     -41.570  53.867 -52.536  1.00  0.00     0.164 HD
BRANCH  12  16
HETATM   16  C   UNL     1     -39.873  51.845 -52.044  1.00  0.00     0.036 A 
HETATM   17  C   UNL     1     -40.011  52.078 -53.413  1.00  0.00     0.029 A 
HETATM   18  C   UNL     1     -39.938  51.016 -54.322  1.00  0.00     0.002 A 
HETATM   19  C   UNL     1     -39.711  49.718 -53.872  1.00  0.00     0.000 A 
HETATM   20  C   UNL     1     -39.541  49.479 -52.512  1.00  0.00     0.002 A 
HETATM   21  C   UNL     1     -39.616  50.539 -51.605  1.00  0.00     0.029 A 
ENDBRANCH  12  16
ENDBRANCH   1  10
BRANCH   4  22
HETATM   22  C   UNL     1     -42.523  58.926 -51.382  1.00  0.00     0.338 C 
BRANCH  22  23
HETATM   23  C   UNL     1     -43.470  60.047 -50.948  1.00  0.00     0.243 C 
HETATM   24  N   UNL     1     -44.512  59.671 -50.152  1.00  0.00    -0.354 N 
HETATM   25  H   UNL     1     -44.671  58.706 -49.879  1.00  0.00     0.162 HD
HETATM   26  O   UNL     1     -43.280  61.193 -51.353  1.00  0.00    -0.272 OA
BRANCH  24  27
HETATM   27  C   UNL     1     -45.536  60.611 -49.738  1.00  0.00     0.187 C 
BRANCH  27  28
HETATM   28  C   UNL     1     -45.475  60.788 -48.265  1.00  0.00     0.070 A 
HETATM   29  O   UNL     1     -46.207  59.920 -47.498  1.00  0.00    -0.325 OA
HETATM   30  C   UNL     1     -46.011  60.274 -46.201  1.00  0.00     0.142 A 
HETATM   31  C   UNL     1     -45.164  61.354 -46.121  1.00  0.00     0.027 A 
HETATM   32  C   UNL     1     -44.817  61.686 -47.452  1.00  0.00     0.036 A 
ENDBRANCH  27  28
ENDBRANCH  24  27
ENDBRANCH  22  23
ENDBRANCH   4  22
TORSDOF 6
ENDMDL
MODEL 2
REMARK VINA RESULT:      -8.4      3.275      8.010
REMARK  6 active torsions:
REMARK  status: ('A' for Active; 'I' for Inactive)
REMARK    1  A    between atoms: C_4  and  N_5 
REMARK       I    between atoms: N_5  and  C_6 
REMARK       I    between atoms: C_6  and  N_7 
REMARK    2  A    between atoms: N_7  and  C_8 
REMARK    3  A    between atoms: N_11  and  C_13 
REMARK    4  A    between atoms: C_13  and  C_14 
REMARK       I    between atoms: C_14  and  N_15 
REMARK    5  A    between atoms: N_15  and  C_16 
REMARK    6  A    between atoms: C_16  and  C_17 
ROOT
HETATM    1  C   UNL     1     -42.762  56.082 -53.467  1.00  0.00     0.090 C 
HETATM    2  C   UNL     1     -43.891  56.936 -52.867  1.00  0.00     0.058 C 
HETATM    3  C   UNL     1     -43.659  57.425 -51.433  1.00  0.00     0.191 C 
HETATM    4  N   UNL     1     -42.684  56.536 -50.712  1.00  0.00    -0.054 N 
HETATM    5  H   UNL     1     -42.626  56.922 -49.749  1.00  0.00     0.281 HD
HETATM    6  C   UNL     1     -41.389  56.853 -51.398  1.00  0.00     0.191 C 
HETATM    7  C   UNL     1     -41.379  56.283 -52.815  1.00  0.00     0.058 C 
HETATM    8  C   UNL     1     -42.905  58.760 -51.418  1.00  0.00     0.035 C 
HETATM    9  C   UNL     1     -41.422  58.386 -51.408  1.00  0.00     0.035 C 
ENDROOT
BRANCH   1  10
HETATM   10  N   UNL     1     -42.730  56.201 -54.924  1.00  0.00    -0.338 N 
HETATM   11  C   UNL     1     -43.102  55.142 -55.706  1.00  0.00     0.321 C 
HETATM   12  N   UNL     1     -43.225  55.350 -57.041  1.00  0.00    -0.309 N 
HETATM   13  O   UNL     1     -43.389  54.046 -55.231  1.00  0.00    -0.247 OA
HETATM   14  H   UNL     1     -43.683  54.564 -57.487  1.00  0.00     0.170 HD
HETATM   15  H   UNL     1     -43.088  57.066 -55.313  1.00  0.00     0.164 HD
BRANCH  12  16
HETATM   16  C   UNL     1     -42.833  56.394 -57.901  1.00  0.00     0.036 A 
HETATM   17  C   UNL     1     -42.408  57.655 -57.479  1.00  0.00     0.029 A 
HETATM   18  C   UNL     1     -42.038  58.627 -58.416  1.00  0.00     0.002 A 
HETATM   19  C   UNL     1     -42.076  58.342 -59.779  1.00  0.00     0.000 A 
HETATM   20  C   UNL     1     -42.469  57.078 -60.208  1.00  0.00     0.002 A 
HETATM   21  C   UNL     1     -42.839  56.109 -59.273  1.00  0.00     0.029 A 
ENDBRANCH  12  16
ENDBRANCH   1  10
BRANCH   4  22
HETATM   22  C   UNL     1     -43.058  55.093 -50.428  1.00  0.00     0.338 C 
BRANCH  22  23
HETATM   23  C   UNL     1     -41.825  54.328 -49.943  1.00  0.00     0.243 C 
HETATM   24  N   UNL     1     -41.274  53.457 -50.837  1.00  0.00    -0.354 N 
HETATM   25  H   UNL     1     -41.667  53.301 -51.761  1.00  0.00     0.162 HD
HETATM   26  O   UNL     1     -41.419  54.497 -48.794  1.00  0.00    -0.272 OA
BRANCH  24  27
HETATM   27  C   UNL     1     -40.158  52.601 -50.484  1.00  0.00     0.187 C 
BRANCH  27  28
HETATM   28  C   UNL     1     -39.927  51.620 -51.574  1.00  0.00     0.070 A 
HETATM   29  O   UNL     1     -39.727  50.314 -51.211  1.00  0.00    -0.325 OA
HETATM   30  C   UNL     1     -39.527  49.610 -52.356  1.00  0.00     0.142 A 
HETATM   31  C   UNL     1     -39.597  50.441 -53.449  1.00  0.00     0.027 A 
HETATM   32  C   UNL     1     -39.855  51.738 -52.946  1.00  0.00     0.036 A 
ENDBRANCH  27  28
ENDBRANCH  24  27
ENDBRANCH  22  23
ENDBRANCH   4  22
TORSDOF 6
ENDMDL
MODEL 3
REMARK VINA RESULT:      -8.0      3.390      8.504
REMARK  6 active torsions:
REMARK  status: ('A' for Active; 'I' for Inactive)
REMARK    1  A    between atoms: C_4  and  N_5 
REMARK       I    between atoms: N_5  and  C_6 
REMARK       I    between atoms: C_6  and  N_7 
REMARK    2  A    between atoms: N_7  and  C_8 
REMARK    3  A    between atoms: N_11  and  C_13 
REMARK    4  A    between atoms: C_13  and  C_14 
REMARK       I    between atoms: C_14  and  N_15 
REMARK    5  A    between atoms: N_15  and  C_16 
REMARK    6  A    between atoms: C_16  and  C_17 
ROOT
HETATM    1  C   UNL     1     -43.339  56.181 -54.444  1.00  0.00     0.090 C 
HETATM    2  C   UNL     1     -44.171  57.064 -53.500  1.00  0.00     0.058 C 
HETATM    3  C   UNL     1     -43.505  57.414 -52.164  1.00  0.00     0.191 C 
HETATM    4  N   UNL     1     -42.457  56.399 -51.803  1.00  0.00    -0.054 N 
HETATM    5  H   UNL     1     -42.098  56.699 -50.875  1.00  0.00     0.281 HD
HETATM    6  C   UNL     1     -41.380  56.674 -52.807  1.00  0.00     0.191 C 
HETATM    7  C   UNL     1     -41.816  56.224 -54.200  1.00  0.00     0.058 C 
HETATM    8  C   UNL     1     -42.654  58.684 -52.286  1.00  0.00     0.035 C 
HETATM    9  C   UNL     1     -41.269  58.201 -52.718  1.00  0.00     0.035 C 
ENDROOT
BRANCH   1  10
HETATM   10  N   UNL     1     -43.701  56.418 -55.841  1.00  0.00    -0.338 N 
HETATM   11  C   UNL     1     -43.272  57.550 -56.478  1.00  0.00     0.321 C 
HETATM   12  N   UNL     1     -43.482  57.645 -57.815  1.00  0.00    -0.309 N 
HETATM   13  O   UNL     1     -42.652  58.435 -55.893  1.00  0.00    -0.247 OA
HETATM   14  H   UNL     1     -42.962  58.423 -58.206  1.00  0.00     0.170 HD
HETATM   15  H   UNL     1     -43.637  55.621 -56.464  1.00  0.00     0.164 HD
BRANCH  12  16
HETATM   16  C   UNL     1     -44.270  56.919 -58.728  1.00  0.00     0.036 A 
HETATM   17  C   UNL     1     -45.560  57.275 -59.124  1.00  0.00     0.029 A 
HETATM   18  C   UNL     1     -46.261  56.484 -60.042  1.00  0.00     0.002 A 
HETATM   19  C   UNL     1     -45.674  55.342 -60.581  1.00  0.00     0.000 A 
HETATM   20  C   UNL     1     -44.377  54.996 -60.216  1.00  0.00     0.002 A 
HETATM   21  C   UNL     1     -43.678  55.785 -59.299  1.00  0.00     0.029 A 
ENDBRANCH  12  16
ENDBRANCH   1  10
BRANCH   4  22
HETATM   22  C   UNL     1     -42.873  54.969 -51.509  1.00  0.00     0.338 C 
BRANCH  22  23
HETATM   23  C   UNL     1     -41.663  54.172 -51.017  1.00  0.00     0.243 C 
HETATM   24  N   UNL     1     -40.968  53.492 -51.974  1.00  0.00    -0.354 N 
HETATM   25  H   UNL     1     -41.244  53.490 -52.952  1.00  0.00     0.162 HD
HETATM   26  O   UNL     1     -41.399  54.149 -49.816  1.00  0.00    -0.272 OA
BRANCH  24  27
HETATM   27  C   UNL     1     -39.854  52.626 -51.640  1.00  0.00     0.187 C 
BRANCH  27  28
HETATM   28  C   UNL     1     -39.797  51.504 -52.612  1.00  0.00     0.070 A 
HETATM   29  O   UNL     1     -39.490  50.263 -52.119  1.00  0.00    -0.325 OA
HETATM   30  C   UNL     1     -39.482  49.408 -53.175  1.00  0.00     0.142 A 
HETATM   31  C   UNL     1     -39.781  50.078 -54.337  1.00  0.00     0.027 A 
HETATM   32  C   UNL     1     -39.985  51.430 -53.976  1.00  0.00     0.036 A 
ENDBRANCH  27  28
ENDBRANCH  24  27
ENDBRANCH  22  23
ENDBRANCH   4  22
TORSDOF 6
ENDMDL
MODEL 4
REMARK VINA RESULT:      -8.0      3.306      6.606
REMARK  6 active torsions:
REMARK  status: ('A' for Active; 'I' for Inactive)
REMARK    1  A    between atoms: C_4  and  N_5 
REMARK       I    between atoms: N_5  and  C_6 
REMARK       I    between atoms: C_6  and  N_7 
REMARK    2  A    between atoms: N_7  and  C_8 
REMARK    3  A    between atoms: N_11  and  C_13 
REMARK    4  A    between atoms: C_13  and  C_14 
REMARK       I    between atoms: C_14  and  N_15 
REMARK    5  A    between atoms: N_15  and  C_16 
REMARK    6  A    between atoms: C_16  and  C_17 
ROOT
HETATM    1  C   UNL     1     -42.661  55.393 -53.071  1.00  0.00     0.090 C 
HETATM    2  C   UNL     1     -41.921  56.476 -53.873  1.00  0.00     0.058 C 
HETATM    3  C   UNL     1     -42.500  57.892 -53.763  1.00  0.00     0.191 C 
HETATM    4  N   UNL     1     -43.952  57.851 -53.378  1.00  0.00    -0.054 N 
HETATM    5  H   UNL     1     -44.258  58.845 -53.368  1.00  0.00     0.281 HD
HETATM    6  C   UNL     1     -43.897  57.390 -51.953  1.00  0.00     0.191 C 
HETATM    7  C   UNL     1     -43.489  55.918 -51.881  1.00  0.00     0.058 C 
HETATM    8  C   UNL     1     -41.901  58.643 -52.567  1.00  0.00     0.035 C 
HETATM    9  C   UNL     1     -42.807  58.304 -51.383  1.00  0.00     0.035 C 
ENDROOT
BRANCH   1  10
HETATM   10  N   UNL     1     -41.759  54.304 -52.704  1.00  0.00    -0.338 N 
HETATM   11  C   UNL     1     -40.867  54.468 -51.679  1.00  0.00     0.321 C 
HETATM   12  N   UNL     1     -40.174  53.380 -51.259  1.00  0.00    -0.309 N 
HETATM   13  O   UNL     1     -40.730  55.541 -51.096  1.00  0.00    -0.247 OA
HETATM   14  H   UNL     1     -39.696  53.573 -50.386  1.00  0.00     0.170 HD
HETATM   15  H   UNL     1     -42.165  53.375 -52.668  1.00  0.00     0.164 HD
BRANCH  12  16
HETATM   16  C   UNL     1     -39.977  52.090 -51.788  1.00  0.00     0.036 A 
HETATM   17  C   UNL     1     -39.809  51.805 -53.145  1.00  0.00     0.029 A 
HETATM   18  C   UNL     1     -39.618  50.485 -53.571  1.00  0.00     0.002 A 
HETATM   19  C   UNL     1     -39.577  49.445 -52.645  1.00  0.00     0.000 A 
HETATM   20  C   UNL     1     -39.712  49.723 -51.289  1.00  0.00     0.002 A 
HETATM   21  C   UNL     1     -39.904  51.040 -50.864  1.00  0.00     0.029 A 
ENDBRANCH  12  16
ENDBRANCH   1  10
BRANCH   4  22
HETATM   22  C   UNL     1     -44.961  57.242 -54.334  1.00  0.00     0.338 C 
BRANCH  22  23
HETATM   23  C   UNL     1     -44.840  57.911 -55.704  1.00  0.00     0.243 C 
HETATM   24  N   UNL     1     -44.436  57.105 -56.728  1.00  0.00    -0.354 N 
HETATM   25  H   UNL     1     -44.205  56.125 -56.593  1.00  0.00     0.162 HD
HETATM   26  O   UNL     1     -45.067  59.116 -55.814  1.00  0.00    -0.272 OA
BRANCH  24  27
HETATM   27  C   UNL     1     -44.193  57.623 -58.060  1.00  0.00     0.187 C 
BRANCH  27  28
HETATM   28  C   UNL     1     -44.500  56.569 -59.061  1.00  0.00     0.070 A 
HETATM   29  O   UNL     1     -45.731  56.612 -59.660  1.00  0.00    -0.325 OA
HETATM   30  C   UNL     1     -45.792  55.559 -60.516  1.00  0.00     0.142 A 
HETATM   31  C   UNL     1     -44.620  54.841 -60.480  1.00  0.00     0.027 A 
HETATM   32  C   UNL     1     -43.785  55.492 -59.541  1.00  0.00     0.036 A 
ENDBRANCH  27  28
ENDBRANCH  24  27
ENDBRANCH  22  23
ENDBRANCH   4  22
TORSDOF 6
ENDMDL
MODEL 5
REMARK VINA RESULT:      -8.0      2.838      7.773
REMARK  6 active torsions:
REMARK  status: ('A' for Active; 'I' for Inactive)
REMARK    1  A    between atoms: C_4  and  N_5 
REMARK       I    between atoms: N_5  and  C_6 
REMARK       I    between atoms: C_6  and  N_7 
REMARK    2  A    between atoms: N_7  and  C_8 
REMARK    3  A    between atoms: N_11  and  C_13 
REMARK    4  A    between atoms: C_13  and  C_14 
REMARK       I    between atoms: C_14  and  N_15 
REMARK    5  A    between atoms: N_15  and  C_16 
REMARK    6  A    between atoms: C_16  and  C_17 
ROOT
HETATM    1  C   UNL     1     -42.494  57.118 -53.433  1.00  0.00     0.090 C 
HETATM    2  C   UNL     1     -43.294  56.088 -52.619  1.00  0.00     0.058 C 
HETATM    3  C   UNL     1     -43.525  56.445 -51.146  1.00  0.00     0.191 C 
HETATM    4  N   UNL     1     -42.480  57.407 -50.655  1.00  0.00    -0.054 N 
HETATM    5  H   UNL     1     -42.697  57.553 -49.649  1.00  0.00     0.281 HD
HETATM    6  C   UNL     1     -42.838  58.671 -51.376  1.00  0.00     0.191 C 
HETATM    7  C   UNL     1     -42.512  58.551 -52.864  1.00  0.00     0.058 C 
HETATM    8  C   UNL     1     -44.798  57.282 -50.972  1.00  0.00     0.035 C 
HETATM    9  C   UNL     1     -44.351  58.735 -51.135  1.00  0.00     0.035 C 
ENDROOT
BRANCH   1  10
HETATM   10  N   UNL     1     -42.852  57.060 -54.849  1.00  0.00    -0.338 N 
HETATM   11  C   UNL     1     -44.157  57.205 -55.233  1.00  0.00     0.321 C 
HETATM   12  N   UNL     1     -44.420  57.320 -56.559  1.00  0.00    -0.309 N 
HETATM   13  O   UNL     1     -45.072  57.302 -54.419  1.00  0.00    -0.247 OA
HETATM   14  H   UNL     1     -45.379  57.611 -56.711  1.00  0.00     0.170 HD
HETATM   15  H   UNL     1     -42.242  57.558 -55.489  1.00  0.00     0.164 HD
BRANCH  12  16
HETATM   16  C   UNL     1     -43.660  57.099 -57.723  1.00  0.00     0.036 A 
HETATM   17  C   UNL     1     -43.632  55.901 -58.439  1.00  0.00     0.029 A 
HETATM   18  C   UNL     1     -42.841  55.783 -59.588  1.00  0.00     0.002 A 
HETATM   19  C   UNL     1     -42.085  56.863 -60.038  1.00  0.00     0.000 A 
HETATM   20  C   UNL     1     -42.130  58.071 -59.349  1.00  0.00     0.002 A 
HETATM   21  C   UNL     1     -42.919  58.188 -58.201  1.00  0.00     0.029 A 
ENDBRANCH  12  16
ENDBRANCH   1  10
BRANCH   4  22
HETATM   22  C   UNL     1     -41.031  56.961 -50.581  1.00  0.00     0.338 C 
BRANCH  22  23
HETATM   23  C   UNL     1     -40.962  55.518 -50.078  1.00  0.00     0.243 C 
HETATM   24  N   UNL     1     -40.577  54.585 -50.996  1.00  0.00    -0.354 N 
HETATM   25  H   UNL     1     -40.371  54.821 -51.962  1.00  0.00     0.162 HD
HETATM   26  O   UNL     1     -41.282  55.263 -48.918  1.00  0.00    -0.272 OA
BRANCH  24  27
HETATM   27  C   UNL     1     -40.553  53.169 -50.683  1.00  0.00     0.187 C 
BRANCH  27  28
HETATM   28  C   UNL     1     -40.201  52.402 -51.906  1.00  0.00     0.070 A 
HETATM   29  O   UNL     1     -40.658  52.886 -53.103  1.00  0.00    -0.325 OA
HETATM   30  C   UNL     1     -40.231  52.028 -54.066  1.00  0.00     0.142 A 
HETATM   31  C   UNL     1     -39.505  51.003 -53.509  1.00  0.00     0.027 A 
HETATM   32  C   UNL     1     -39.485  51.243 -52.114  1.00  0.00     0.036 A 
ENDBRANCH  27  28
ENDBRANCH  24  27
ENDBRANCH  22  23
ENDBRANCH   4  22
TORSDOF 6
ENDMDL
MODEL 6
REMARK VINA RESULT:      -7.8     16.809     19.758
REMARK  6 active torsions:
REMARK  status: ('A' for Active; 'I' for Inactive)
REMARK    1  A    between atoms: C_4  and  N_5 
REMARK       I    between atoms: N_5  and  C_6 
REMARK       I    between atoms: C_6  and  N_7 
REMARK    2  A    between atoms: N_7  and  C_8 
REMARK    3  A    between atoms: N_11  and  C_13 
REMARK    4  A    between atoms: C_13  and  C_14 
REMARK       I    between atoms: C_14  and  N_15 
REMARK    5  A    between atoms: N_15  and  C_16 
REMARK    6  A    between atoms: C_16  and  C_17 
ROOT
HETATM    1  C   UNL     1     -34.155  40.589 -54.019  1.00  0.00     0.090 C 
HETATM    2  C   UNL     1     -32.786  40.504 -54.713  1.00  0.00     0.058 C 
HETATM    3  C   UNL     1     -31.763  39.577 -54.046  1.00  0.00     0.191 C 
HETATM    4  N   UNL     1     -32.078  39.388 -52.589  1.00  0.00    -0.054 N 
HETATM    5  H   UNL     1     -31.315  38.785 -52.222  1.00  0.00     0.281 HD
HETATM    6  C   UNL     1     -33.322  38.553 -52.632  1.00  0.00     0.191 C 
HETATM    7  C   UNL     1     -34.507  39.382 -53.127  1.00  0.00     0.058 C 
HETATM    8  C   UNL     1     -31.897  38.140 -54.564  1.00  0.00     0.035 C 
HETATM    9  C   UNL     1     -32.925  37.476 -53.648  1.00  0.00     0.035 C 
ENDROOT
BRANCH   1  10
HETATM   10  N   UNL     1     -35.209  40.921 -54.975  1.00  0.00    -0.338 N 
HETATM   11  C   UNL     1     -36.071  41.951 -54.716  1.00  0.00     0.321 C 
HETATM   12  N   UNL     1     -36.919  42.335 -55.703  1.00  0.00    -0.309 N 
HETATM   13  O   UNL     1     -36.050  42.571 -53.655  1.00  0.00    -0.247 OA
HETATM   14  H   UNL     1     -37.367  43.214 -55.471  1.00  0.00     0.170 HD
HETATM   15  H   UNL     1     -34.946  40.924 -55.954  1.00  0.00     0.164 HD
BRANCH  12  16
HETATM   16  C   UNL     1     -37.303  41.762 -56.930  1.00  0.00     0.036 A 
HETATM   17  C   UNL     1     -38.168  40.673 -57.063  1.00  0.00     0.029 A 
HETATM   18  C   UNL     1     -38.490  40.177 -58.332  1.00  0.00     0.002 A 
HETATM   19  C   UNL     1     -37.963  40.773 -59.476  1.00  0.00     0.000 A 
HETATM   20  C   UNL     1     -37.125  41.877 -59.355  1.00  0.00     0.002 A 
HETATM   21  C   UNL     1     -36.803  42.371 -58.088  1.00  0.00     0.029 A 
ENDBRANCH  12  16
ENDBRANCH   1  10
BRANCH   4  22
HETATM   22  C   UNL     1     -31.993  40.574 -51.647  1.00  0.00     0.338 C 
BRANCH  22  23
HETATM   23  C   UNL     1     -32.517  40.174 -50.266  1.00  0.00     0.243 C 
HETATM   24  N   UNL     1     -31.648  39.481 -49.476  1.00  0.00    -0.354 N 
HETATM   25  H   UNL     1     -30.716  39.221 -49.786  1.00  0.00     0.162 HD
HETATM   26  O   UNL     1     -33.674  40.451 -49.952  1.00  0.00    -0.272 OA
BRANCH  24  27
HETATM   27  C   UNL     1     -32.039  38.961 -48.180  1.00  0.00     0.187 C 
BRANCH  27  28
HETATM   28  C   UNL     1     -31.072  39.425 -47.152  1.00  0.00     0.070 A 
HETATM   29  O   UNL     1     -30.691  40.740 -47.199  1.00  0.00    -0.325 OA
HETATM   30  C   UNL     1     -29.806  40.932 -46.186  1.00  0.00     0.142 A 
HETATM   31  C   UNL     1     -29.614  39.764 -45.488  1.00  0.00     0.027 A 
HETATM   32  C   UNL     1     -30.431  38.790 -46.110  1.00  0.00     0.036 A 
ENDBRANCH  27  28
ENDBRANCH  24  27
ENDBRANCH  22  23
ENDBRANCH   4  22
TORSDOF 6
ENDMDL
MODEL 7
REMARK VINA RESULT:      -7.7      1.981      9.503
REMARK  6 active torsions:
REMARK  status: ('A' for Active; 'I' for Inactive)
REMARK    1  A    between atoms: C_4  and  N_5 
REMARK       I    between atoms: N_5  and  C_6 
REMARK       I    between atoms: C_6  and  N_7 
REMARK    2  A    between atoms: N_7  and  C_8 
REMARK    3  A    between atoms: N_11  and  C_13 
REMARK    4  A    between atoms: C_13  and  C_14 
REMARK       I    between atoms: C_14  and  N_15 
REMARK    5  A    between atoms: N_15  and  C_16 
REMARK    6  A    between atoms: C_16  and  C_17 
ROOT
HETATM    1  C   UNL     1     -43.511  58.213 -51.394  1.00  0.00     0.090 C 
HETATM    2  C   UNL     1     -44.084  56.834 -51.028  1.00  0.00     0.058 C 
HETATM    3  C   UNL     1     -43.137  55.647 -51.237  1.00  0.00     0.191 C 
HETATM    4  N   UNL     1     -42.083  55.973 -52.259  1.00  0.00    -0.054 N 
HETATM    5  H   UNL     1     -41.523  55.103 -52.358  1.00  0.00     0.281 HD
HETATM    6  C   UNL     1     -41.230  56.972 -51.538  1.00  0.00     0.191 C 
HETATM    7  C   UNL     1     -41.971  58.300 -51.384  1.00  0.00     0.058 C 
HETATM    8  C   UNL     1     -42.273  55.403 -49.994  1.00  0.00     0.035 C 
HETATM    9  C   UNL     1     -41.033  56.278 -50.185  1.00  0.00     0.035 C 
ENDROOT
BRANCH   1  10
HETATM   10  N   UNL     1     -44.148  59.271 -50.613  1.00  0.00    -0.338 N 
HETATM   11  C   UNL     1     -45.260  59.906 -51.097  1.00  0.00     0.321 C 
HETATM   12  N   UNL     1     -45.918  60.755 -50.269  1.00  0.00    -0.309 N 
HETATM   13  O   UNL     1     -45.708  59.678 -52.218  1.00  0.00    -0.247 OA
HETATM   14  H   UNL     1     -46.817  61.014 -50.660  1.00  0.00     0.170 HD
HETATM   15  H   UNL     1     -44.249  59.100 -49.619  1.00  0.00     0.164 HD
BRANCH  12  16
HETATM   16  C   UNL     1     -45.601  61.345 -49.031  1.00  0.00     0.036 A 
HETATM   17  C   UNL     1     -45.184  62.667 -48.863  1.00  0.00     0.029 A 
HETATM   18  C   UNL     1     -44.892  63.159 -47.585  1.00  0.00     0.002 A 
HETATM   19  C   UNL     1     -45.030  62.341 -46.466  1.00  0.00     0.000 A 
HETATM   20  C   UNL     1     -45.474  61.032 -46.620  1.00  0.00     0.002 A 
HETATM   21  C   UNL     1     -45.764  60.540 -47.895  1.00  0.00     0.029 A 
ENDBRANCH  12  16
ENDBRANCH   1  10
BRANCH   4  22
HETATM   22  C   UNL     1     -42.492  56.225 -53.698  1.00  0.00     0.338 C 
BRANCH  22  23
HETATM   23  C   UNL     1     -42.022  55.064 -54.577  1.00  0.00     0.243 C 
HETATM   24  N   UNL     1     -40.882  54.433 -54.172  1.00  0.00    -0.354 N 
HETATM   25  H   UNL     1     -40.358  54.726 -53.353  1.00  0.00     0.162 HD
HETATM   26  O   UNL     1     -42.649  54.782 -55.597  1.00  0.00    -0.272 OA
BRANCH  24  27
HETATM   27  C   UNL     1     -40.273  53.376 -54.955  1.00  0.00     0.187 C 
BRANCH  27  28
HETATM   28  C   UNL     1     -40.040  52.193 -54.088  1.00  0.00     0.070 A 
HETATM   29  O   UNL     1     -39.825  52.426 -52.755  1.00  0.00    -0.325 OA
HETATM   30  C   UNL     1     -39.627  51.217 -52.168  1.00  0.00     0.142 A 
HETATM   31  C   UNL     1     -39.713  50.210 -53.101  1.00  0.00     0.027 A 
HETATM   32  C   UNL     1     -39.980  50.839 -54.340  1.00  0.00     0.036 A 
ENDBRANCH  27  28
ENDBRANCH  24  27
ENDBRANCH  22  23
ENDBRANCH   4  22
TORSDOF 6
ENDMDL
MODEL 8
REMARK VINA RESULT:      -7.6     16.832     19.694
REMARK  6 active torsions:
REMARK  status: ('A' for Active; 'I' for Inactive)
REMARK    1  A    between atoms: C_4  and  N_5 
REMARK       I    between atoms: N_5  and  C_6 
REMARK       I    between atoms: C_6  and  N_7 
REMARK    2  A    between atoms: N_7  and  C_8 
REMARK    3  A    between atoms: N_11  and  C_13 
REMARK    4  A    between atoms: C_13  and  C_14 
REMARK       I    between atoms: C_14  and  N_15 
REMARK    5  A    between atoms: N_15  and  C_16 
REMARK    6  A    between atoms: C_16  and  C_17 
ROOT
HETATM    1  C   UNL     1     -35.366  39.989 -52.354  1.00  0.00     0.090 C 
HETATM    2  C   UNL     1     -34.562  41.166 -51.779  1.00  0.00     0.058 C 
HETATM    3  C   UNL     1     -33.284  40.786 -51.022  1.00  0.00     0.191 C 
HETATM    4  N   UNL     1     -33.361  39.375 -50.509  1.00  0.00    -0.054 N 
HETATM    5  H   UNL     1     -32.476  39.229 -49.983  1.00  0.00     0.281 HD
HETATM    6  C   UNL     1     -33.269  38.567 -51.767  1.00  0.00     0.191 C 
HETATM    7  C   UNL     1     -34.554  38.698 -52.584  1.00  0.00     0.058 C 
HETATM    8  C   UNL     1     -32.086  40.686 -51.975  1.00  0.00     0.035 C 
HETATM    9  C   UNL     1     -32.085  39.239 -52.471  1.00  0.00     0.035 C 
ENDROOT
BRANCH   1  10
HETATM   10  N   UNL     1     -36.132  40.400 -53.529  1.00  0.00    -0.338 N 
HETATM   11  C   UNL     1     -37.364  40.975 -53.378  1.00  0.00     0.321 C 
HETATM   12  N   UNL     1     -37.961  41.497 -54.479  1.00  0.00    -0.309 N 
HETATM   13  O   UNL     1     -37.903  41.090 -52.280  1.00  0.00    -0.247 OA
HETATM   14  H   UNL     1     -38.765  42.058 -54.219  1.00  0.00     0.170 HD
HETATM   15  H   UNL     1     -35.614  40.870 -54.263  1.00  0.00     0.164 HD
BRANCH  12  16
HETATM   16  C   UNL     1     -37.707  41.399 -55.860  1.00  0.00     0.036 A 
HETATM   17  C   UNL     1     -38.418  40.583 -56.743  1.00  0.00     0.029 A 
HETATM   18  C   UNL     1     -38.087  40.557 -58.103  1.00  0.00     0.002 A 
HETATM   19  C   UNL     1     -37.057  41.357 -58.593  1.00  0.00     0.000 A 
HETATM   20  C   UNL     1     -36.364  42.196 -57.727  1.00  0.00     0.002 A 
HETATM   21  C   UNL     1     -36.693  42.221 -56.369  1.00  0.00     0.029 A 
ENDBRANCH  12  16
ENDBRANCH   1  10
BRANCH   4  22
HETATM   22  C   UNL     1     -34.392  39.021 -49.453  1.00  0.00     0.338 C 
BRANCH  22  23
HETATM   23  C   UNL     1     -33.693  38.410 -48.237  1.00  0.00     0.243 C 
HETATM   24  N   UNL     1     -32.365  38.693 -48.107  1.00  0.00    -0.354 N 
HETATM   25  H   UNL     1     -31.857  39.253 -48.786  1.00  0.00     0.162 HD
HETATM   26  O   UNL     1     -34.329  37.684 -47.474  1.00  0.00    -0.272 OA
BRANCH  24  27
HETATM   27  C   UNL     1     -31.557  38.109 -47.054  1.00  0.00     0.187 C 
BRANCH  27  28
HETATM   28  C   UNL     1     -30.911  39.195 -46.273  1.00  0.00     0.070 A 
HETATM   29  O   UNL     1     -30.394  40.251 -46.975  1.00  0.00    -0.325 OA
HETATM   30  C   UNL     1     -29.849  41.103 -46.068  1.00  0.00     0.142 A 
HETATM   31  C   UNL     1     -30.010  40.613 -44.793  1.00  0.00     0.027 A 
HETATM   32  C   UNL     1     -30.695  39.382 -44.924  1.00  0.00     0.036 A 
ENDBRANCH  27  28
ENDBRANCH  24  27
ENDBRANCH  22  23
ENDBRANCH   4  22
TORSDOF 6
ENDMDL
MODEL 9
REMARK VINA RESULT:      -7.6      4.110      8.676
REMARK  6 active torsions:
REMARK  status: ('A' for Active; 'I' for Inactive)
REMARK    1  A    between atoms: C_4  and  N_5 
REMARK       I    between atoms: N_5  and  C_6 
REMARK       I    between atoms: C_6  and  N_7 
REMARK    2  A    between atoms: N_7  and  C_8 
REMARK    3  A    between atoms: N_11  and  C_13 
REMARK    4  A    between atoms: C_13  and  C_14 
REMARK       I    between atoms: C_14  and  N_15 
REMARK    5  A    between atoms: N_15  and  C_16 
REMARK    6  A    between atoms: C_16  and  C_17 
ROOT
HETATM    1  C   UNL     1     -43.429  56.601 -54.488  1.00  0.00     0.090 C 
HETATM    2  C   UNL     1     -41.967  57.047 -54.653  1.00  0.00     0.058 C 
HETATM    3  C   UNL     1     -40.914  56.073 -54.112  1.00  0.00     0.191 C 
HETATM    4  N   UNL     1     -41.499  55.181 -53.053  1.00  0.00    -0.054 N 
HETATM    5  H   UNL     1     -40.707  54.593 -52.726  1.00  0.00     0.281 HD
HETATM    6  C   UNL     1     -42.414  54.295 -53.843  1.00  0.00     0.191 C 
HETATM    7  C   UNL     1     -43.631  55.080 -54.331  1.00  0.00     0.058 C 
HETATM    8  C   UNL     1     -40.516  55.042 -55.175  1.00  0.00     0.035 C 
HETATM    9  C   UNL     1     -41.504  53.887 -55.007  1.00  0.00     0.035 C 
ENDROOT
BRANCH   1  10
HETATM   10  N   UNL     1     -44.277  57.187 -55.524  1.00  0.00    -0.338 N 
HETATM   11  C   UNL     1     -45.149  58.193 -55.209  1.00  0.00     0.321 C 
HETATM   12  N   UNL     1     -45.786  58.824 -56.228  1.00  0.00    -0.309 N 
HETATM   13  O   UNL     1     -45.313  58.580 -54.055  1.00  0.00    -0.247 OA
HETATM   14  H   UNL     1     -46.249  59.663 -55.897  1.00  0.00     0.170 HD
HETATM   15  H   UNL     1     -43.834  57.374 -56.417  1.00  0.00     0.164 HD
BRANCH  12  16
HETATM   16  C   UNL     1     -45.946  58.539 -57.597  1.00  0.00     0.036 A 
HETATM   17  C   UNL     1     -46.956  57.736 -58.130  1.00  0.00     0.029 A 
HETATM   18  C   UNL     1     -47.030  57.516 -59.510  1.00  0.00     0.002 A 
HETATM   19  C   UNL     1     -46.105  58.107 -60.369  1.00  0.00     0.000 A 
HETATM   20  C   UNL     1     -45.114  58.934 -59.850  1.00  0.00     0.002 A 
HETATM   21  C   UNL     1     -45.040  59.153 -58.472  1.00  0.00     0.029 A 
ENDBRANCH  12  16
ENDBRANCH   1  10
BRANCH   4  22
HETATM   22  C   UNL     1     -41.974  55.788 -51.745  1.00  0.00     0.338 C 
BRANCH  22  23
HETATM   23  C   UNL     1     -41.942  54.726 -50.644  1.00  0.00     0.243 C 
HETATM   24  N   UNL     1     -40.729  54.146 -50.410  1.00  0.00    -0.354 N 
HETATM   25  H   UNL     1     -39.899  54.380 -50.946  1.00  0.00     0.162 HD
HETATM   26  O   UNL     1     -42.983  54.425 -50.061  1.00  0.00    -0.272 OA
BRANCH  24  27
HETATM   27  C   UNL     1     -40.570  53.064 -49.458  1.00  0.00     0.187 C 
BRANCH  27  28
HETATM   28  C   UNL     1     -40.203  51.821 -50.184  1.00  0.00     0.070 A 
HETATM   29  O   UNL     1     -39.716  51.959 -51.457  1.00  0.00    -0.325 OA
HETATM   30  C   UNL     1     -39.463  50.709 -51.923  1.00  0.00     0.142 A 
HETATM   31  C   UNL     1     -39.776  49.769 -50.970  1.00  0.00     0.027 A 
HETATM   32  C   UNL     1     -40.254  50.485 -49.847  1.00  0.00     0.036 A 
ENDBRANCH  27  28
ENDBRANCH  24  27
ENDBRANCH  22  23
ENDBRANCH   4  22
TORSDOF 6
ENDMDL
MODEL 10
REMARK VINA RESULT:      -7.6     17.332     20.123
REMARK  6 active torsions:
REMARK  status: ('A' for Active; 'I' for Inactive)
REMARK    1  A    between atoms: C_4  and  N_5 
REMARK       I    between atoms: N_5  and  C_6 
REMARK       I    between atoms: C_6  and  N_7 
REMARK    2  A    between atoms: N_7  and  C_8 
REMARK    3  A    between atoms: N_11  and  C_13 
REMARK    4  A    between atoms: C_13  and  C_14 
REMARK       I    between atoms: C_14  and  N_15 
REMARK    5  A    between atoms: N_15  and  C_16 
REMARK    6  A    between atoms: C_16  and  C_17 
ROOT
HETATM    1  C   UNL     1     -34.954  40.103 -55.953  1.00  0.00     0.090 C 
HETATM    2  C   UNL     1     -35.061  41.528 -56.520  1.00  0.00     0.058 C 
HETATM    3  C   UNL     1     -36.337  41.828 -57.316  1.00  0.00     0.191 C 
HETATM    4  N   UNL     1     -36.942  40.564 -57.861  1.00  0.00    -0.054 N 
HETATM    5  H   UNL     1     -37.767  40.873 -58.411  1.00  0.00     0.281 HD
HETATM    6  C   UNL     1     -37.458  39.893 -56.624  1.00  0.00     0.191 C 
HETATM    7  C   UNL     1     -36.300  39.372 -55.773  1.00  0.00     0.058 C 
HETATM    8  C   UNL     1     -37.462  42.318 -56.396  1.00  0.00     0.035 C 
HETATM    9  C   UNL     1     -38.185  41.052 -55.934  1.00  0.00     0.035 C 
ENDROOT
BRANCH   1  10
HETATM   10  N   UNL     1     -34.124  40.077 -54.750  1.00  0.00    -0.338 N 
HETATM   11  C   UNL     1     -32.786  40.349 -54.834  1.00  0.00     0.321 C 
HETATM   12  N   UNL     1     -32.091  40.485 -53.677  1.00  0.00    -0.309 N 
HETATM   13  O   UNL     1     -32.223  40.538 -55.909  1.00  0.00    -0.247 OA
HETATM   14  H   UNL     1     -31.170  40.870 -53.854  1.00  0.00     0.170 HD
HETATM   15  H   UNL     1     -34.518  40.510 -53.921  1.00  0.00     0.164 HD
BRANCH  12  16
HETATM   16  C   UNL     1     -32.378  40.187 -52.331  1.00  0.00     0.036 A 
HETATM   17  C   UNL     1     -33.111  41.009 -51.473  1.00  0.00     0.029 A 
HETATM   18  C   UNL     1     -33.343  40.620 -50.149  1.00  0.00     0.002 A 
HETATM   19  C   UNL     1     -32.858  39.402 -49.676  1.00  0.00     0.000 A 
HETATM   20  C   UNL     1     -32.153  38.563 -50.532  1.00  0.00     0.002 A 
HETATM   21  C   UNL     1     -31.920  38.951 -51.854  1.00  0.00     0.029 A 
ENDBRANCH  12  16
ENDBRANCH   1  10
BRANCH   4  22
HETATM   22  C   UNL     1     -36.181  39.759 -58.899  1.00  0.00     0.338 C 
BRANCH  22  23
HETATM   23  C   UNL     1     -36.983  39.711 -60.201  1.00  0.00     0.243 C 
HETATM   24  N   UNL     1     -37.236  38.467 -60.700  1.00  0.00    -0.354 N 
HETATM   25  H   UNL     1     -36.895  37.620 -60.254  1.00  0.00     0.162 HD
HETATM   26  O   UNL     1     -37.322  40.762 -60.744  1.00  0.00    -0.272 OA
BRANCH  24  27
HETATM   27  C   UNL     1     -37.907  38.274 -61.970  1.00  0.00     0.187 C 
BRANCH  27  28
HETATM   28  C   UNL     1     -39.363  38.096 -61.735  1.00  0.00     0.070 A 
HETATM   29  O   UNL     1     -40.170  38.004 -62.838  1.00  0.00    -0.325 OA
HETATM   30  C   UNL     1     -41.443  37.860 -62.387  1.00  0.00     0.142 A 
HETATM   31  C   UNL     1     -41.468  37.855 -61.013  1.00  0.00     0.027 A 
HETATM   32  C   UNL     1     -40.126  38.007 -60.590  1.00  0.00     0.036 A 
ENDBRANCH  27  28
ENDBRANCH  24  27
ENDBRANCH  22  23
ENDBRANCH   4  22
TORSDOF 6
ENDMDL
