MODEL 1
REMARK VINA RESULT:      -8.2      0.000      0.000
REMARK  8 active torsions:
REMARK  status: ('A' for Active; 'I' for Inactive)
REMARK    1  A    between atoms: C_2  and  O_3 
REMARK    2  A    between atoms: O_3  and  C_4 
REMARK    3  A    between atoms: C_8  and  C_9 
REMARK       I    between atoms: C_9  and  N_10 
REMARK    4  A    between atoms: N_10  and  C_11 
REMARK    5  A    between atoms: N_22  and  C_23 
REMARK    6  A    between atoms: C_23  and  C_24 
REMARK    7  A    between atoms: C_24  and  C_25 
REMARK    8  A    between atoms: C_25  and  O_26 
ROOT
HETATM    1  C   UNL     1     -42.996  60.089 -51.354  1.00  0.00     0.102 A 
HETATM    2  C   UNL     1     -43.392  59.214 -52.360  1.00  0.00     0.113 A 
HETATM    3  C   UNL     1     -44.637  58.522 -52.239  1.00  0.00     0.002 A 
HETATM    4  C   UNL     1     -44.840  57.453 -53.298  1.00  0.00     0.138 C 
HETATM    5  C   UNL     1     -43.497  56.727 -53.206  1.00  0.00     0.161 C 
HETATM    6  C   UNL     1     -42.631  57.616 -54.087  1.00  0.00     0.155 C 
HETATM    7  C   UNL     1     -41.129  57.262 -54.018  1.00  0.00     0.072 C 
HETATM    8  N   UNL     1     -43.218  57.607 -55.509  1.00  0.00    -0.325 N 
HETATM    9  C   UNL     1     -44.620  57.681 -55.704  1.00  0.00     0.172 C 
HETATM   10  S   UNL     1     -45.466  58.253 -57.029  1.00  0.00    -0.041 SA
HETATM   11  N   UNL     1     -45.397  57.297 -54.611  1.00  0.00    -0.357 N 
HETATM   12  O   UNL     1     -42.611  58.995 -53.500  1.00  0.00    -0.316 OA
HETATM   13  C   UNL     1     -45.504  58.775 -51.183  1.00  0.00     0.012 A 
HETATM   14  C   UNL     1     -45.128  59.722 -50.230  1.00  0.00     0.003 A 
HETATM   15  C   UNL     1     -43.885  60.370 -50.312  1.00  0.00     0.040 A 
HETATM   16  H   UNL     1     -46.385  57.443 -54.739  1.00  0.00     0.162 HD
ENDROOT
BRANCH   5  17
HETATM   17  C   UNL     1     -43.385  55.240 -53.537  1.00  0.00     0.233 C 
HETATM   18  N   UNL     1     -42.370  54.683 -52.754  1.00  0.00    -0.326 N 
HETATM   19  H   UNL     1     -41.995  55.268 -52.024  1.00  0.00     0.169 HD
HETATM   20  O   UNL     1     -43.995  54.674 -54.431  1.00  0.00    -0.273 OA
BRANCH  18  21
HETATM   21  C   UNL     1     -41.594  53.547 -53.038  1.00  0.00     0.040 A 
HETATM   22  C   UNL     1     -40.733  53.061 -52.029  1.00  0.00    -0.035 A 
HETATM   23  C   UNL     1     -40.516  53.745 -50.701  1.00  0.00     0.050 C 
HETATM   24  C   UNL     1     -39.897  51.972 -52.316  1.00  0.00     0.015 A 
HETATM   25  C   UNL     1     -39.925  51.346 -53.566  1.00  0.00    -0.061 A 
HETATM   26  C   UNL     1     -39.026  50.177 -53.837  1.00  0.00     0.048 C 
HETATM   27  C   UNL     1     -40.822  51.805 -54.534  1.00  0.00     0.009 A 
HETATM   28  C   UNL     1     -41.638  52.911 -54.280  1.00  0.00     0.030 A 
ENDBRANCH  18  21
ENDBRANCH   5  17
BRANCH   8  29
HETATM   29  C   UNL     1     -42.285  57.261 -56.618  1.00  0.00     0.130 C 
BRANCH  29  30
HETATM   30  C   UNL     1     -42.665  56.227 -57.693  1.00  0.00     0.046 C 
BRANCH  30  31
HETATM   31  C   UNL     1     -42.618  56.820 -59.099  1.00  0.00     0.168 C 
BRANCH  31  32
HETATM   32  O   UNL     1     -42.955  55.786 -60.029  1.00  0.00    -0.396 OA
HETATM   33  C   UNL     1     -44.099  55.056 -59.608  1.00  0.00     0.201 C 
ENDBRANCH  31  32
ENDBRANCH  30  31
ENDBRANCH  29  30
ENDBRANCH   8  29
BRANCH   1  34
HETATM   34  O   UNL     1     -41.753  60.654 -51.308  1.00  0.00    -0.349 OA
BRANCH  34  35
HETATM   35  C   UNL     1     -40.906  59.966 -50.372  1.00  0.00     0.171 C 
HETATM   36  C   UNL     1     -39.816  59.181 -51.087  1.00  0.00     0.034 C 
ENDBRANCH  34  35
ENDBRANCH   1  34
TORSDOF 8
ENDMDL
MODEL 2
REMARK VINA RESULT:      -7.8      2.243      6.403
REMARK  8 active torsions:
REMARK  status: ('A' for Active; 'I' for Inactive)
REMARK    1  A    between atoms: C_2  and  O_3 
REMARK    2  A    between atoms: O_3  and  C_4 
REMARK    3  A    between atoms: C_8  and  C_9 
REMARK       I    between atoms: C_9  and  N_10 
REMARK    4  A    between atoms: N_10  and  C_11 
REMARK    5  A    between atoms: N_22  and  C_23 
REMARK    6  A    between atoms: C_23  and  C_24 
REMARK    7  A    between atoms: C_24  and  C_25 
REMARK    8  A    between atoms: C_25  and  O_26 
ROOT
HETATM    1  C   UNL     1     -44.187  57.556 -59.147  1.00  0.00     0.102 A 
HETATM    2  C   UNL     1     -43.808  58.165 -57.956  1.00  0.00     0.113 A 
HETATM    3  C   UNL     1     -42.537  58.816 -57.874  1.00  0.00     0.002 A 
HETATM    4  C   UNL     1     -42.170  59.250 -56.466  1.00  0.00     0.138 C 
HETATM    5  C   UNL     1     -42.471  57.960 -55.701  1.00  0.00     0.161 C 
HETATM    6  C   UNL     1     -43.972  58.098 -55.489  1.00  0.00     0.155 C 
HETATM    7  C   UNL     1     -44.626  56.818 -54.924  1.00  0.00     0.072 C 
HETATM    8  N   UNL     1     -44.229  59.362 -54.652  1.00  0.00    -0.325 N 
HETATM    9  C   UNL     1     -43.506  60.553 -54.914  1.00  0.00     0.172 C 
HETATM   10  S   UNL     1     -43.946  62.137 -54.605  1.00  0.00    -0.041 SA
HETATM   11  N   UNL     1     -42.301  60.382 -55.595  1.00  0.00    -0.357 N 
HETATM   12  O   UNL     1     -44.638  58.171 -56.830  1.00  0.00    -0.316 OA
HETATM   13  C   UNL     1     -41.713  58.934 -58.987  1.00  0.00     0.012 A 
HETATM   14  C   UNL     1     -42.151  58.392 -60.196  1.00  0.00     0.003 A 
HETATM   15  C   UNL     1     -43.374  57.707 -60.275  1.00  0.00     0.040 A 
HETATM   16  H   UNL     1     -41.849  61.246 -55.851  1.00  0.00     0.162 HD
ENDROOT
BRANCH   5  17
HETATM   17  C   UNL     1     -41.703  57.604 -54.430  1.00  0.00     0.233 C 
HETATM   18  N   UNL     1     -41.366  56.249 -54.475  1.00  0.00    -0.326 N 
HETATM   19  H   UNL     1     -41.530  55.776 -55.350  1.00  0.00     0.169 HD
HETATM   20  O   UNL     1     -41.534  58.356 -53.481  1.00  0.00    -0.273 OA
BRANCH  18  21
HETATM   21  C   UNL     1     -41.124  55.389 -53.391  1.00  0.00     0.040 A 
HETATM   22  C   UNL     1     -40.496  54.151 -53.653  1.00  0.00    -0.035 A 
HETATM   23  C   UNL     1     -40.162  53.648 -55.036  1.00  0.00     0.050 C 
HETATM   24  C   UNL     1     -40.310  53.247 -52.596  1.00  0.00     0.015 A 
HETATM   25  C   UNL     1     -40.706  53.564 -51.294  1.00  0.00    -0.061 A 
HETATM   26  C   UNL     1     -40.483  52.580 -50.184  1.00  0.00     0.048 C 
HETATM   27  C   UNL     1     -41.276  54.814 -51.043  1.00  0.00     0.009 A 
HETATM   28  C   UNL     1     -41.502  55.715 -52.088  1.00  0.00     0.030 A 
ENDBRANCH  18  21
ENDBRANCH   5  17
BRANCH   8  29
HETATM   29  C   UNL     1     -45.055  59.196 -53.423  1.00  0.00     0.130 C 
BRANCH  29  30
HETATM   30  C   UNL     1     -44.420  59.208 -52.021  1.00  0.00     0.046 C 
BRANCH  30  31
HETATM   31  C   UNL     1     -45.061  58.179 -51.094  1.00  0.00     0.168 C 
BRANCH  31  32
HETATM   32  O   UNL     1     -45.928  58.872 -50.191  1.00  0.00    -0.396 OA
HETATM   33  C   UNL     1     -45.447  60.178 -49.904  1.00  0.00     0.201 C 
ENDBRANCH  31  32
ENDBRANCH  30  31
ENDBRANCH  29  30
ENDBRANCH   8  29
BRANCH   1  34
HETATM   34  O   UNL     1     -45.299  56.771 -59.258  1.00  0.00    -0.349 OA
BRANCH  34  35
HETATM   35  C   UNL     1     -45.093  55.713 -60.209  1.00  0.00     0.171 C 
HETATM   36  C   UNL     1     -44.459  54.496 -59.552  1.00  0.00     0.034 C 
ENDBRANCH  34  35
ENDBRANCH   1  34
TORSDOF 8
ENDMDL
MODEL 3
REMARK VINA RESULT:      -7.0      2.666      6.950
REMARK  8 active torsions:
REMARK  status: ('A' for Active; 'I' for Inactive)
REMARK    1  A    between atoms: C_2  and  O_3 
REMARK    2  A    between atoms: O_3  and  C_4 
REMARK    3  A    between atoms: C_8  and  C_9 
REMARK       I    between atoms: C_9  and  N_10 
REMARK    4  A    between atoms: N_10  and  C_11 
REMARK    5  A    between atoms: N_22  and  C_23 
REMARK    6  A    between atoms: C_23  and  C_24 
REMARK    7  A    between atoms: C_24  and  C_25 
REMARK    8  A    between atoms: C_25  and  O_26 
ROOT
HETATM    1  C   UNL     1     -40.708  54.438 -51.451  1.00  0.00     0.102 A 
HETATM    2  C   UNL     1     -41.484  55.544 -51.778  1.00  0.00     0.113 A 
HETATM    3  C   UNL     1     -42.357  55.480 -52.910  1.00  0.00     0.002 A 
HETATM    4  C   UNL     1     -42.980  56.817 -53.269  1.00  0.00     0.138 C 
HETATM    5  C   UNL     1     -41.735  57.706 -53.255  1.00  0.00     0.161 C 
HETATM    6  C   UNL     1     -41.621  58.014 -51.769  1.00  0.00     0.155 C 
HETATM    7  C   UNL     1     -40.304  58.729 -51.396  1.00  0.00     0.072 C 
HETATM    8  N   UNL     1     -42.891  58.761 -51.331  1.00  0.00    -0.325 N 
HETATM    9  C   UNL     1     -44.163  58.350 -51.805  1.00  0.00     0.172 C 
HETATM   10  S   UNL     1     -45.664  58.560 -51.098  1.00  0.00    -0.041 SA
HETATM   11  N   UNL     1     -44.148  57.600 -52.981  1.00  0.00    -0.357 N 
HETATM   12  O   UNL     1     -41.448  56.723 -51.026  1.00  0.00    -0.316 OA
HETATM   13  C   UNL     1     -42.516  54.305 -53.633  1.00  0.00     0.012 A 
HETATM   14  C   UNL     1     -41.793  53.179 -53.235  1.00  0.00     0.003 A 
HETATM   15  C   UNL     1     -40.895  53.246 -52.157  1.00  0.00     0.040 A 
HETATM   16  H   UNL     1     -45.050  57.242 -53.250  1.00  0.00     0.162 HD
ENDROOT
BRANCH   5  17
HETATM   17  C   UNL     1     -41.644  58.942 -54.146  1.00  0.00     0.233 C 
HETATM   18  N   UNL     1     -42.442  58.741 -55.275  1.00  0.00    -0.326 N 
HETATM   19  H   UNL     1     -43.042  57.931 -55.260  1.00  0.00     0.169 HD
HETATM   20  O   UNL     1     -40.893  59.888 -53.957  1.00  0.00    -0.273 OA
BRANCH  18  21
HETATM   21  C   UNL     1     -42.298  59.329 -56.543  1.00  0.00     0.040 A 
HETATM   22  C   UNL     1     -42.427  58.498 -57.678  1.00  0.00    -0.035 A 
HETATM   23  C   UNL     1     -42.606  57.001 -57.615  1.00  0.00     0.050 C 
HETATM   24  C   UNL     1     -42.216  59.050 -58.951  1.00  0.00     0.015 A 
HETATM   25  C   UNL     1     -41.913  60.405 -59.112  1.00  0.00    -0.061 A 
HETATM   26  C   UNL     1     -41.705  60.967 -60.486  1.00  0.00     0.048 C 
HETATM   27  C   UNL     1     -41.844  61.223 -57.982  1.00  0.00     0.009 A 
HETATM   28  C   UNL     1     -42.016  60.686 -56.702  1.00  0.00     0.030 A 
ENDBRANCH  18  21
ENDBRANCH   5  17
BRANCH   8  29
HETATM   29  C   UNL     1     -42.697  60.057 -50.620  1.00  0.00     0.130 C 
BRANCH  29  30
HETATM   30  C   UNL     1     -42.739  61.399 -51.372  1.00  0.00     0.046 C 
BRANCH  30  31
HETATM   31  C   UNL     1     -44.095  62.087 -51.240  1.00  0.00     0.168 C 
BRANCH  31  32
HETATM   32  O   UNL     1     -44.866  61.779 -52.405  1.00  0.00    -0.396 OA
HETATM   33  C   UNL     1     -44.068  61.804 -53.581  1.00  0.00     0.201 C 
ENDBRANCH  31  32
ENDBRANCH  30  31
ENDBRANCH  29  30
ENDBRANCH   8  29
BRANCH   1  34
HETATM   34  O   UNL     1     -39.729  54.474 -50.499  1.00  0.00    -0.349 OA
BRANCH  34  35
HETATM   35  C   UNL     1     -40.060  53.629 -49.384  1.00  0.00     0.171 C 
HETATM   36  C   UNL     1     -40.730  54.420 -48.271  1.00  0.00     0.034 C 
ENDBRANCH  34  35
ENDBRANCH   1  34
TORSDOF 8
ENDMDL
MODEL 4
REMARK VINA RESULT:      -7.0      1.948      2.259
REMARK  8 active torsions:
REMARK  status: ('A' for Active; 'I' for Inactive)
REMARK    1  A    between atoms: C_2  and  O_3 
REMARK    2  A    between atoms: O_3  and  C_4 
REMARK    3  A    between atoms: C_8  and  C_9 
REMARK       I    between atoms: C_9  and  N_10 
REMARK    4  A    between atoms: N_10  and  C_11 
REMARK    5  A    between atoms: N_22  and  C_23 
REMARK    6  A    between atoms: C_23  and  C_24 
REMARK    7  A    between atoms: C_24  and  C_25 
REMARK    8  A    between atoms: C_25  and  O_26 
ROOT
HETATM    1  C   UNL     1     -44.131  61.924 -51.926  1.00  0.00     0.102 A 
HETATM    2  C   UNL     1     -44.291  61.116 -53.046  1.00  0.00     0.113 A 
HETATM    3  C   UNL     1     -45.530  60.429 -53.245  1.00  0.00     0.002 A 
HETATM    4  C   UNL     1     -45.490  59.429 -54.386  1.00  0.00     0.138 C 
HETATM    5  C   UNL     1     -44.196  58.686 -54.046  1.00  0.00     0.161 C 
HETATM    6  C   UNL     1     -43.162  59.619 -54.659  1.00  0.00     0.155 C 
HETATM    7  C   UNL     1     -41.711  59.248 -54.284  1.00  0.00     0.072 C 
HETATM    8  N   UNL     1     -43.422  59.702 -56.173  1.00  0.00    -0.325 N 
HETATM    9  C   UNL     1     -44.747  59.800 -56.667  1.00  0.00     0.172 C 
HETATM   10  S   UNL     1     -45.284  60.460 -58.107  1.00  0.00    -0.041 SA
HETATM   11  N   UNL     1     -45.743  59.358 -55.796  1.00  0.00    -0.357 N 
HETATM   12  O   UNL     1     -43.278  60.960 -53.998  1.00  0.00    -0.316 OA
HETATM   13  C   UNL     1     -46.609  60.626 -52.392  1.00  0.00     0.012 A 
HETATM   14  C   UNL     1     -46.456  61.509 -51.323  1.00  0.00     0.003 A 
HETATM   15  C   UNL     1     -45.228  62.149 -51.090  1.00  0.00     0.040 A 
HETATM   16  H   UNL     1     -46.680  59.520 -56.129  1.00  0.00     0.162 HD
ENDROOT
BRANCH   5  17
HETATM   17  C   UNL     1     -44.007  57.221 -54.435  1.00  0.00     0.233 C 
HETATM   18  N   UNL     1     -43.201  56.604 -53.475  1.00  0.00    -0.326 N 
HETATM   19  H   UNL     1     -43.006  57.139 -52.643  1.00  0.00     0.169 HD
HETATM   20  O   UNL     1     -44.393  56.719 -55.480  1.00  0.00    -0.273 OA
BRANCH  18  21
HETATM   21  C   UNL     1     -42.377  55.478 -53.642  1.00  0.00     0.040 A 
HETATM   22  C   UNL     1     -42.510  54.415 -52.721  1.00  0.00    -0.035 A 
HETATM   23  C   UNL     1     -43.406  54.455 -51.508  1.00  0.00     0.050 C 
HETATM   24  C   UNL     1     -41.648  53.313 -52.828  1.00  0.00     0.015 A 
HETATM   25  C   UNL     1     -40.689  53.239 -53.842  1.00  0.00    -0.061 A 
HETATM   26  C   UNL     1     -39.791  52.042 -53.935  1.00  0.00     0.048 C 
HETATM   27  C   UNL     1     -40.608  54.274 -54.777  1.00  0.00     0.009 A 
HETATM   28  C   UNL     1     -41.434  55.397 -54.668  1.00  0.00     0.030 A 
ENDBRANCH  18  21
ENDBRANCH   5  17
BRANCH   8  29
HETATM   29  C   UNL     1     -42.266  59.416 -57.069  1.00  0.00     0.130 C 
BRANCH  29  30
HETATM   30  C   UNL     1     -42.083  58.036 -57.726  1.00  0.00     0.046 C 
BRANCH  30  31
HETATM   31  C   UNL     1     -42.527  58.034 -59.186  1.00  0.00     0.168 C 
BRANCH  31  32
HETATM   32  O   UNL     1     -43.765  57.323 -59.274  1.00  0.00    -0.396 OA
HETATM   33  C   UNL     1     -43.614  56.096 -59.975  1.00  0.00     0.201 C 
ENDBRANCH  31  32
ENDBRANCH  30  31
ENDBRANCH  29  30
ENDBRANCH   8  29
BRANCH   1  34
HETATM   34  O   UNL     1     -42.931  62.474 -51.574  1.00  0.00    -0.349 OA
BRANCH  34  35
HETATM   35  C   UNL     1     -42.458  61.931 -50.330  1.00  0.00     0.171 C 
HETATM   36  C   UNL     1     -42.040  60.476 -50.487  1.00  0.00     0.034 C 
ENDBRANCH  34  35
ENDBRANCH   1  34
TORSDOF 8
ENDMDL
MODEL 5
REMARK VINA RESULT:      -6.7      2.768      6.342
REMARK  8 active torsions:
REMARK  status: ('A' for Active; 'I' for Inactive)
REMARK    1  A    between atoms: C_2  and  O_3 
REMARK    2  A    between atoms: O_3  and  C_4 
REMARK    3  A    between atoms: C_8  and  C_9 
REMARK       I    between atoms: C_9  and  N_10 
REMARK    4  A    between atoms: N_10  and  C_11 
REMARK    5  A    between atoms: N_22  and  C_23 
REMARK    6  A    between atoms: C_23  and  C_24 
REMARK    7  A    between atoms: C_24  and  C_25 
REMARK    8  A    between atoms: C_25  and  O_26 
ROOT
HETATM    1  C   UNL     1     -41.514  54.614 -51.861  1.00  0.00     0.102 A 
HETATM    2  C   UNL     1     -42.161  55.836 -52.003  1.00  0.00     0.113 A 
HETATM    3  C   UNL     1     -43.471  56.006 -51.454  1.00  0.00     0.002 A 
HETATM    4  C   UNL     1     -44.134  57.309 -51.862  1.00  0.00     0.138 C 
HETATM    5  C   UNL     1     -43.887  57.274 -53.372  1.00  0.00     0.161 C 
HETATM    6  C   UNL     1     -42.470  57.825 -53.442  1.00  0.00     0.155 C 
HETATM    7  C   UNL     1     -41.840  57.705 -54.847  1.00  0.00     0.072 C 
HETATM    8  N   UNL     1     -42.477  59.253 -52.872  1.00  0.00    -0.325 N 
HETATM    9  C   UNL     1     -43.226  59.554 -51.706  1.00  0.00     0.172 C 
HETATM   10  S   UNL     1     -42.978  60.771 -50.585  1.00  0.00    -0.041 SA
HETATM   11  N   UNL     1     -44.261  58.666 -51.415  1.00  0.00    -0.357 N 
HETATM   12  O   UNL     1     -41.566  56.917 -52.662  1.00  0.00    -0.316 OA
HETATM   13  C   UNL     1     -44.072  55.006 -50.699  1.00  0.00     0.012 A 
HETATM   14  C   UNL     1     -43.369  53.818 -50.493  1.00  0.00     0.003 A 
HETATM   15  C   UNL     1     -42.104  53.622 -51.072  1.00  0.00     0.040 A 
HETATM   16  H   UNL     1     -44.720  58.846 -50.537  1.00  0.00     0.162 HD
ENDROOT
BRANCH   5  17
HETATM   17  C   UNL     1     -44.855  57.947 -54.341  1.00  0.00     0.233 C 
HETATM   18  N   UNL     1     -44.760  57.312 -55.583  1.00  0.00    -0.326 N 
HETATM   19  H   UNL     1     -44.219  56.463 -55.610  1.00  0.00     0.169 HD
HETATM   20  O   UNL     1     -45.502  58.955 -54.097  1.00  0.00    -0.273 OA
BRANCH  18  21
HETATM   21  C   UNL     1     -45.049  57.854 -56.847  1.00  0.00     0.040 A 
HETATM   22  C   UNL     1     -44.333  57.359 -57.960  1.00  0.00    -0.035 A 
HETATM   23  C   UNL     1     -43.207  56.360 -57.865  1.00  0.00     0.050 C 
HETATM   24  C   UNL     1     -44.555  57.935 -59.220  1.00  0.00     0.015 A 
HETATM   25  C   UNL     1     -45.487  58.962 -59.393  1.00  0.00    -0.061 A 
HETATM   26  C   UNL     1     -45.708  59.549 -60.755  1.00  0.00     0.048 C 
HETATM   27  C   UNL     1     -46.224  59.402 -58.291  1.00  0.00     0.009 A 
HETATM   28  C   UNL     1     -45.994  58.865 -57.021  1.00  0.00     0.030 A 
ENDBRANCH  18  21
ENDBRANCH   5  17
BRANCH   8  29
HETATM   29  C   UNL     1     -41.893  60.321 -53.730  1.00  0.00     0.130 C 
BRANCH  29  30
HETATM   30  C   UNL     1     -42.785  61.312 -54.500  1.00  0.00     0.046 C 
BRANCH  30  31
HETATM   31  C   UNL     1     -42.977  60.898 -55.956  1.00  0.00     0.168 C 
BRANCH  31  32
HETATM   32  O   UNL     1     -41.686  60.656 -56.523  1.00  0.00    -0.396 OA
HETATM   33  C   UNL     1     -41.784  60.098 -57.827  1.00  0.00     0.201 C 
ENDBRANCH  31  32
ENDBRANCH  30  31
ENDBRANCH  29  30
ENDBRANCH   8  29
BRANCH   1  34
HETATM   34  O   UNL     1     -40.344  54.315 -52.499  1.00  0.00    -0.349 OA
BRANCH  34  35
HETATM   35  C   UNL     1     -40.590  53.817 -53.825  1.00  0.00     0.171 C 
HETATM   36  C   UNL     1     -40.129  52.375 -53.969  1.00  0.00     0.034 C 
ENDBRANCH  34  35
ENDBRANCH   1  34
TORSDOF 8
ENDMDL
MODEL 6
REMARK VINA RESULT:      -6.7      2.909      7.126
REMARK  8 active torsions:
REMARK  status: ('A' for Active; 'I' for Inactive)
REMARK    1  A    between atoms: C_2  and  O_3 
REMARK    2  A    between atoms: O_3  and  C_4 
REMARK    3  A    between atoms: C_8  and  C_9 
REMARK       I    between atoms: C_9  and  N_10 
REMARK    4  A    between atoms: N_10  and  C_11 
REMARK    5  A    between atoms: N_22  and  C_23 
REMARK    6  A    between atoms: C_23  and  C_24 
REMARK    7  A    between atoms: C_24  and  C_25 
REMARK    8  A    between atoms: C_25  and  O_26 
ROOT
HETATM    1  C   UNL     1     -40.340  52.988 -51.965  1.00  0.00     0.102 A 
HETATM    2  C   UNL     1     -40.721  54.307 -51.747  1.00  0.00     0.113 A 
HETATM    3  C   UNL     1     -41.166  54.704 -50.447  1.00  0.00     0.002 A 
HETATM    4  C   UNL     1     -41.743  56.107 -50.408  1.00  0.00     0.138 C 
HETATM    5  C   UNL     1     -42.694  56.040 -51.604  1.00  0.00     0.161 C 
HETATM    6  C   UNL     1     -41.733  56.330 -52.749  1.00  0.00     0.155 C 
HETATM    7  C   UNL     1     -42.363  56.110 -54.142  1.00  0.00     0.072 C 
HETATM    8  N   UNL     1     -41.139  57.732 -52.538  1.00  0.00    -0.325 N 
HETATM    9  C   UNL     1     -40.741  58.154 -51.244  1.00  0.00     0.172 C 
HETATM   10  S   UNL     1     -39.597  59.298 -50.819  1.00  0.00    -0.041 SA
HETATM   11  N   UNL     1     -41.328  57.462 -50.184  1.00  0.00    -0.357 N 
HETATM   12  O   UNL     1     -40.673  55.270 -52.761  1.00  0.00    -0.316 OA
HETATM   13  C   UNL     1     -41.137  53.822 -49.374  1.00  0.00     0.012 A 
HETATM   14  C   UNL     1     -40.667  52.526 -49.594  1.00  0.00     0.003 A 
HETATM   15  C   UNL     1     -40.277  52.112 -50.878  1.00  0.00     0.040 A 
HETATM   16  H   UNL     1     -40.964  57.715 -49.279  1.00  0.00     0.162 HD
ENDROOT
BRANCH   5  17
HETATM   17  C   UNL     1     -43.967  56.883 -51.644  1.00  0.00     0.233 C 
HETATM   18  N   UNL     1     -44.129  57.387 -52.938  1.00  0.00    -0.326 N 
HETATM   19  H   UNL     1     -43.511  57.018 -53.642  1.00  0.00     0.169 HD
HETATM   20  O   UNL     1     -44.649  57.167 -50.671  1.00  0.00    -0.273 OA
BRANCH  18  21
HETATM   21  C   UNL     1     -44.816  58.551 -53.324  1.00  0.00     0.040 A 
HETATM   22  C   UNL     1     -45.108  58.725 -54.695  1.00  0.00    -0.035 A 
HETATM   23  C   UNL     1     -44.639  57.792 -55.785  1.00  0.00     0.050 C 
HETATM   24  C   UNL     1     -45.729  59.912 -55.111  1.00  0.00     0.015 A 
HETATM   25  C   UNL     1     -46.087  60.903 -54.193  1.00  0.00    -0.061 A 
HETATM   26  C   UNL     1     -46.760  62.155 -54.669  1.00  0.00     0.048 C 
HETATM   27  C   UNL     1     -45.840  60.690 -52.835  1.00  0.00     0.009 A 
HETATM   28  C   UNL     1     -45.191  59.530 -52.403  1.00  0.00     0.030 A 
ENDBRANCH  18  21
ENDBRANCH   5  17
BRANCH   8  29
HETATM   29  C   UNL     1     -41.247  58.685 -53.679  1.00  0.00     0.130 C 
BRANCH  29  30
HETATM   30  C   UNL     1     -41.835  60.095 -53.493  1.00  0.00     0.046 C 
BRANCH  30  31
HETATM   31  C   UNL     1     -42.208  60.740 -54.826  1.00  0.00     0.168 C 
BRANCH  31  32
HETATM   32  O   UNL     1     -41.716  59.904 -55.877  1.00  0.00    -0.396 OA
HETATM   33  C   UNL     1     -42.008  60.448 -57.157  1.00  0.00     0.201 C 
ENDBRANCH  31  32
ENDBRANCH  30  31
ENDBRANCH  29  30
ENDBRANCH   8  29
BRANCH   1  34
HETATM   34  O   UNL     1     -40.069  52.490 -53.208  1.00  0.00    -0.349 OA
BRANCH  34  35
HETATM   35  C   UNL     1     -39.450  51.195 -53.123  1.00  0.00     0.171 C 
HETATM   36  C   UNL     1     -39.983  50.257 -54.195  1.00  0.00     0.034 C 
ENDBRANCH  34  35
ENDBRANCH   1  34
TORSDOF 8
ENDMDL
MODEL 7
REMARK VINA RESULT:      -6.5     16.677     20.369
REMARK  8 active torsions:
REMARK  status: ('A' for Active; 'I' for Inactive)
REMARK    1  A    between atoms: C_2  and  O_3 
REMARK    2  A    between atoms: O_3  and  C_4 
REMARK    3  A    between atoms: C_8  and  C_9 
REMARK       I    between atoms: C_9  and  N_10 
REMARK    4  A    between atoms: N_10  and  C_11 
REMARK    5  A    between atoms: N_22  and  C_23 
REMARK    6  A    between atoms: C_23  and  C_24 
REMARK    7  A    between atoms: C_24  and  C_25 
REMARK    8  A    between atoms: C_25  and  O_26 
ROOT
HETATM    1  C   UNL     1     -36.716  40.551 -58.025  1.00  0.00     0.102 A 
HETATM    2  C   UNL     1     -35.692  39.703 -57.618  1.00  0.00     0.113 A 
HETATM    3  C   UNL     1     -35.981  38.327 -57.358  1.00  0.00     0.002 A 
HETATM    4  C   UNL     1     -34.824  37.575 -56.725  1.00  0.00     0.138 C 
HETATM    5  C   UNL     1     -34.451  38.550 -55.606  1.00  0.00     0.161 C 
HETATM    6  C   UNL     1     -33.566  39.530 -56.364  1.00  0.00     0.155 C 
HETATM    7  C   UNL     1     -33.203  40.784 -55.539  1.00  0.00     0.072 C 
HETATM    8  N   UNL     1     -32.353  38.761 -56.914  1.00  0.00    -0.325 N 
HETATM    9  C   UNL     1     -32.521  37.474 -57.484  1.00  0.00     0.172 C 
HETATM   10  S   UNL     1     -31.570  36.698 -58.622  1.00  0.00    -0.041 SA
HETATM   11  N   UNL     1     -33.679  36.797 -57.102  1.00  0.00    -0.357 N 
HETATM   12  O   UNL     1     -34.376  40.153 -57.461  1.00  0.00    -0.316 OA
HETATM   13  C   UNL     1     -37.244  37.797 -57.595  1.00  0.00     0.012 A 
HETATM   14  C   UNL     1     -38.235  38.646 -58.089  1.00  0.00     0.003 A 
HETATM   15  C   UNL     1     -37.976  40.010 -58.298  1.00  0.00     0.040 A 
HETATM   16  H   UNL     1     -33.824  35.926 -57.587  1.00  0.00     0.162 HD
ENDROOT
BRANCH   5  17
HETATM   17  C   UNL     1     -33.834  38.049 -54.302  1.00  0.00     0.233 C 
HETATM   18  N   UNL     1     -34.204  38.916 -53.270  1.00  0.00    -0.326 N 
HETATM   19  H   UNL     1     -34.903  39.605 -53.494  1.00  0.00     0.169 HD
HETATM   20  O   UNL     1     -33.044  37.121 -54.213  1.00  0.00    -0.273 OA
BRANCH  18  21
HETATM   21  C   UNL     1     -33.519  39.158 -52.067  1.00  0.00     0.040 A 
HETATM   22  C   UNL     1     -34.151  38.790 -50.858  1.00  0.00    -0.035 A 
HETATM   23  C   UNL     1     -35.557  38.249 -50.769  1.00  0.00     0.050 C 
HETATM   24  C   UNL     1     -33.516  39.087 -49.643  1.00  0.00     0.015 A 
HETATM   25  C   UNL     1     -32.266  39.709 -49.612  1.00  0.00    -0.061 A 
HETATM   26  C   UNL     1     -31.609  40.004 -48.297  1.00  0.00     0.048 C 
HETATM   27  C   UNL     1     -31.631  40.017 -50.818  1.00  0.00     0.009 A 
HETATM   28  C   UNL     1     -32.261  39.761 -52.039  1.00  0.00     0.030 A 
ENDBRANCH  18  21
ENDBRANCH   5  17
BRANCH   8  29
HETATM   29  C   UNL     1     -31.007  39.307 -56.585  1.00  0.00     0.130 C 
BRANCH  29  30
HETATM   30  C   UNL     1     -30.086  38.615 -55.564  1.00  0.00     0.046 C 
BRANCH  30  31
HETATM   31  C   UNL     1     -28.807  38.091 -56.210  1.00  0.00     0.168 C 
BRANCH  31  32
HETATM   32  O   UNL     1     -28.782  38.533 -57.570  1.00  0.00    -0.396 OA
HETATM   33  C   UNL     1     -27.796  37.842 -58.326  1.00  0.00     0.201 C 
ENDBRANCH  31  32
ENDBRANCH  30  31
ENDBRANCH  29  30
ENDBRANCH   8  29
BRANCH   1  34
HETATM   34  O   UNL     1     -36.563  41.904 -58.126  1.00  0.00    -0.349 OA
BRANCH  34  35
HETATM   35  C   UNL     1     -37.235  42.583 -57.052  1.00  0.00     0.171 C 
HETATM   36  C   UNL     1     -36.579  42.283 -55.713  1.00  0.00     0.034 C 
ENDBRANCH  34  35
ENDBRANCH   1  34
TORSDOF 8
ENDMDL
MODEL 8
REMARK VINA RESULT:      -6.5      3.051      7.436
REMARK  8 active torsions:
REMARK  status: ('A' for Active; 'I' for Inactive)
REMARK    1  A    between atoms: C_2  and  O_3 
REMARK    2  A    between atoms: O_3  and  C_4 
REMARK    3  A    between atoms: C_8  and  C_9 
REMARK       I    between atoms: C_9  and  N_10 
REMARK    4  A    between atoms: N_10  and  C_11 
REMARK    5  A    between atoms: N_22  and  C_23 
REMARK    6  A    between atoms: C_23  and  C_24 
REMARK    7  A    between atoms: C_24  and  C_25 
REMARK    8  A    between atoms: C_25  and  O_26 
ROOT
HETATM    1  C   UNL     1     -40.541  53.177 -51.475  1.00  0.00     0.102 A 
HETATM    2  C   UNL     1     -40.813  54.535 -51.352  1.00  0.00     0.113 A 
HETATM    3  C   UNL     1     -41.071  55.085 -50.056  1.00  0.00     0.002 A 
HETATM    4  C   UNL     1     -41.554  56.523 -50.095  1.00  0.00     0.138 C 
HETATM    5  C   UNL     1     -42.648  56.409 -51.159  1.00  0.00     0.161 C 
HETATM    6  C   UNL     1     -41.820  56.520 -52.432  1.00  0.00     0.155 C 
HETATM    7  C   UNL     1     -42.629  56.214 -53.711  1.00  0.00     0.072 C 
HETATM    8  N   UNL     1     -41.122  57.890 -52.437  1.00  0.00    -0.325 N 
HETATM    9  C   UNL     1     -40.543  58.403 -51.249  1.00  0.00     0.172 C 
HETATM   10  S   UNL     1     -39.290  59.498 -51.081  1.00  0.00    -0.041 SA
HETATM   11  N   UNL     1     -41.034  57.860 -50.062  1.00  0.00    -0.357 N 
HETATM   12  O   UNL     1     -40.834  55.391 -52.458  1.00  0.00    -0.316 OA
HETATM   13  C   UNL     1     -40.962  54.308 -48.909  1.00  0.00     0.012 A 
HETATM   14  C   UNL     1     -40.601  52.968 -49.047  1.00  0.00     0.003 A 
HETATM   15  C   UNL     1     -40.396  52.406 -50.318  1.00  0.00     0.040 A 
HETATM   16  H   UNL     1     -40.548  58.171 -49.237  1.00  0.00     0.162 HD
ENDROOT
BRANCH   5  17
HETATM   17  C   UNL     1     -43.863  57.333 -51.137  1.00  0.00     0.233 C 
HETATM   18  N   UNL     1     -43.427  58.651 -51.302  1.00  0.00    -0.326 N 
HETATM   19  H   UNL     1     -42.459  58.773 -51.552  1.00  0.00     0.169 HD
HETATM   20  O   UNL     1     -45.006  56.981 -50.885  1.00  0.00    -0.273 OA
BRANCH  18  21
HETATM   21  C   UNL     1     -44.065  59.826 -50.869  1.00  0.00     0.040 A 
HETATM   22  C   UNL     1     -45.121  60.336 -51.655  1.00  0.00    -0.035 A 
HETATM   23  C   UNL     1     -45.541  59.759 -52.985  1.00  0.00     0.050 C 
HETATM   24  C   UNL     1     -45.724  61.546 -51.280  1.00  0.00     0.015 A 
HETATM   25  C   UNL     1     -45.317  62.232 -50.132  1.00  0.00    -0.061 A 
HETATM   26  C   UNL     1     -45.989  63.517 -49.752  1.00  0.00     0.048 C 
HETATM   27  C   UNL     1     -44.308  61.685 -49.336  1.00  0.00     0.009 A 
HETATM   28  C   UNL     1     -43.671  60.498 -49.712  1.00  0.00     0.030 A 
ENDBRANCH  18  21
ENDBRANCH   5  17
BRANCH   8  29
HETATM   29  C   UNL     1     -41.313  58.735 -53.650  1.00  0.00     0.130 C 
BRANCH  29  30
HETATM   30  C   UNL     1     -41.957  60.131 -53.562  1.00  0.00     0.046 C 
BRANCH  30  31
HETATM   31  C   UNL     1     -42.460  60.615 -54.919  1.00  0.00     0.168 C 
BRANCH  31  32
HETATM   32  O   UNL     1     -41.593  60.090 -55.928  1.00  0.00    -0.396 OA
HETATM   33  C   UNL     1     -42.327  59.537 -57.012  1.00  0.00     0.201 C 
ENDBRANCH  31  32
ENDBRANCH  30  31
ENDBRANCH  29  30
ENDBRANCH   8  29
BRANCH   1  34
HETATM   34  O   UNL     1     -40.456  52.545 -52.683  1.00  0.00    -0.349 OA
BRANCH  34  35
HETATM   35  C   UNL     1     -39.536  51.441 -52.626  1.00  0.00     0.171 C 
HETATM   36  C   UNL     1     -39.600  50.603 -53.894  1.00  0.00     0.034 C 
ENDBRANCH  34  35
ENDBRANCH   1  34
TORSDOF 8
ENDMDL
MODEL 9
REMARK VINA RESULT:      -6.3      2.745      6.137
REMARK  8 active torsions:
REMARK  status: ('A' for Active; 'I' for Inactive)
REMARK    1  A    between atoms: C_2  and  O_3 
REMARK    2  A    between atoms: O_3  and  C_4 
REMARK    3  A    between atoms: C_8  and  C_9 
REMARK       I    between atoms: C_9  and  N_10 
REMARK    4  A    between atoms: N_10  and  C_11 
REMARK    5  A    between atoms: N_22  and  C_23 
REMARK    6  A    between atoms: C_23  and  C_24 
REMARK    7  A    between atoms: C_24  and  C_25 
REMARK    8  A    between atoms: C_25  and  O_26 
ROOT
HETATM    1  C   UNL     1     -44.159  60.092 -58.536  1.00  0.00     0.102 A 
HETATM    2  C   UNL     1     -43.830  59.868 -57.205  1.00  0.00     0.113 A 
HETATM    3  C   UNL     1     -42.459  59.677 -56.842  1.00  0.00     0.002 A 
HETATM    4  C   UNL     1     -42.270  59.238 -55.402  1.00  0.00     0.138 C 
HETATM    5  C   UNL     1     -43.292  58.102 -55.331  1.00  0.00     0.161 C 
HETATM    6  C   UNL     1     -44.569  58.885 -55.058  1.00  0.00     0.155 C 
HETATM    7  C   UNL     1     -45.844  58.019 -55.154  1.00  0.00     0.072 C 
HETATM    8  N   UNL     1     -44.407  59.625 -53.721  1.00  0.00    -0.325 N 
HETATM    9  C   UNL     1     -43.182  60.265 -53.401  1.00  0.00     0.172 C 
HETATM   10  S   UNL     1     -42.910  61.558 -52.375  1.00  0.00    -0.041 SA
HETATM   11  N   UNL     1     -42.067  59.801 -54.098  1.00  0.00    -0.357 N 
HETATM   12  O   UNL     1     -44.800  59.832 -56.197  1.00  0.00    -0.316 OA
HETATM   13  C   UNL     1     -41.441  59.804 -57.780  1.00  0.00     0.012 A 
HETATM   14  C   UNL     1     -41.786  60.117 -59.095  1.00  0.00     0.003 A 
HETATM   15  C   UNL     1     -43.132  60.255 -59.471  1.00  0.00     0.040 A 
HETATM   16  H   UNL     1     -41.226  60.328 -53.923  1.00  0.00     0.162 HD
ENDROOT
BRANCH   5  17
HETATM   17  C   UNL     1     -43.086  56.919 -54.389  1.00  0.00     0.233 C 
HETATM   18  N   UNL     1     -41.754  56.504 -54.475  1.00  0.00    -0.326 N 
HETATM   19  H   UNL     1     -41.132  57.105 -54.991  1.00  0.00     0.169 HD
HETATM   20  O   UNL     1     -43.975  56.355 -53.768  1.00  0.00    -0.273 OA
BRANCH  18  21
HETATM   21  C   UNL     1     -41.235  55.226 -54.210  1.00  0.00     0.040 A 
HETATM   22  C   UNL     1     -41.028  54.860 -52.861  1.00  0.00    -0.035 A 
HETATM   23  C   UNL     1     -41.231  55.791 -51.691  1.00  0.00     0.050 C 
HETATM   24  C   UNL     1     -40.445  53.616 -52.578  1.00  0.00     0.015 A 
HETATM   25  C   UNL     1     -40.096  52.729 -53.599  1.00  0.00    -0.061 A 
HETATM   26  C   UNL     1     -39.484  51.403 -53.263  1.00  0.00     0.048 C 
HETATM   27  C   UNL     1     -40.358  53.085 -54.925  1.00  0.00     0.009 A 
HETATM   28  C   UNL     1     -40.906  54.334 -55.231  1.00  0.00     0.030 A 
ENDBRANCH  18  21
ENDBRANCH   5  17
BRANCH   8  29
HETATM   29  C   UNL     1     -45.475  59.416 -52.703  1.00  0.00     0.130 C 
BRANCH  29  30
HETATM   30  C   UNL     1     -45.193  58.677 -51.383  1.00  0.00     0.046 C 
BRANCH  30  31
HETATM   31  C   UNL     1     -45.594  59.506 -50.166  1.00  0.00     0.168 C 
BRANCH  31  32
HETATM   32  O   UNL     1     -46.341  60.636 -50.624  1.00  0.00    -0.396 OA
HETATM   33  C   UNL     1     -46.009  61.811 -49.896  1.00  0.00     0.201 C 
ENDBRANCH  31  32
ENDBRANCH  30  31
ENDBRANCH  29  30
ENDBRANCH   8  29
BRANCH   1  34
HETATM   34  O   UNL     1     -45.448  60.111 -58.989  1.00  0.00    -0.349 OA
BRANCH  34  35
HETATM   35  C   UNL     1     -45.948  58.778 -59.187  1.00  0.00     0.171 C 
HETATM   36  C   UNL     1     -46.375  58.557 -60.630  1.00  0.00     0.034 C 
ENDBRANCH  34  35
ENDBRANCH   1  34
TORSDOF 8
ENDMDL
MODEL 10
REMARK VINA RESULT:      -6.2      3.791      8.713
REMARK  8 active torsions:
REMARK  status: ('A' for Active; 'I' for Inactive)
REMARK    1  A    between atoms: C_2  and  O_3 
REMARK    2  A    between atoms: O_3  and  C_4 
REMARK    3  A    between atoms: C_8  and  C_9 
REMARK       I    between atoms: C_9  and  N_10 
REMARK    4  A    between atoms: N_10  and  C_11 
REMARK    5  A    between atoms: N_22  and  C_23 
REMARK    6  A    between atoms: C_23  and  C_24 
REMARK    7  A    between atoms: C_24  and  C_25 
REMARK    8  A    between atoms: C_25  and  O_26 
ROOT
HETATM    1  C   UNL     1     -42.789  56.063 -50.858  1.00  0.00     0.102 A 
HETATM    2  C   UNL     1     -42.953  57.387 -51.248  1.00  0.00     0.113 A 
HETATM    3  C   UNL     1     -41.869  58.306 -51.088  1.00  0.00     0.002 A 
HETATM    4  C   UNL     1     -42.255  59.749 -51.358  1.00  0.00     0.138 C 
HETATM    5  C   UNL     1     -43.530  59.848 -50.519  1.00  0.00     0.161 C 
HETATM    6  C   UNL     1     -44.552  59.261 -51.484  1.00  0.00     0.155 C 
HETATM    7  C   UNL     1     -45.930  59.015 -50.833  1.00  0.00     0.072 C 
HETATM    8  N   UNL     1     -44.595  60.146 -52.740  1.00  0.00    -0.325 N 
HETATM    9  C   UNL     1     -43.394  60.647 -53.304  1.00  0.00     0.172 C 
HETATM   10  S   UNL     1     -43.086  61.100 -54.885  1.00  0.00    -0.041 SA
HETATM   11  N   UNL     1     -42.301  60.692 -52.439  1.00  0.00    -0.357 N 
HETATM   12  O   UNL     1     -44.149  57.853 -51.806  1.00  0.00    -0.316 OA
HETATM   13  C   UNL     1     -40.624  57.882 -50.639  1.00  0.00     0.012 A 
HETATM   14  C   UNL     1     -40.455  56.531 -50.336  1.00  0.00     0.003 A 
HETATM   15  C   UNL     1     -41.527  55.631 -50.441  1.00  0.00     0.040 A 
HETATM   16  H   UNL     1     -41.439  60.965 -52.882  1.00  0.00     0.162 HD
ENDROOT
BRANCH   5  17
HETATM   17  C   UNL     1     -43.963  61.175 -49.902  1.00  0.00     0.233 C 
HETATM   18  N   UNL     1     -44.382  60.943 -48.589  1.00  0.00    -0.326 N 
HETATM   19  H   UNL     1     -44.201  60.024 -48.218  1.00  0.00     0.169 HD
HETATM   20  O   UNL     1     -44.047  62.234 -50.506  1.00  0.00    -0.273 OA
BRANCH  18  21
HETATM   21  C   UNL     1     -45.288  61.703 -47.831  1.00  0.00     0.040 A 
HETATM   22  C   UNL     1     -45.147  61.697 -46.426  1.00  0.00    -0.035 A 
HETATM   23  C   UNL     1     -44.150  60.845 -45.679  1.00  0.00     0.050 C 
HETATM   24  C   UNL     1     -46.085  62.392 -45.646  1.00  0.00     0.015 A 
HETATM   25  C   UNL     1     -47.129  63.108 -46.237  1.00  0.00    -0.061 A 
HETATM   26  C   UNL     1     -48.108  63.848 -45.376  1.00  0.00     0.048 C 
HETATM   27  C   UNL     1     -47.222  63.147 -47.630  1.00  0.00     0.009 A 
HETATM   28  C   UNL     1     -46.319  62.434 -48.424  1.00  0.00     0.030 A 
ENDBRANCH  18  21
ENDBRANCH   5  17
BRANCH   8  29
HETATM   29  C   UNL     1     -45.933  60.649 -53.162  1.00  0.00     0.130 C 
BRANCH  29  30
HETATM   30  C   UNL     1     -46.330  62.125 -52.979  1.00  0.00     0.046 C 
BRANCH  30  31
HETATM   31  C   UNL     1     -47.630  62.275 -52.194  1.00  0.00     0.168 C 
BRANCH  31  32
HETATM   32  O   UNL     1     -47.594  63.530 -51.509  1.00  0.00    -0.396 OA
HETATM   33  C   UNL     1     -48.861  63.861 -50.957  1.00  0.00     0.201 C 
ENDBRANCH  31  32
ENDBRANCH  30  31
ENDBRANCH  29  30
ENDBRANCH   8  29
BRANCH   1  34
HETATM   34  O   UNL     1     -43.821  55.169 -50.816  1.00  0.00    -0.349 OA
BRANCH  34  35
HETATM   35  C   UNL     1     -43.504  53.978 -51.556  1.00  0.00     0.171 C 
HETATM   36  C   UNL     1     -43.270  54.287 -53.027  1.00  0.00     0.034 C 
ENDBRANCH  34  35
ENDBRANCH   1  34
TORSDOF 8
ENDMDL
