MODEL 1
REMARK VINA RESULT:      -9.6      0.000      0.000
REMARK  4 active torsions:
REMARK  status: ('A' for Active; 'I' for Inactive)
REMARK    1  A    between atoms: C_5  and  C_6 
REMARK       I    between atoms: C_6  and  N_7 
REMARK    2  A    between atoms: N_7  and  C_8 
REMARK    3  A    between atoms: C_12  and  C_13 
REMARK    4  A    between atoms: C_13  and  C_14 
ROOT
HETATM    1  C   UNL     1     -42.853  54.675 -54.968  1.00  0.00     0.747 A 
HETATM    2  N   UNL     1     -43.642  54.575 -53.893  1.00  0.00     0.020 NA
HETATM    3  N   UNL     1     -42.755  54.259 -52.933  1.00  0.00    -0.248 N 
HETATM    4  H   UNL     1     -43.081  54.088 -51.989  1.00  0.00     0.191 HD
HETATM    5  C   UNL     1     -41.491  54.176 -53.438  1.00  0.00     0.144 A 
HETATM    6  N   UNL     1     -41.532  54.463 -54.720  1.00  0.00    -0.046 NA
ENDROOT
BRANCH   1   7
HETATM    7  N   UNL     1     -43.378  54.926 -56.202  1.00  0.00    -0.150 N 
HETATM    8  C   UNL     1     -43.038  55.991 -56.998  1.00  0.00     0.271 C 
HETATM    9  O   UNL     1     -42.261  56.899 -56.731  1.00  0.00    -0.267 OA
HETATM   10  H   UNL     1     -43.983  54.194 -56.537  1.00  0.00     0.188 HD
BRANCH   8  11
HETATM   11  C   UNL     1     -43.639  55.969 -58.355  1.00  0.00     0.045 A 
HETATM   12  C   UNL     1     -43.933  57.145 -59.086  1.00  0.00     0.008 A 
HETATM   13  C   UNL     1     -44.547  57.006 -60.337  1.00  0.00     0.043 A 
HETATM   14  C   UNL     1     -43.732  58.547 -58.893  1.00  0.00     0.032 A 
HETATM   15  C   UNL     1     -44.862  55.761 -60.897  1.00  0.00     0.030 A 
HETATM   16  N   UNL     1     -44.746  58.270 -60.844  1.00  0.00    -0.365 N 
HETATM   17  C   UNL     1     -44.531  54.614 -60.172  1.00  0.00     0.003 A 
HETATM   18  C   UNL     1     -43.928  54.714 -58.922  1.00  0.00     0.018 A 
HETATM   19  H   UNL     1     -45.176  58.468 -61.737  1.00  0.00     0.165 HD
HETATM   20  C   UNL     1     -44.254  59.209 -59.980  1.00  0.00     0.089 A 
ENDBRANCH   8  11
ENDBRANCH   1   7
BRANCH   5  21
HETATM   21  C   UNL     1     -40.308  53.753 -52.640  1.00  0.00     0.119 C 
BRANCH  21  22
HETATM   22  C   UNL     1     -40.071  52.258 -52.674  1.00  0.00    -0.045 A 
HETATM   23  C   UNL     1     -40.107  51.545 -53.885  1.00  0.00     0.050 A 
HETATM   24  C   UNL     1     -39.870  50.171 -53.901  1.00  0.00     0.119 A 
HETATM   25  F   UNL     1     -39.927  49.507 -55.062  1.00  0.00    -0.206 F 
HETATM   26  C   UNL     1     -39.575  49.481 -52.735  1.00  0.00     0.084 A 
HETATM   27  C   UNL     1     -39.515  50.186 -51.543  1.00  0.00     0.119 A 
HETATM   28  F   UNL     1     -39.220  49.538 -50.408  1.00  0.00    -0.206 F 
HETATM   29  C   UNL     1     -39.755  51.560 -51.499  1.00  0.00     0.050 A 
ENDBRANCH  21  22
ENDBRANCH   5  21
TORSDOF 4
ENDMDL
MODEL 2
REMARK VINA RESULT:      -9.3      3.683      8.958
REMARK  4 active torsions:
REMARK  status: ('A' for Active; 'I' for Inactive)
REMARK    1  A    between atoms: C_5  and  C_6 
REMARK       I    between atoms: C_6  and  N_7 
REMARK    2  A    between atoms: N_7  and  C_8 
REMARK    3  A    between atoms: C_12  and  C_13 
REMARK    4  A    between atoms: C_13  and  C_14 
ROOT
HETATM    1  C   UNL     1     -42.719  54.723 -55.352  1.00  0.00     0.747 A 
HETATM    2  N   UNL     1     -43.571  55.525 -54.706  1.00  0.00     0.020 NA
HETATM    3  N   UNL     1     -43.829  56.457 -55.639  1.00  0.00    -0.248 N 
HETATM    4  H   UNL     1     -44.440  57.234 -55.415  1.00  0.00     0.191 HD
HETATM    5  C   UNL     1     -43.144  56.204 -56.791  1.00  0.00     0.144 A 
HETATM    6  N   UNL     1     -42.457  55.095 -56.634  1.00  0.00    -0.046 NA
ENDROOT
BRANCH   1   7
HETATM    7  N   UNL     1     -42.147  53.655 -54.723  1.00  0.00    -0.150 N 
HETATM    8  C   UNL     1     -40.797  53.424 -54.640  1.00  0.00     0.271 C 
HETATM    9  O   UNL     1     -39.897  54.091 -55.138  1.00  0.00    -0.267 OA
HETATM   10  H   UNL     1     -42.809  53.082 -54.225  1.00  0.00     0.188 HD
BRANCH   8  11
HETATM   11  C   UNL     1     -40.415  52.275 -53.783  1.00  0.00     0.045 A 
HETATM   12  C   UNL     1     -40.369  52.350 -52.370  1.00  0.00     0.008 A 
HETATM   13  C   UNL     1     -39.944  51.217 -51.665  1.00  0.00     0.043 A 
HETATM   14  C   UNL     1     -40.691  53.336 -51.386  1.00  0.00     0.032 A 
HETATM   15  C   UNL     1     -39.584  50.019 -52.294  1.00  0.00     0.030 A 
HETATM   16  N   UNL     1     -39.966  51.531 -50.324  1.00  0.00    -0.365 N 
HETATM   17  C   UNL     1     -39.670  49.958 -53.687  1.00  0.00     0.003 A 
HETATM   18  C   UNL     1     -40.080  51.066 -54.421  1.00  0.00     0.018 A 
HETATM   19  H   UNL     1     -39.703  50.895 -49.583  1.00  0.00     0.165 HD
HETATM   20  C   UNL     1     -40.419  52.808 -50.145  1.00  0.00     0.089 A 
ENDBRANCH   8  11
ENDBRANCH   1   7
BRANCH   5  21
HETATM   21  C   UNL     1     -43.151  57.108 -57.973  1.00  0.00     0.119 C 
BRANCH  21  22
HETATM   22  C   UNL     1     -44.230  56.764 -58.979  1.00  0.00    -0.045 A 
HETATM   23  C   UNL     1     -44.057  55.715 -59.898  1.00  0.00     0.050 A 
HETATM   24  C   UNL     1     -45.067  55.400 -60.806  1.00  0.00     0.119 A 
HETATM   25  F   UNL     1     -44.876  54.410 -61.687  1.00  0.00    -0.206 F 
HETATM   26  C   UNL     1     -46.267  56.096 -60.813  1.00  0.00     0.084 A 
HETATM   27  C   UNL     1     -46.449  57.115 -59.891  1.00  0.00     0.119 A 
HETATM   28  F   UNL     1     -47.606  57.790 -59.875  1.00  0.00    -0.206 F 
HETATM   29  C   UNL     1     -45.451  57.454 -58.977  1.00  0.00     0.050 A 
ENDBRANCH  21  22
ENDBRANCH   5  21
TORSDOF 4
ENDMDL
MODEL 3
REMARK VINA RESULT:      -9.3      3.691      9.011
REMARK  4 active torsions:
REMARK  status: ('A' for Active; 'I' for Inactive)
REMARK    1  A    between atoms: C_5  and  C_6 
REMARK       I    between atoms: C_6  and  N_7 
REMARK    2  A    between atoms: N_7  and  C_8 
REMARK    3  A    between atoms: C_12  and  C_13 
REMARK    4  A    between atoms: C_13  and  C_14 
ROOT
HETATM    1  C   UNL     1     -42.738  54.709 -55.364  1.00  0.00     0.747 A 
HETATM    2  N   UNL     1     -43.573  55.516 -54.702  1.00  0.00     0.020 NA
HETATM    3  N   UNL     1     -43.849  56.445 -55.632  1.00  0.00    -0.248 N 
HETATM    4  H   UNL     1     -44.453  57.224 -55.397  1.00  0.00     0.191 HD
HETATM    5  C   UNL     1     -43.190  56.187 -56.798  1.00  0.00     0.144 A 
HETATM    6  N   UNL     1     -42.503  55.076 -56.653  1.00  0.00    -0.046 NA
ENDROOT
BRANCH   1   7
HETATM    7  N   UNL     1     -42.154  53.642 -54.744  1.00  0.00    -0.150 N 
HETATM    8  C   UNL     1     -40.802  53.428 -54.658  1.00  0.00     0.271 C 
HETATM    9  O   UNL     1     -39.909  54.111 -55.144  1.00  0.00    -0.267 OA
HETATM   10  H   UNL     1     -42.811  53.055 -54.255  1.00  0.00     0.188 HD
BRANCH   8  11
HETATM   11  C   UNL     1     -40.408  52.274 -53.811  1.00  0.00     0.045 A 
HETATM   12  C   UNL     1     -40.370  52.334 -52.397  1.00  0.00     0.008 A 
HETATM   13  C   UNL     1     -39.933  51.199 -51.703  1.00  0.00     0.043 A 
HETATM   14  C   UNL     1     -40.709  53.305 -51.404  1.00  0.00     0.032 A 
HETATM   15  C   UNL     1     -39.555  50.012 -52.343  1.00  0.00     0.030 A 
HETATM   16  N   UNL     1     -39.965  51.498 -50.359  1.00  0.00    -0.365 N 
HETATM   17  C   UNL     1     -39.634  49.966 -53.737  1.00  0.00     0.003 A 
HETATM   18  C   UNL     1     -40.055  51.077 -54.461  1.00  0.00     0.018 A 
HETATM   19  H   UNL     1     -39.698  50.858 -49.623  1.00  0.00     0.165 HD
HETATM   20  C   UNL     1     -40.436  52.767 -50.168  1.00  0.00     0.089 A 
ENDBRANCH   8  11
ENDBRANCH   1   7
BRANCH   5  21
HETATM   21  C   UNL     1     -43.221  57.086 -57.983  1.00  0.00     0.119 C 
BRANCH  21  22
HETATM   22  C   UNL     1     -44.305  56.725 -58.976  1.00  0.00    -0.045 A 
HETATM   23  C   UNL     1     -45.516  57.437 -59.022  1.00  0.00     0.050 A 
HETATM   24  C   UNL     1     -46.497  57.101 -59.953  1.00  0.00     0.119 A 
HETATM   25  F   UNL     1     -47.651  57.780 -59.968  1.00  0.00    -0.206 F 
HETATM   26  C   UNL     1     -46.298  56.077 -60.866  1.00  0.00     0.084 A 
HETATM   27  C   UNL     1     -45.094  55.388 -60.840  1.00  0.00     0.119 A 
HETATM   28  F   UNL     1     -44.879  54.404 -61.722  1.00  0.00    -0.206 F 
HETATM   29  C   UNL     1     -44.100  55.700 -59.913  1.00  0.00     0.050 A 
ENDBRANCH  21  22
ENDBRANCH   5  21
TORSDOF 4
ENDMDL
MODEL 4
REMARK VINA RESULT:      -9.2      3.681      9.094
REMARK  4 active torsions:
REMARK  status: ('A' for Active; 'I' for Inactive)
REMARK    1  A    between atoms: C_5  and  C_6 
REMARK       I    between atoms: C_6  and  N_7 
REMARK    2  A    between atoms: N_7  and  C_8 
REMARK    3  A    between atoms: C_12  and  C_13 
REMARK    4  A    between atoms: C_13  and  C_14 
ROOT
HETATM    1  C   UNL     1     -42.712  54.929 -55.062  1.00  0.00     0.747 A 
HETATM    2  N   UNL     1     -43.688  55.742 -54.645  1.00  0.00     0.020 NA
HETATM    3  N   UNL     1     -43.882  56.513 -55.729  1.00  0.00    -0.248 N 
HETATM    4  H   UNL     1     -44.564  57.261 -55.693  1.00  0.00     0.191 HD
HETATM    5  C   UNL     1     -43.042  56.158 -56.743  1.00  0.00     0.144 A 
HETATM    6  N   UNL     1     -42.313  55.140 -56.345  1.00  0.00    -0.046 NA
ENDROOT
BRANCH   1   7
HETATM    7  N   UNL     1     -42.159  54.007 -54.221  1.00  0.00    -0.150 N 
HETATM    8  C   UNL     1     -40.815  53.765 -54.097  1.00  0.00     0.271 C 
HETATM    9  O   UNL     1     -39.905  54.285 -54.732  1.00  0.00    -0.267 OA
HETATM   10  H   UNL     1     -42.829  53.573 -53.607  1.00  0.00     0.188 HD
BRANCH   8  11
HETATM   11  C   UNL     1     -40.451  52.818 -53.014  1.00  0.00     0.045 A 
HETATM   12  C   UNL     1     -40.052  51.482 -53.260  1.00  0.00     0.008 A 
HETATM   13  C   UNL     1     -39.782  50.663 -52.157  1.00  0.00     0.043 A 
HETATM   14  C   UNL     1     -39.803  50.686 -54.421  1.00  0.00     0.032 A 
HETATM   15  C   UNL     1     -39.870  51.113 -50.834  1.00  0.00     0.030 A 
HETATM   16  N   UNL     1     -39.434  49.421 -52.639  1.00  0.00    -0.365 N 
HETATM   17  C   UNL     1     -40.232  52.444 -50.617  1.00  0.00     0.003 A 
HETATM   18  C   UNL     1     -40.516  53.286 -51.688  1.00  0.00     0.018 A 
HETATM   19  H   UNL     1     -39.189  48.630 -52.059  1.00  0.00     0.165 HD
HETATM   20  C   UNL     1     -39.441  49.425 -54.006  1.00  0.00     0.089 A 
ENDBRANCH   8  11
ENDBRANCH   1   7
BRANCH   5  21
HETATM   21  C   UNL     1     -42.955  56.887 -58.037  1.00  0.00     0.119 C 
BRANCH  21  22
HETATM   22  C   UNL     1     -44.102  56.572 -58.975  1.00  0.00    -0.045 A 
HETATM   23  C   UNL     1     -45.301  57.303 -58.926  1.00  0.00     0.050 A 
HETATM   24  C   UNL     1     -46.341  57.011 -59.807  1.00  0.00     0.119 A 
HETATM   25  F   UNL     1     -47.483  57.707 -59.732  1.00  0.00    -0.206 F 
HETATM   26  C   UNL     1     -46.213  56.013 -60.761  1.00  0.00     0.084 A 
HETATM   27  C   UNL     1     -45.022  55.307 -60.828  1.00  0.00     0.119 A 
HETATM   28  F   UNL     1     -44.876  54.347 -61.751  1.00  0.00    -0.206 F 
HETATM   29  C   UNL     1     -43.969  55.575 -59.952  1.00  0.00     0.050 A 
ENDBRANCH  21  22
ENDBRANCH   5  21
TORSDOF 4
ENDMDL
MODEL 5
REMARK VINA RESULT:      -9.2      3.678      9.007
REMARK  4 active torsions:
REMARK  status: ('A' for Active; 'I' for Inactive)
REMARK    1  A    between atoms: C_5  and  C_6 
REMARK       I    between atoms: C_6  and  N_7 
REMARK    2  A    between atoms: N_7  and  C_8 
REMARK    3  A    between atoms: C_12  and  C_13 
REMARK    4  A    between atoms: C_13  and  C_14 
ROOT
HETATM    1  C   UNL     1     -42.743  54.911 -55.199  1.00  0.00     0.747 A 
HETATM    2  N   UNL     1     -43.784  55.636 -54.776  1.00  0.00     0.020 NA
HETATM    3  N   UNL     1     -44.004  56.439 -55.831  1.00  0.00    -0.248 N 
HETATM    4  H   UNL     1     -44.738  57.136 -55.783  1.00  0.00     0.191 HD
HETATM    5  C   UNL     1     -43.114  56.190 -56.834  1.00  0.00     0.144 A 
HETATM    6  N   UNL     1     -42.326  55.207 -56.460  1.00  0.00    -0.046 NA
ENDROOT
BRANCH   1   7
HETATM    7  N   UNL     1     -42.149  53.994 -54.383  1.00  0.00    -0.150 N 
HETATM    8  C   UNL     1     -40.883  54.107 -53.865  1.00  0.00     0.271 C 
HETATM    9  O   UNL     1     -40.073  55.002 -54.073  1.00  0.00    -0.267 OA
HETATM   10  H   UNL     1     -42.766  53.249 -54.101  1.00  0.00     0.188 HD
BRANCH   8  11
HETATM   11  C   UNL     1     -40.514  53.051 -52.889  1.00  0.00     0.045 A 
HETATM   12  C   UNL     1     -40.151  51.738 -53.275  1.00  0.00     0.008 A 
HETATM   13  C   UNL     1     -39.872  50.810 -52.265  1.00  0.00     0.043 A 
HETATM   14  C   UNL     1     -39.947  51.056 -54.514  1.00  0.00     0.032 A 
HETATM   15  C   UNL     1     -39.919  51.129 -50.902  1.00  0.00     0.030 A 
HETATM   16  N   UNL     1     -39.563  49.614 -52.875  1.00  0.00    -0.365 N 
HETATM   17  C   UNL     1     -40.246  52.439 -50.547  1.00  0.00     0.003 A 
HETATM   18  C   UNL     1     -40.538  53.387 -51.523  1.00  0.00     0.018 A 
HETATM   19  H   UNL     1     -39.321  48.766 -52.382  1.00  0.00     0.165 HD
HETATM   20  C   UNL     1     -39.602  49.753 -54.235  1.00  0.00     0.089 A 
ENDBRANCH   8  11
ENDBRANCH   1   7
BRANCH   5  21
HETATM   21  C   UNL     1     -43.045  56.980 -58.093  1.00  0.00     0.119 C 
BRANCH  21  22
HETATM   22  C   UNL     1     -44.158  56.649 -59.065  1.00  0.00    -0.045 A 
HETATM   23  C   UNL     1     -44.014  55.618 -60.010  1.00  0.00     0.050 A 
HETATM   24  C   UNL     1     -45.053  55.315 -60.887  1.00  0.00     0.119 A 
HETATM   25  F   UNL     1     -44.890  54.342 -61.792  1.00  0.00    -0.206 F 
HETATM   26  C   UNL     1     -46.256  56.003 -60.838  1.00  0.00     0.084 A 
HETATM   27  C   UNL     1     -46.411  57.004 -59.891  1.00  0.00     0.119 A 
HETATM   28  F   UNL     1     -47.569  57.672 -59.820  1.00  0.00    -0.206 F 
HETATM   29  C   UNL     1     -45.382  57.331 -59.006  1.00  0.00     0.050 A 
ENDBRANCH  21  22
ENDBRANCH   5  21
TORSDOF 4
ENDMDL
MODEL 6
REMARK VINA RESULT:      -8.9      1.057      2.536
REMARK  4 active torsions:
REMARK  status: ('A' for Active; 'I' for Inactive)
REMARK    1  A    between atoms: C_5  and  C_6 
REMARK       I    between atoms: C_6  and  N_7 
REMARK    2  A    between atoms: N_7  and  C_8 
REMARK    3  A    between atoms: C_12  and  C_13 
REMARK    4  A    between atoms: C_13  and  C_14 
ROOT
HETATM    1  C   UNL     1     -42.422  55.569 -54.233  1.00  0.00     0.747 A 
HETATM    2  N   UNL     1     -43.434  55.047 -53.532  1.00  0.00     0.020 NA
HETATM    3  N   UNL     1     -42.784  54.460 -52.513  1.00  0.00    -0.248 N 
HETATM    4  H   UNL     1     -43.311  53.945 -51.816  1.00  0.00     0.191 HD
HETATM    5  C   UNL     1     -41.436  54.633 -52.621  1.00  0.00     0.144 A 
HETATM    6  N   UNL     1     -41.192  55.356 -53.691  1.00  0.00    -0.046 NA
ENDROOT
BRANCH   1   7
HETATM    7  N   UNL     1     -42.646  56.214 -55.415  1.00  0.00    -0.150 N 
HETATM    8  C   UNL     1     -42.972  55.598 -56.596  1.00  0.00     0.271 C 
HETATM    9  O   UNL     1     -43.073  54.394 -56.803  1.00  0.00    -0.267 OA
HETATM   10  H   UNL     1     -42.648  57.217 -55.329  1.00  0.00     0.188 HD
BRANCH   8  11
HETATM   11  C   UNL     1     -43.307  56.522 -57.708  1.00  0.00     0.045 A 
HETATM   12  C   UNL     1     -43.883  56.086 -58.926  1.00  0.00     0.008 A 
HETATM   13  C   UNL     1     -44.108  57.040 -59.925  1.00  0.00     0.043 A 
HETATM   14  C   UNL     1     -44.361  54.842 -59.444  1.00  0.00     0.032 A 
HETATM   15  C   UNL     1     -43.808  58.399 -59.763  1.00  0.00     0.030 A 
HETATM   16  N   UNL     1     -44.652  56.385 -61.007  1.00  0.00    -0.365 N 
HETATM   17  C   UNL     1     -43.272  58.810 -58.541  1.00  0.00     0.003 A 
HETATM   18  C   UNL     1     -43.026  57.889 -57.528  1.00  0.00     0.018 A 
HETATM   19  H   UNL     1     -44.913  56.833 -61.875  1.00  0.00     0.165 HD
HETATM   20  C   UNL     1     -44.812  55.057 -60.726  1.00  0.00     0.089 A 
ENDBRANCH   8  11
ENDBRANCH   1   7
BRANCH   5  21
HETATM   21  C   UNL     1     -40.446  54.020 -51.694  1.00  0.00     0.119 C 
BRANCH  21  22
HETATM   22  C   UNL     1     -40.123  52.581 -52.036  1.00  0.00    -0.045 A 
HETATM   23  C   UNL     1     -39.877  51.633 -51.028  1.00  0.00     0.050 A 
HETATM   24  C   UNL     1     -39.597  50.308 -51.359  1.00  0.00     0.119 A 
HETATM   25  F   UNL     1     -39.346  49.424 -50.385  1.00  0.00    -0.206 F 
HETATM   26  C   UNL     1     -39.574  49.889 -52.681  1.00  0.00     0.084 A 
HETATM   27  C   UNL     1     -39.841  50.816 -53.677  1.00  0.00     0.119 A 
HETATM   28  F   UNL     1     -39.835  50.428 -54.958  1.00  0.00    -0.206 F 
HETATM   29  C   UNL     1     -40.117  52.150 -53.371  1.00  0.00     0.050 A 
ENDBRANCH  21  22
ENDBRANCH   5  21
TORSDOF 4
ENDMDL
MODEL 7
REMARK VINA RESULT:      -8.8      3.750      8.892
REMARK  4 active torsions:
REMARK  status: ('A' for Active; 'I' for Inactive)
REMARK    1  A    between atoms: C_5  and  C_6 
REMARK       I    between atoms: C_6  and  N_7 
REMARK    2  A    between atoms: N_7  and  C_8 
REMARK    3  A    between atoms: C_12  and  C_13 
REMARK    4  A    between atoms: C_13  and  C_14 
ROOT
HETATM    1  C   UNL     1     -42.080  56.776 -55.048  1.00  0.00     0.747 A 
HETATM    2  N   UNL     1     -42.535  58.019 -54.862  1.00  0.00     0.020 NA
HETATM    3  N   UNL     1     -42.772  58.414 -56.124  1.00  0.00    -0.248 N 
HETATM    4  H   UNL     1     -43.106  59.355 -56.299  1.00  0.00     0.191 HD
HETATM    5  C   UNL     1     -42.460  57.431 -57.016  1.00  0.00     0.144 A 
HETATM    6  N   UNL     1     -42.046  56.377 -56.348  1.00  0.00    -0.046 NA
ENDROOT
BRANCH   1   7
HETATM    7  N   UNL     1     -41.652  56.021 -53.995  1.00  0.00    -0.150 N 
HETATM    8  C   UNL     1     -42.332  54.953 -53.467  1.00  0.00     0.271 C 
HETATM    9  O   UNL     1     -43.430  54.529 -53.808  1.00  0.00    -0.267 OA
HETATM   10  H   UNL     1     -40.722  56.254 -53.686  1.00  0.00     0.188 HD
BRANCH   8  11
HETATM   11  C   UNL     1     -41.596  54.203 -52.419  1.00  0.00     0.045 A 
HETATM   12  C   UNL     1     -40.741  53.113 -52.709  1.00  0.00     0.008 A 
HETATM   13  C   UNL     1     -40.138  52.446 -51.636  1.00  0.00     0.043 A 
HETATM   14  C   UNL     1     -40.264  52.473 -53.895  1.00  0.00     0.032 A 
HETATM   15  C   UNL     1     -40.329  52.823 -50.300  1.00  0.00     0.030 A 
HETATM   16  N   UNL     1     -39.374  51.426 -52.157  1.00  0.00    -0.365 N 
HETATM   17  C   UNL     1     -41.150  53.923 -50.041  1.00  0.00     0.003 A 
HETATM   18  C   UNL     1     -41.773  54.605 -51.082  1.00  0.00     0.018 A 
HETATM   19  H   UNL     1     -38.828  50.779 -51.604  1.00  0.00     0.165 HD
HETATM   20  C   UNL     1     -39.442  51.435 -53.523  1.00  0.00     0.089 A 
ENDBRANCH   8  11
ENDBRANCH   1   7
BRANCH   5  21
HETATM   21  C   UNL     1     -42.526  57.601 -58.493  1.00  0.00     0.119 C 
BRANCH  21  22
HETATM   22  C   UNL     1     -43.795  57.041 -59.100  1.00  0.00    -0.045 A 
HETATM   23  C   UNL     1     -45.052  57.584 -58.783  1.00  0.00     0.050 A 
HETATM   24  C   UNL     1     -46.209  57.067 -59.363  1.00  0.00     0.119 A 
HETATM   25  F   UNL     1     -47.399  57.585 -59.035  1.00  0.00    -0.206 F 
HETATM   26  C   UNL     1     -46.150  56.025 -60.277  1.00  0.00     0.084 A 
HETATM   27  C   UNL     1     -44.908  55.504 -60.610  1.00  0.00     0.119 A 
HETATM   28  F   UNL     1     -44.830  54.505 -61.498  1.00  0.00    -0.206 F 
HETATM   29  C   UNL     1     -43.736  55.999 -60.037  1.00  0.00     0.050 A 
ENDBRANCH  21  22
ENDBRANCH   5  21
TORSDOF 4
ENDMDL
MODEL 8
REMARK VINA RESULT:      -8.4      4.213      9.267
REMARK  4 active torsions:
REMARK  status: ('A' for Active; 'I' for Inactive)
REMARK    1  A    between atoms: C_5  and  C_6 
REMARK       I    between atoms: C_6  and  N_7 
REMARK    2  A    between atoms: N_7  and  C_8 
REMARK    3  A    between atoms: C_12  and  C_13 
REMARK    4  A    between atoms: C_13  and  C_14 
ROOT
HETATM    1  C   UNL     1     -42.695  55.289 -55.481  1.00  0.00     0.747 A 
HETATM    2  N   UNL     1     -43.011  54.835 -56.698  1.00  0.00     0.020 NA
HETATM    3  N   UNL     1     -43.544  55.930 -57.267  1.00  0.00    -0.248 N 
HETATM    4  H   UNL     1     -43.910  55.875 -58.211  1.00  0.00     0.191 HD
HETATM    5  C   UNL     1     -43.540  56.986 -56.404  1.00  0.00     0.144 A 
HETATM    6  N   UNL     1     -42.981  56.604 -55.278  1.00  0.00    -0.046 NA
ENDROOT
BRANCH   1   7
HETATM    7  N   UNL     1     -42.173  54.456 -54.535  1.00  0.00    -0.150 N 
HETATM    8  C   UNL     1     -40.867  54.038 -54.492  1.00  0.00     0.271 C 
HETATM    9  O   UNL     1     -39.977  54.297 -55.294  1.00  0.00    -0.267 OA
HETATM   10  H   UNL     1     -42.817  54.240 -53.792  1.00  0.00     0.188 HD
BRANCH   8  11
HETATM   11  C   UNL     1     -40.505  53.250 -53.287  1.00  0.00     0.045 A 
HETATM   12  C   UNL     1     -40.152  51.880 -53.340  1.00  0.00     0.008 A 
HETATM   13  C   UNL     1     -39.880  51.224 -52.133  1.00  0.00     0.043 A 
HETATM   14  C   UNL     1     -39.954  50.914 -54.374  1.00  0.00     0.032 A 
HETATM   15  C   UNL     1     -39.924  51.868 -50.890  1.00  0.00     0.030 A 
HETATM   16  N   UNL     1     -39.580  49.914 -52.432  1.00  0.00    -0.365 N 
HETATM   17  C   UNL     1     -40.242  53.227 -50.866  1.00  0.00     0.003 A 
HETATM   18  C   UNL     1     -40.526  53.910 -52.044  1.00  0.00     0.018 A 
HETATM   19  H   UNL     1     -39.345  49.210 -51.746  1.00  0.00     0.165 HD
HETATM   20  C   UNL     1     -39.619  49.717 -53.785  1.00  0.00     0.089 A 
ENDBRANCH   8  11
ENDBRANCH   1   7
BRANCH   5  21
HETATM   21  C   UNL     1     -44.147  58.309 -56.713  1.00  0.00     0.119 C 
BRANCH  21  22
HETATM   22  C   UNL     1     -43.421  59.055 -57.812  1.00  0.00    -0.045 A 
HETATM   23  C   UNL     1     -43.883  59.025 -59.139  1.00  0.00     0.050 A 
HETATM   24  C   UNL     1     -43.212  59.731 -60.136  1.00  0.00     0.119 A 
HETATM   25  F   UNL     1     -43.657  59.674 -61.397  1.00  0.00    -0.206 F 
HETATM   26  C   UNL     1     -42.090  60.492 -59.843  1.00  0.00     0.084 A 
HETATM   27  C   UNL     1     -41.646  60.544 -58.531  1.00  0.00     0.119 A 
HETATM   28  F   UNL     1     -40.571  61.283 -58.228  1.00  0.00    -0.206 F 
HETATM   29  C   UNL     1     -42.296  59.840 -57.516  1.00  0.00     0.050 A 
ENDBRANCH  21  22
ENDBRANCH   5  21
TORSDOF 4
ENDMDL
MODEL 9
REMARK VINA RESULT:      -8.4      1.168      2.095
REMARK  4 active torsions:
REMARK  status: ('A' for Active; 'I' for Inactive)
REMARK    1  A    between atoms: C_5  and  C_6 
REMARK       I    between atoms: C_6  and  N_7 
REMARK    2  A    between atoms: N_7  and  C_8 
REMARK    3  A    between atoms: C_12  and  C_13 
REMARK    4  A    between atoms: C_13  and  C_14 
ROOT
HETATM    1  C   UNL     1     -42.975  55.303 -55.385  1.00  0.00     0.747 A 
HETATM    2  N   UNL     1     -43.494  54.099 -55.123  1.00  0.00     0.020 NA
HETATM    3  N   UNL     1     -42.531  53.547 -54.365  1.00  0.00    -0.248 N 
HETATM    4  H   UNL     1     -42.641  52.596 -54.034  1.00  0.00     0.191 HD
HETATM    5  C   UNL     1     -41.484  54.404 -54.195  1.00  0.00     0.144 A 
HETATM    6  N   UNL     1     -41.762  55.530 -54.813  1.00  0.00    -0.046 NA
ENDROOT
BRANCH   1   7
HETATM    7  N   UNL     1     -43.623  56.183 -56.203  1.00  0.00    -0.150 N 
HETATM    8  C   UNL     1     -43.359  56.354 -57.538  1.00  0.00     0.271 C 
HETATM    9  O   UNL     1     -42.493  55.795 -58.202  1.00  0.00    -0.267 OA
HETATM   10  H   UNL     1     -44.400  56.645 -55.759  1.00  0.00     0.188 HD
BRANCH   8  11
HETATM   11  C   UNL     1     -44.292  57.266 -58.245  1.00  0.00     0.045 A 
HETATM   12  C   UNL     1     -45.112  56.848 -59.321  1.00  0.00     0.008 A 
HETATM   13  C   UNL     1     -45.917  57.807 -59.946  1.00  0.00     0.043 A 
HETATM   14  C   UNL     1     -45.385  55.607 -59.977  1.00  0.00     0.032 A 
HETATM   15  C   UNL     1     -45.957  59.148 -59.542  1.00  0.00     0.030 A 
HETATM   16  N   UNL     1     -46.602  57.177 -60.960  1.00  0.00    -0.365 N 
HETATM   17  C   UNL     1     -45.166  59.530 -58.456  1.00  0.00     0.003 A 
HETATM   18  C   UNL     1     -44.347  58.605 -57.816  1.00  0.00     0.018 A 
HETATM   19  H   UNL     1     -47.257  57.635 -61.580  1.00  0.00     0.165 HD
HETATM   20  C   UNL     1     -46.290  55.846 -60.985  1.00  0.00     0.089 A 
ENDBRANCH   8  11
ENDBRANCH   1   7
BRANCH   5  21
HETATM   21  C   UNL     1     -40.229  54.045 -53.482  1.00  0.00     0.119 C 
BRANCH  21  22
HETATM   22  C   UNL     1     -40.061  52.554 -53.287  1.00  0.00    -0.045 A 
HETATM   23  C   UNL     1     -40.035  51.676 -54.384  1.00  0.00     0.050 A 
HETATM   24  C   UNL     1     -39.864  50.307 -54.188  1.00  0.00     0.119 A 
HETATM   25  F   UNL     1     -39.861  49.485 -55.245  1.00  0.00    -0.206 F 
HETATM   26  C   UNL     1     -39.696  49.780 -52.916  1.00  0.00     0.084 A 
HETATM   27  C   UNL     1     -39.696  50.646 -51.833  1.00  0.00     0.119 A 
HETATM   28  F   UNL     1     -39.523  50.158 -50.599  1.00  0.00    -0.206 F 
HETATM   29  C   UNL     1     -39.873  52.020 -52.003  1.00  0.00     0.050 A 
ENDBRANCH  21  22
ENDBRANCH   5  21
TORSDOF 4
ENDMDL
MODEL 10
REMARK VINA RESULT:      -8.3      1.898      2.856
REMARK  4 active torsions:
REMARK  status: ('A' for Active; 'I' for Inactive)
REMARK    1  A    between atoms: C_5  and  C_6 
REMARK       I    between atoms: C_6  and  N_7 
REMARK    2  A    between atoms: N_7  and  C_8 
REMARK    3  A    between atoms: C_12  and  C_13 
REMARK    4  A    between atoms: C_13  and  C_14 
ROOT
HETATM    1  C   UNL     1     -42.138  55.712 -54.957  1.00  0.00     0.747 A 
HETATM    2  N   UNL     1     -43.180  54.933 -54.649  1.00  0.00     0.020 NA
HETATM    3  N   UNL     1     -42.826  54.468 -53.439  1.00  0.00    -0.248 N 
HETATM    4  H   UNL     1     -43.430  53.811 -52.960  1.00  0.00     0.191 HD
HETATM    5  C   UNL     1     -41.613  54.961 -53.057  1.00  0.00     0.144 A 
HETATM    6  N   UNL     1     -41.177  55.771 -53.996  1.00  0.00    -0.046 NA
ENDROOT
BRANCH   1   7
HETATM    7  N   UNL     1     -42.065  56.341 -56.165  1.00  0.00    -0.150 N 
HETATM    8  C   UNL     1     -42.966  57.267 -56.624  1.00  0.00     0.271 C 
HETATM    9  O   UNL     1     -43.989  57.649 -56.067  1.00  0.00    -0.267 OA
HETATM   10  H   UNL     1     -41.217  56.138 -56.671  1.00  0.00     0.188 HD
BRANCH   8  11
HETATM   11  C   UNL     1     -42.594  57.915 -57.906  1.00  0.00     0.045 A 
HETATM   12  C   UNL     1     -42.236  59.282 -58.004  1.00  0.00     0.008 A 
HETATM   13  C   UNL     1     -41.953  59.798 -59.274  1.00  0.00     0.043 A 
HETATM   14  C   UNL     1     -42.041  60.356 -57.082  1.00  0.00     0.032 A 
HETATM   15  C   UNL     1     -41.991  59.021 -60.439  1.00  0.00     0.030 A 
HETATM   16  N   UNL     1     -41.650  61.133 -59.120  1.00  0.00    -0.365 N 
HETATM   17  C   UNL     1     -42.313  57.668 -60.313  1.00  0.00     0.003 A 
HETATM   18  C   UNL     1     -42.609  57.121 -59.069  1.00  0.00     0.018 A 
HETATM   19  H   UNL     1     -41.408  61.756 -59.879  1.00  0.00     0.165 HD
HETATM   20  C   UNL     1     -41.698  61.479 -57.799  1.00  0.00     0.089 A 
ENDBRANCH   8  11
ENDBRANCH   1   7
BRANCH   5  21
HETATM   21  C   UNL     1     -40.912  54.557 -51.809  1.00  0.00     0.119 C 
BRANCH  21  22
HETATM   22  C   UNL     1     -40.436  53.121 -51.832  1.00  0.00    -0.045 A 
HETATM   23  C   UNL     1     -40.452  52.331 -50.669  1.00  0.00     0.050 A 
HETATM   24  C   UNL     1     -40.026  51.005 -50.711  1.00  0.00     0.119 A 
HETATM   25  F   UNL     1     -40.032  50.275 -49.589  1.00  0.00    -0.206 F 
HETATM   26  C   UNL     1     -39.596  50.428 -51.896  1.00  0.00     0.084 A 
HETATM   27  C   UNL     1     -39.601  51.197 -53.050  1.00  0.00     0.119 A 
HETATM   28  F   UNL     1     -39.200  50.653 -54.206  1.00  0.00    -0.206 F 
HETATM   29  C   UNL     1     -40.017  52.529 -53.032  1.00  0.00     0.050 A 
ENDBRANCH  21  22
ENDBRANCH   5  21
TORSDOF 4
ENDMDL
