MODEL 1
REMARK VINA RESULT:      -8.7      0.000      0.000
REMARK  4 active torsions:
REMARK  status: ('A' for Active; 'I' for Inactive)
REMARK    1  A    between atoms: N_8  and  C_10 
REMARK    2  A    between atoms: C_10  and  C_11 
REMARK    3  A    between atoms: C_14  and  C_15 
REMARK    4  A    between atoms: C_22  and  C_23 
ROOT
HETATM    1  C   UNL     1     -41.197  55.290 -49.076  1.00  0.00     0.269 C 
HETATM    2  N   UNL     1     -41.071  55.074 -50.572  1.00  0.00    -0.073 N 
HETATM    3  H   UNL     1     -40.278  55.663 -50.856  1.00  0.00     0.279 HD
HETATM    4  C   UNL     1     -42.322  55.509 -51.294  1.00  0.00     0.244 C 
HETATM    5  C   UNL     1     -42.185  55.361 -52.837  1.00  0.00    -0.013 C 
HETATM    6  C   UNL     1     -43.582  55.629 -53.467  1.00  0.00     0.039 C 
HETATM    7  C   UNL     1     -43.575  55.691 -54.995  1.00  0.00     0.236 C 
HETATM    8  N   UNL     1     -42.574  56.706 -55.476  1.00  0.00    -0.064 N 
HETATM    9  H   UNL     1     -42.531  56.561 -56.502  1.00  0.00     0.280 HD
HETATM   10  C   UNL     1     -41.191  56.488 -54.949  1.00  0.00     0.236 C 
HETATM   11  C   UNL     1     -41.198  56.413 -53.417  1.00  0.00     0.039 C 
HETATM   12  C   UNL     1     -41.744  53.906 -53.158  1.00  0.00     0.022 C 
HETATM   13  C   UNL     1     -40.499  53.449 -52.371  1.00  0.00     0.045 C 
HETATM   14  C   UNL     1     -40.700  53.630 -50.862  1.00  0.00     0.243 C 
ENDROOT
BRANCH  13  15
HETATM   15  C   UNL     1     -40.125  52.020 -52.712  1.00  0.00    -0.052 A 
HETATM   16  C   UNL     1     -39.707  51.151 -51.692  1.00  0.00     0.007 A 
HETATM   17  C   UNL     1     -39.360  49.830 -51.980  1.00  0.00     0.001 A 
HETATM   18  C   UNL     1     -39.424  49.360 -53.288  1.00  0.00     0.000 A 
HETATM   19  C   UNL     1     -39.838  50.209 -54.310  1.00  0.00     0.001 A 
HETATM   20  C   UNL     1     -40.186  51.530 -54.027  1.00  0.00     0.007 A 
ENDBRANCH  13  15
BRANCH   8  21
HETATM   21  C   UNL     1     -43.062  58.163 -55.409  1.00  0.00     0.317 C 
BRANCH  21  22
HETATM   22  C   UNL     1     -42.410  59.033 -56.425  1.00  0.00     0.181 A 
HETATM   23  N   UNL     1     -41.629  60.066 -56.106  1.00  0.00    -0.109 NA
HETATM   24  O   UNL     1     -41.310  60.610 -57.355  1.00  0.00    -0.196 OA
HETATM   25  C   UNL     1     -41.967  59.860 -58.296  1.00  0.00     0.177 A 
HETATM   26  N   UNL     1     -42.688  58.890 -57.760  1.00  0.00    -0.207 NA
BRANCH  25  27
HETATM   27  C   UNL     1     -41.875  60.146 -59.787  1.00  0.00     0.065 A 
HETATM   28  C   UNL     1     -42.849  61.132 -60.399  1.00  0.00     0.013 A 
HETATM   29  C   UNL     1     -41.419  61.518 -60.240  1.00  0.00     0.013 A 
ENDBRANCH  25  27
ENDBRANCH  21  22
ENDBRANCH   8  21
TORSDOF 4
ENDMDL
MODEL 2
REMARK VINA RESULT:      -8.7      4.720      6.869
REMARK  4 active torsions:
REMARK  status: ('A' for Active; 'I' for Inactive)
REMARK    1  A    between atoms: N_8  and  C_10 
REMARK    2  A    between atoms: C_10  and  C_11 
REMARK    3  A    between atoms: C_14  and  C_15 
REMARK    4  A    between atoms: C_22  and  C_23 
ROOT
HETATM    1  C   UNL     1     -42.864  55.955 -57.304  1.00  0.00     0.269 C 
HETATM    2  N   UNL     1     -42.825  55.821 -55.793  1.00  0.00    -0.073 N 
HETATM    3  H   UNL     1     -43.788  55.579 -55.527  1.00  0.00     0.279 HD
HETATM    4  C   UNL     1     -42.420  57.119 -55.140  1.00  0.00     0.244 C 
HETATM    5  C   UNL     1     -42.442  57.021 -53.587  1.00  0.00    -0.013 C 
HETATM    6  C   UNL     1     -41.812  58.325 -53.018  1.00  0.00     0.039 C 
HETATM    7  C   UNL     1     -41.918  58.458 -51.499  1.00  0.00     0.236 C 
HETATM    8  N   UNL     1     -43.351  58.327 -51.059  1.00  0.00    -0.064 N 
HETATM    9  H   UNL     1     -43.301  58.271 -50.024  1.00  0.00     0.280 HD
HETATM   10  C   UNL     1     -44.016  57.072 -51.528  1.00  0.00     0.236 C 
HETATM   11  C   UNL     1     -43.899  56.931 -53.051  1.00  0.00     0.039 C 
HETATM   12  C   UNL     1     -41.584  55.801 -53.155  1.00  0.00     0.022 C 
HETATM   13  C   UNL     1     -41.966  54.490 -53.871  1.00  0.00     0.045 C 
HETATM   14  C   UNL     1     -41.930  54.660 -55.395  1.00  0.00     0.243 C 
ENDROOT
BRANCH  13  15
HETATM   15  C   UNL     1     -41.087  53.339 -53.422  1.00  0.00    -0.052 A 
HETATM   16  C   UNL     1     -40.667  53.268 -52.084  1.00  0.00     0.007 A 
HETATM   17  C   UNL     1     -39.859  52.217 -51.647  1.00  0.00     0.001 A 
HETATM   18  C   UNL     1     -39.459  51.226 -52.538  1.00  0.00     0.000 A 
HETATM   19  C   UNL     1     -39.868  51.282 -53.867  1.00  0.00     0.001 A 
HETATM   20  C   UNL     1     -40.676  52.330 -54.308  1.00  0.00     0.007 A 
ENDBRANCH  13  15
BRANCH   8  21
HETATM   21  C   UNL     1     -44.192  59.603 -51.240  1.00  0.00     0.317 C 
BRANCH  21  22
HETATM   22  C   UNL     1     -44.797  60.076 -49.965  1.00  0.00     0.181 A 
HETATM   23  N   UNL     1     -45.860  59.499 -49.404  1.00  0.00    -0.109 NA
HETATM   24  O   UNL     1     -46.101  60.309 -48.290  1.00  0.00    -0.196 OA
HETATM   25  C   UNL     1     -45.170  61.315 -48.320  1.00  0.00     0.177 A 
HETATM   26  N   UNL     1     -44.361  61.228 -49.361  1.00  0.00    -0.207 NA
BRANCH  25  27
HETATM   27  C   UNL     1     -45.109  62.412 -47.268  1.00  0.00     0.065 A 
HETATM   28  C   UNL     1     -46.256  63.399 -47.179  1.00  0.00     0.013 A 
HETATM   29  C   UNL     1     -46.091  62.371 -46.114  1.00  0.00     0.013 A 
ENDBRANCH  25  27
ENDBRANCH  21  22
ENDBRANCH   8  21
TORSDOF 4
ENDMDL
MODEL 3
REMARK VINA RESULT:      -8.6      2.377      2.629
REMARK  4 active torsions:
REMARK  status: ('A' for Active; 'I' for Inactive)
REMARK    1  A    between atoms: N_8  and  C_10 
REMARK    2  A    between atoms: C_10  and  C_11 
REMARK    3  A    between atoms: C_14  and  C_15 
REMARK    4  A    between atoms: C_22  and  C_23 
ROOT
HETATM    1  C   UNL     1     -41.365  55.797 -49.462  1.00  0.00     0.269 C 
HETATM    2  N   UNL     1     -41.104  55.241 -50.849  1.00  0.00    -0.073 N 
HETATM    3  H   UNL     1     -40.273  55.747 -51.182  1.00  0.00     0.279 HD
HETATM    4  C   UNL     1     -42.270  55.502 -51.770  1.00  0.00     0.244 C 
HETATM    5  C   UNL     1     -41.993  55.002 -53.217  1.00  0.00    -0.013 C 
HETATM    6  C   UNL     1     -43.317  55.122 -54.024  1.00  0.00     0.039 C 
HETATM    7  C   UNL     1     -43.166  54.830 -55.517  1.00  0.00     0.236 C 
HETATM    8  N   UNL     1     -42.099  55.704 -56.119  1.00  0.00    -0.064 N 
HETATM    9  H   UNL     1     -41.963  55.327 -57.075  1.00  0.00     0.280 HD
HETATM   10  C   UNL     1     -40.778  55.609 -55.424  1.00  0.00     0.236 C 
HETATM   11  C   UNL     1     -40.930  55.889 -53.924  1.00  0.00     0.039 C 
HETATM   12  C   UNL     1     -41.561  53.512 -53.152  1.00  0.00     0.022 C 
HETATM   13  C   UNL     1     -40.407  53.244 -52.164  1.00  0.00     0.045 C 
HETATM   14  C   UNL     1     -40.743  53.768 -50.763  1.00  0.00     0.243 C 
ENDROOT
BRANCH  13  15
HETATM   15  C   UNL     1     -40.039  51.774 -52.131  1.00  0.00    -0.052 A 
HETATM   16  C   UNL     1     -39.910  51.120 -50.895  1.00  0.00     0.007 A 
HETATM   17  C   UNL     1     -39.574  49.766 -50.838  1.00  0.00     0.001 A 
HETATM   18  C   UNL     1     -39.362  49.049 -52.012  1.00  0.00     0.000 A 
HETATM   19  C   UNL     1     -39.487  49.683 -53.244  1.00  0.00     0.001 A 
HETATM   20  C   UNL     1     -39.823  51.036 -53.306  1.00  0.00     0.007 A 
ENDBRANCH  13  15
BRANCH   8  21
HETATM   21  C   UNL     1     -42.555  57.139 -56.435  1.00  0.00     0.317 C 
BRANCH  21  22
HETATM   22  C   UNL     1     -43.078  57.282 -57.821  1.00  0.00     0.181 A 
HETATM   23  N   UNL     1     -42.313  57.628 -58.856  1.00  0.00    -0.109 NA
HETATM   24  O   UNL     1     -43.231  57.701 -59.909  1.00  0.00    -0.196 OA
HETATM   25  C   UNL     1     -44.465  57.422 -59.381  1.00  0.00     0.177 A 
HETATM   26  N   UNL     1     -44.421  57.188 -58.081  1.00  0.00    -0.207 NA
BRANCH  25  27
HETATM   27  C   UNL     1     -45.734  57.409 -60.219  1.00  0.00     0.065 A 
HETATM   28  C   UNL     1     -46.237  56.084 -60.757  1.00  0.00     0.013 A 
HETATM   29  C   UNL     1     -46.977  56.754 -59.651  1.00  0.00     0.013 A 
ENDBRANCH  25  27
ENDBRANCH  21  22
ENDBRANCH   8  21
TORSDOF 4
ENDMDL
MODEL 4
REMARK VINA RESULT:      -8.0      3.115      3.563
REMARK  4 active torsions:
REMARK  status: ('A' for Active; 'I' for Inactive)
REMARK    1  A    between atoms: N_8  and  C_10 
REMARK    2  A    between atoms: C_10  and  C_11 
REMARK    3  A    between atoms: C_14  and  C_15 
REMARK    4  A    between atoms: C_22  and  C_23 
ROOT
HETATM    1  C   UNL     1     -40.215  53.930 -47.652  1.00  0.00     0.269 C 
HETATM    2  N   UNL     1     -40.400  54.290 -49.114  1.00  0.00    -0.073 N 
HETATM    3  H   UNL     1     -39.634  54.945 -49.321  1.00  0.00     0.279 HD
HETATM    4  C   UNL     1     -41.730  54.962 -49.348  1.00  0.00     0.244 C 
HETATM    5  C   UNL     1     -41.908  55.403 -50.829  1.00  0.00    -0.013 C 
HETATM    6  C   UNL     1     -43.376  55.885 -51.010  1.00  0.00     0.039 C 
HETATM    7  C   UNL     1     -43.662  56.515 -52.373  1.00  0.00     0.236 C 
HETATM    8  N   UNL     1     -42.700  57.638 -52.646  1.00  0.00    -0.064 N 
HETATM    9  H   UNL     1     -42.868  57.889 -53.638  1.00  0.00     0.280 HD
HETATM   10  C   UNL     1     -41.262  57.242 -52.537  1.00  0.00     0.236 C 
HETATM   11  C   UNL     1     -40.976  56.598 -51.175  1.00  0.00     0.039 C 
HETATM   12  C   UNL     1     -41.650  54.176 -51.746  1.00  0.00     0.022 C 
HETATM   13  C   UNL     1     -40.314  53.460 -51.461  1.00  0.00     0.045 C 
HETATM   14  C   UNL     1     -40.203  53.061 -49.984  1.00  0.00     0.243 C 
ENDROOT
BRANCH  13  15
HETATM   15  C   UNL     1     -40.124  52.264 -52.372  1.00  0.00    -0.052 A 
HETATM   16  C   UNL     1     -39.647  51.055 -51.840  1.00  0.00     0.007 A 
HETATM   17  C   UNL     1     -39.466  49.940 -52.658  1.00  0.00     0.001 A 
HETATM   18  C   UNL     1     -39.757  50.015 -54.017  1.00  0.00     0.000 A 
HETATM   19  C   UNL     1     -40.231  51.205 -54.560  1.00  0.00     0.001 A 
HETATM   20  C   UNL     1     -40.414  52.323 -53.745  1.00  0.00     0.007 A 
ENDBRANCH  13  15
BRANCH   8  21
HETATM   21  C   UNL     1     -43.053  58.963 -51.948  1.00  0.00     0.317 C 
BRANCH  21  22
HETATM   22  C   UNL     1     -43.048  60.122 -52.882  1.00  0.00     0.181 A 
HETATM   23  N   UNL     1     -42.858  59.998 -54.196  1.00  0.00    -0.109 NA
HETATM   24  O   UNL     1     -42.868  61.325 -54.637  1.00  0.00    -0.196 OA
HETATM   25  C   UNL     1     -43.030  62.113 -53.527  1.00  0.00     0.177 A 
HETATM   26  N   UNL     1     -43.114  61.408 -52.411  1.00  0.00    -0.207 NA
BRANCH  25  27
HETATM   27  C   UNL     1     -43.085  63.631 -53.596  1.00  0.00     0.065 A 
HETATM   28  C   UNL     1     -44.377  64.293 -54.030  1.00  0.00     0.013 A 
HETATM   29  C   UNL     1     -43.956  64.376 -52.604  1.00  0.00     0.013 A 
ENDBRANCH  25  27
ENDBRANCH  21  22
ENDBRANCH   8  21
TORSDOF 4
ENDMDL
MODEL 5
REMARK VINA RESULT:      -7.7      2.640      9.328
REMARK  4 active torsions:
REMARK  status: ('A' for Active; 'I' for Inactive)
REMARK    1  A    between atoms: N_8  and  C_10 
REMARK    2  A    between atoms: C_10  and  C_11 
REMARK    3  A    between atoms: C_14  and  C_15 
REMARK    4  A    between atoms: C_22  and  C_23 
ROOT
HETATM    1  C   UNL     1     -46.206  57.477 -59.867  1.00  0.00     0.269 C 
HETATM    2  N   UNL     1     -44.897  57.552 -59.104  1.00  0.00    -0.073 N 
HETATM    3  H   UNL     1     -44.344  56.758 -59.453  1.00  0.00     0.279 HD
HETATM    4  C   UNL     1     -45.121  57.410 -57.619  1.00  0.00     0.244 C 
HETATM    5  C   UNL     1     -43.783  57.413 -56.825  1.00  0.00    -0.013 C 
HETATM    6  C   UNL     1     -44.128  57.477 -55.309  1.00  0.00     0.039 C 
HETATM    7  C   UNL     1     -42.920  57.313 -54.387  1.00  0.00     0.236 C 
HETATM    8  N   UNL     1     -42.181  56.042 -54.708  1.00  0.00    -0.064 N 
HETATM    9  H   UNL     1     -41.309  56.101 -54.151  1.00  0.00     0.280 HD
HETATM   10  C   UNL     1     -41.772  55.927 -56.142  1.00  0.00     0.236 C 
HETATM   11  C   UNL     1     -42.981  56.104 -57.069  1.00  0.00     0.039 C 
HETATM   12  C   UNL     1     -42.974  58.678 -57.223  1.00  0.00     0.022 C 
HETATM   13  C   UNL     1     -42.799  58.847 -58.746  1.00  0.00     0.045 C 
HETATM   14  C   UNL     1     -44.154  58.827 -59.465  1.00  0.00     0.243 C 
ENDROOT
BRANCH  13  15
HETATM   15  C   UNL     1     -42.017  60.102 -59.076  1.00  0.00    -0.052 A 
HETATM   16  C   UNL     1     -41.953  60.550 -60.406  1.00  0.00     0.007 A 
HETATM   17  C   UNL     1     -41.241  61.705 -60.734  1.00  0.00     0.001 A 
HETATM   18  C   UNL     1     -40.584  62.427 -59.742  1.00  0.00     0.000 A 
HETATM   19  C   UNL     1     -40.640  61.998 -58.420  1.00  0.00     0.001 A 
HETATM   20  C   UNL     1     -41.351  60.843 -58.087  1.00  0.00     0.007 A 
ENDBRANCH  13  15
BRANCH   8  21
HETATM   21  C   UNL     1     -42.816  54.770 -54.120  1.00  0.00     0.317 C 
BRANCH  21  22
HETATM   22  C   UNL     1     -41.810  53.856 -53.514  1.00  0.00     0.181 A 
HETATM   23  N   UNL     1     -41.341  54.007 -52.276  1.00  0.00    -0.109 NA
HETATM   24  O   UNL     1     -40.394  52.982 -52.175  1.00  0.00    -0.196 OA
HETATM   25  C   UNL     1     -40.372  52.341 -53.386  1.00  0.00     0.177 A 
HETATM   26  N   UNL     1     -41.213  52.871 -54.258  1.00  0.00    -0.207 NA
BRANCH  25  27
HETATM   27  C   UNL     1     -39.457  51.161 -53.676  1.00  0.00     0.065 A 
HETATM   28  C   UNL     1     -39.804  49.809 -53.085  1.00  0.00     0.013 A 
HETATM   29  C   UNL     1     -39.973  50.034 -54.548  1.00  0.00     0.013 A 
ENDBRANCH  25  27
ENDBRANCH  21  22
ENDBRANCH   8  21
TORSDOF 4
ENDMDL
MODEL 6
REMARK VINA RESULT:      -7.5      1.997      3.855
REMARK  4 active torsions:
REMARK  status: ('A' for Active; 'I' for Inactive)
REMARK    1  A    between atoms: N_8  and  C_10 
REMARK    2  A    between atoms: C_10  and  C_11 
REMARK    3  A    between atoms: C_14  and  C_15 
REMARK    4  A    between atoms: C_22  and  C_23 
ROOT
HETATM    1  C   UNL     1     -39.455  50.387 -54.138  1.00  0.00     0.269 C 
HETATM    2  N   UNL     1     -40.342  51.576 -53.819  1.00  0.00    -0.073 N 
HETATM    3  H   UNL     1     -41.302  51.220 -53.918  1.00  0.00     0.279 HD
HETATM    4  C   UNL     1     -40.109  52.708 -54.787  1.00  0.00     0.244 C 
HETATM    5  C   UNL     1     -41.061  53.909 -54.519  1.00  0.00    -0.013 C 
HETATM    6  C   UNL     1     -40.602  55.091 -55.420  1.00  0.00     0.039 C 
HETATM    7  C   UNL     1     -41.545  56.294 -55.400  1.00  0.00     0.236 C 
HETATM    8  N   UNL     1     -42.945  55.871 -55.754  1.00  0.00    -0.064 N 
HETATM    9  H   UNL     1     -43.526  56.708 -55.560  1.00  0.00     0.280 HD
HETATM   10  C   UNL     1     -43.477  54.766 -54.898  1.00  0.00     0.236 C 
HETATM   11  C   UNL     1     -42.526  53.563 -54.908  1.00  0.00     0.039 C 
HETATM   12  C   UNL     1     -40.933  54.319 -53.026  1.00  0.00     0.022 C 
HETATM   13  C   UNL     1     -41.115  53.144 -52.044  1.00  0.00     0.045 C 
HETATM   14  C   UNL     1     -40.154  51.994 -52.371  1.00  0.00     0.243 C 
ENDROOT
BRANCH  13  15
HETATM   15  C   UNL     1     -40.965  53.598 -50.606  1.00  0.00    -0.052 A 
HETATM   16  C   UNL     1     -40.460  52.706 -49.646  1.00  0.00     0.007 A 
HETATM   17  C   UNL     1     -40.310  53.101 -48.316  1.00  0.00     0.001 A 
HETATM   18  C   UNL     1     -40.662  54.390 -47.926  1.00  0.00     0.000 A 
HETATM   19  C   UNL     1     -41.163  55.286 -48.866  1.00  0.00     0.001 A 
HETATM   20  C   UNL     1     -41.314  54.895 -50.197  1.00  0.00     0.007 A 
ENDBRANCH  13  15
BRANCH   8  21
HETATM   21  C   UNL     1     -43.193  55.689 -57.261  1.00  0.00     0.317 C 
BRANCH  21  22
HETATM   22  C   UNL     1     -43.572  56.961 -57.937  1.00  0.00     0.181 A 
HETATM   23  N   UNL     1     -44.607  57.708 -57.556  1.00  0.00    -0.109 NA
HETATM   24  O   UNL     1     -44.613  58.737 -58.503  1.00  0.00    -0.196 OA
HETATM   25  C   UNL     1     -43.591  58.477 -59.380  1.00  0.00     0.177 A 
HETATM   26  N   UNL     1     -42.939  57.365 -59.085  1.00  0.00    -0.207 NA
BRANCH  25  27
HETATM   27  C   UNL     1     -43.276  59.374 -60.566  1.00  0.00     0.065 A 
HETATM   28  C   UNL     1     -42.392  60.586 -60.346  1.00  0.00     0.013 A 
HETATM   29  C   UNL     1     -41.856  59.414 -61.094  1.00  0.00     0.013 A 
ENDBRANCH  25  27
ENDBRANCH  21  22
ENDBRANCH   8  21
TORSDOF 4
ENDMDL
MODEL 7
REMARK VINA RESULT:      -7.3      2.393      3.741
REMARK  4 active torsions:
REMARK  status: ('A' for Active; 'I' for Inactive)
REMARK    1  A    between atoms: N_8  and  C_10 
REMARK    2  A    between atoms: C_10  and  C_11 
REMARK    3  A    between atoms: C_14  and  C_15 
REMARK    4  A    between atoms: C_22  and  C_23 
ROOT
HETATM    1  C   UNL     1     -41.336  55.744 -49.325  1.00  0.00     0.269 C 
HETATM    2  N   UNL     1     -41.077  55.265 -50.741  1.00  0.00    -0.073 N 
HETATM    3  H   UNL     1     -40.238  55.778 -51.042  1.00  0.00     0.279 HD
HETATM    4  C   UNL     1     -42.236  55.594 -51.649  1.00  0.00     0.244 C 
HETATM    5  C   UNL     1     -41.960  55.175 -53.122  1.00  0.00    -0.013 C 
HETATM    6  C   UNL     1     -43.279  55.358 -53.925  1.00  0.00     0.039 C 
HETATM    7  C   UNL     1     -43.125  55.150 -55.432  1.00  0.00     0.236 C 
HETATM    8  N   UNL     1     -42.045  56.043 -55.979  1.00  0.00    -0.064 N 
HETATM    9  H   UNL     1     -41.910  55.719 -56.955  1.00  0.00     0.280 HD
HETATM   10  C   UNL     1     -40.727  55.890 -55.287  1.00  0.00     0.236 C 
HETATM   11  C   UNL     1     -40.882  56.086 -53.773  1.00  0.00     0.039 C 
HETATM   12  C   UNL     1     -41.548  53.677 -53.141  1.00  0.00     0.022 C 
HETATM   13  C   UNL     1     -40.401  53.337 -52.167  1.00  0.00     0.045 C 
HETATM   14  C   UNL     1     -40.737  53.785 -50.738  1.00  0.00     0.243 C 
ENDROOT
BRANCH  13  15
HETATM   15  C   UNL     1     -40.053  51.863 -52.216  1.00  0.00    -0.052 A 
HETATM   16  C   UNL     1     -39.932  51.220 -53.459  1.00  0.00     0.007 A 
HETATM   17  C   UNL     1     -39.611  49.864 -53.530  1.00  0.00     0.001 A 
HETATM   18  C   UNL     1     -39.406  49.132 -52.365  1.00  0.00     0.000 A 
HETATM   19  C   UNL     1     -39.521  49.755 -51.126  1.00  0.00     0.001 A 
HETATM   20  C   UNL     1     -39.842  51.111 -51.049  1.00  0.00     0.007 A 
ENDBRANCH  13  15
BRANCH   8  21
HETATM   21  C   UNL     1     -42.479  57.500 -56.213  1.00  0.00     0.317 C 
BRANCH  21  22
HETATM   22  C   UNL     1     -43.604  57.911 -55.329  1.00  0.00     0.181 A 
HETATM   23  N   UNL     1     -44.885  57.771 -55.667  1.00  0.00    -0.109 NA
HETATM   24  O   UNL     1     -45.557  58.345 -54.582  1.00  0.00    -0.196 OA
HETATM   25  C   UNL     1     -44.597  58.803 -53.717  1.00  0.00     0.177 A 
HETATM   26  N   UNL     1     -43.370  58.584 -54.157  1.00  0.00    -0.207 NA
BRANCH  25  27
HETATM   27  C   UNL     1     -44.934  59.501 -52.409  1.00  0.00     0.065 A 
HETATM   28  C   UNL     1     -45.268  58.654 -51.197  1.00  0.00     0.013 A 
HETATM   29  C   UNL     1     -43.969  59.381 -51.247  1.00  0.00     0.013 A 
ENDBRANCH  25  27
ENDBRANCH  21  22
ENDBRANCH   8  21
TORSDOF 4
ENDMDL
MODEL 8
REMARK VINA RESULT:      -7.2      2.261      3.285
REMARK  4 active torsions:
REMARK  status: ('A' for Active; 'I' for Inactive)
REMARK    1  A    between atoms: N_8  and  C_10 
REMARK    2  A    between atoms: C_10  and  C_11 
REMARK    3  A    between atoms: C_14  and  C_15 
REMARK    4  A    between atoms: C_22  and  C_23 
ROOT
HETATM    1  C   UNL     1     -41.359  59.952 -50.363  1.00  0.00     0.269 C 
HETATM    2  N   UNL     1     -41.529  58.790 -51.324  1.00  0.00    -0.073 N 
HETATM    3  H   UNL     1     -40.818  58.946 -52.051  1.00  0.00     0.279 HD
HETATM    4  C   UNL     1     -42.905  58.788 -51.940  1.00  0.00     0.244 C 
HETATM    5  C   UNL     1     -43.075  57.646 -52.982  1.00  0.00    -0.013 C 
HETATM    6  C   UNL     1     -44.573  57.597 -53.397  1.00  0.00     0.039 C 
HETATM    7  C   UNL     1     -44.871  56.636 -54.548  1.00  0.00     0.236 C 
HETATM    8  N   UNL     1     -44.004  56.952 -55.736  1.00  0.00    -0.064 N 
HETATM    9  H   UNL     1     -44.162  56.164 -56.391  1.00  0.00     0.280 HD
HETATM   10  C   UNL     1     -42.540  56.972 -55.427  1.00  0.00     0.236 C 
HETATM   11  C   UNL     1     -42.242  57.926 -54.264  1.00  0.00     0.039 C 
HETATM   12  C   UNL     1     -42.681  56.301 -52.312  1.00  0.00     0.022 C 
HETATM   13  C   UNL     1     -41.296  56.330 -51.633  1.00  0.00     0.045 C 
HETATM   14  C   UNL     1     -41.196  57.482 -50.626  1.00  0.00     0.243 C 
ENDROOT
BRANCH  13  15
HETATM   15  C   UNL     1     -40.972  54.999 -50.984  1.00  0.00    -0.052 A 
HETATM   16  C   UNL     1     -40.662  53.891 -51.789  1.00  0.00     0.007 A 
HETATM   17  C   UNL     1     -40.359  52.656 -51.214  1.00  0.00     0.001 A 
HETATM   18  C   UNL     1     -40.360  52.510 -49.830  1.00  0.00     0.000 A 
HETATM   19  C   UNL     1     -40.663  53.599 -49.018  1.00  0.00     0.001 A 
HETATM   20  C   UNL     1     -40.967  54.836 -49.589  1.00  0.00     0.007 A 
ENDBRANCH  13  15
BRANCH   8  21
HETATM   21  C   UNL     1     -44.495  58.138 -56.585  1.00  0.00     0.317 C 
BRANCH  21  22
HETATM   22  C   UNL     1     -43.994  58.086 -57.986  1.00  0.00     0.181 A 
HETATM   23  N   UNL     1     -44.185  57.039 -58.789  1.00  0.00    -0.109 NA
HETATM   24  O   UNL     1     -43.495  57.409 -59.949  1.00  0.00    -0.196 OA
HETATM   25  C   UNL     1     -42.931  58.633 -59.703  1.00  0.00     0.177 A 
HETATM   26  N   UNL     1     -43.188  59.077 -58.484  1.00  0.00    -0.207 NA
BRANCH  25  27
HETATM   27  C   UNL     1     -42.088  59.372 -60.731  1.00  0.00     0.065 A 
HETATM   28  C   UNL     1     -42.728  60.493 -61.525  1.00  0.00     0.013 A 
HETATM   29  C   UNL     1     -41.727  60.821 -60.473  1.00  0.00     0.013 A 
ENDBRANCH  25  27
ENDBRANCH  21  22
ENDBRANCH   8  21
TORSDOF 4
ENDMDL
MODEL 9
REMARK VINA RESULT:      -7.2      2.528      4.137
REMARK  4 active torsions:
REMARK  status: ('A' for Active; 'I' for Inactive)
REMARK    1  A    between atoms: N_8  and  C_10 
REMARK    2  A    between atoms: C_10  and  C_11 
REMARK    3  A    between atoms: C_14  and  C_15 
REMARK    4  A    between atoms: C_22  and  C_23 
ROOT
HETATM    1  C   UNL     1     -42.838  55.947 -57.218  1.00  0.00     0.269 C 
HETATM    2  N   UNL     1     -42.812  55.796 -55.709  1.00  0.00    -0.073 N 
HETATM    3  H   UNL     1     -43.775  55.541 -55.455  1.00  0.00     0.279 HD
HETATM    4  C   UNL     1     -42.427  57.091 -55.038  1.00  0.00     0.244 C 
HETATM    5  C   UNL     1     -42.464  56.977 -53.487  1.00  0.00    -0.013 C 
HETATM    6  C   UNL     1     -41.854  58.280 -52.898  1.00  0.00     0.039 C 
HETATM    7  C   UNL     1     -41.976  58.396 -51.378  1.00  0.00     0.236 C 
HETATM    8  N   UNL     1     -43.412  58.245 -50.953  1.00  0.00    -0.064 N 
HETATM    9  H   UNL     1     -43.371  58.179 -49.919  1.00  0.00     0.280 HD
HETATM   10  C   UNL     1     -44.058  56.988 -51.443  1.00  0.00     0.236 C 
HETATM   11  C   UNL     1     -43.925  56.865 -52.966  1.00  0.00     0.039 C 
HETATM   12  C   UNL     1     -41.596  55.761 -53.059  1.00  0.00     0.022 C 
HETATM   13  C   UNL     1     -41.957  54.454 -53.793  1.00  0.00     0.045 C 
HETATM   14  C   UNL     1     -41.909  54.640 -55.314  1.00  0.00     0.243 C 
ENDROOT
BRANCH  13  15
HETATM   15  C   UNL     1     -41.070  53.308 -53.348  1.00  0.00    -0.052 A 
HETATM   16  C   UNL     1     -40.699  52.319 -54.273  1.00  0.00     0.007 A 
HETATM   17  C   UNL     1     -39.881  51.256 -53.888  1.00  0.00     0.001 A 
HETATM   18  C   UNL     1     -39.423  51.165 -52.577  1.00  0.00     0.000 A 
HETATM   19  C   UNL     1     -39.781  52.138 -51.649  1.00  0.00     0.001 A 
HETATM   20  C   UNL     1     -40.599  53.203 -52.029  1.00  0.00     0.007 A 
ENDBRANCH  13  15
BRANCH   8  21
HETATM   21  C   UNL     1     -44.265  59.513 -51.129  1.00  0.00     0.317 C 
BRANCH  21  22
HETATM   22  C   UNL     1     -43.755  60.401 -52.211  1.00  0.00     0.181 A 
HETATM   23  N   UNL     1     -42.994  61.470 -51.978  1.00  0.00    -0.109 NA
HETATM   24  O   UNL     1     -42.825  62.014 -53.255  1.00  0.00    -0.196 OA
HETATM   25  C   UNL     1     -43.538  61.226 -54.121  1.00  0.00     0.177 A 
HETATM   26  N   UNL     1     -44.158  60.231 -53.510  1.00  0.00    -0.207 NA
BRANCH  25  27
HETATM   27  C   UNL     1     -43.607  61.500 -55.615  1.00  0.00     0.065 A 
HETATM   28  C   UNL     1     -42.523  60.932 -56.510  1.00  0.00     0.013 A 
HETATM   29  C   UNL     1     -43.892  60.347 -56.556  1.00  0.00     0.013 A 
ENDBRANCH  25  27
ENDBRANCH  21  22
ENDBRANCH   8  21
TORSDOF 4
ENDMDL
MODEL 10
REMARK VINA RESULT:      -7.1      3.073      4.233
REMARK  4 active torsions:
REMARK  status: ('A' for Active; 'I' for Inactive)
REMARK    1  A    between atoms: N_8  and  C_10 
REMARK    2  A    between atoms: C_10  and  C_11 
REMARK    3  A    between atoms: C_14  and  C_15 
REMARK    4  A    between atoms: C_22  and  C_23 
ROOT
HETATM    1  C   UNL     1     -45.277  58.415 -51.050  1.00  0.00     0.269 C 
HETATM    2  N   UNL     1     -44.123  57.788 -51.810  1.00  0.00    -0.073 N 
HETATM    3  H   UNL     1     -43.436  58.546 -51.914  1.00  0.00     0.279 HD
HETATM    4  C   UNL     1     -44.564  57.301 -53.168  1.00  0.00     0.244 C 
HETATM    5  C   UNL     1     -43.379  56.719 -53.991  1.00  0.00    -0.013 C 
HETATM    6  C   UNL     1     -43.966  56.059 -55.272  1.00  0.00     0.039 C 
HETATM    7  C   UNL     1     -42.909  55.591 -56.272  1.00  0.00     0.236 C 
HETATM    8  N   UNL     1     -41.990  56.725 -56.636  1.00  0.00    -0.064 N 
HETATM    9  H   UNL     1     -41.229  56.278 -57.182  1.00  0.00     0.280 HD
HETATM   10  C   UNL     1     -41.347  57.384 -55.457  1.00  0.00     0.236 C 
HETATM   11  C   UNL     1     -42.405  57.843 -54.446  1.00  0.00     0.039 C 
HETATM   12  C   UNL     1     -42.664  55.638 -53.134  1.00  0.00     0.022 C 
HETATM   13  C   UNL     1     -42.269  56.126 -51.726  1.00  0.00     0.045 C 
HETATM   14  C   UNL     1     -43.481  56.693 -50.975  1.00  0.00     0.243 C 
ENDROOT
BRANCH  13  15
HETATM   15  C   UNL     1     -41.592  55.028 -50.931  1.00  0.00    -0.052 A 
HETATM   16  C   UNL     1     -41.410  55.184 -49.547  1.00  0.00     0.007 A 
HETATM   17  C   UNL     1     -40.791  54.186 -48.793  1.00  0.00     0.001 A 
HETATM   18  C   UNL     1     -40.345  53.020 -49.409  1.00  0.00     0.000 A 
HETATM   19  C   UNL     1     -40.520  52.849 -50.779  1.00  0.00     0.001 A 
HETATM   20  C   UNL     1     -41.138  53.845 -51.537  1.00  0.00     0.007 A 
ENDBRANCH  13  15
BRANCH   8  21
HETATM   21  C   UNL     1     -42.562  57.699 -57.680  1.00  0.00     0.317 C 
BRANCH  21  22
HETATM   22  C   UNL     1     -43.201  56.999 -58.828  1.00  0.00     0.181 A 
HETATM   23  N   UNL     1     -42.505  56.392 -59.790  1.00  0.00    -0.109 NA
HETATM   24  O   UNL     1     -43.504  55.949 -60.663  1.00  0.00    -0.196 OA
HETATM   25  C   UNL     1     -44.701  56.371 -60.145  1.00  0.00     0.177 A 
HETATM   26  N   UNL     1     -44.557  57.055 -59.023  1.00  0.00    -0.207 NA
BRANCH  25  27
HETATM   27  C   UNL     1     -46.035  56.086 -60.818  1.00  0.00     0.065 A 
HETATM   28  C   UNL     1     -47.299  56.150 -59.984  1.00  0.00     0.013 A 
HETATM   29  C   UNL     1     -47.026  57.221 -60.983  1.00  0.00     0.013 A 
ENDBRANCH  25  27
ENDBRANCH  21  22
ENDBRANCH   8  21
TORSDOF 4
ENDMDL
