MODEL 1
REMARK VINA RESULT:      -8.7      0.000      0.000
REMARK  5 active torsions:
REMARK  status: ('A' for Active; 'I' for Inactive)
REMARK    1  A    between atoms: C_7  and  N_8 
REMARK    2  A    between atoms: N_8  and  C_9 
REMARK    3  A    between atoms: C_11  and  C_12 
REMARK       I    between atoms: C_12  and  N_13 
REMARK    4  A    between atoms: N_13  and  C_14 
REMARK    5  A    between atoms: C_14  and  C_15 
ROOT
HETATM    1  C   UNL     1     -42.018  56.844 -53.186  1.00  0.00     0.142 A 
HETATM    2  N   UNL     1     -42.312  57.387 -54.400  1.00  0.00    -0.225 NA
HETATM    3  C   UNL     1     -41.965  58.677 -54.688  1.00  0.00     0.129 A 
HETATM    4  C   UNL     1     -41.320  59.544 -53.827  1.00  0.00     0.075 A 
HETATM    5  C   UNL     1     -41.056  58.981 -52.595  1.00  0.00     0.091 A 
HETATM    6  C   UNL     1     -41.375  57.677 -52.240  1.00  0.00     0.046 A 
HETATM    7  O   UNL     1     -40.446  59.623 -51.561  1.00  0.00    -0.322 OA
HETATM    8  C   UNL     1     -40.368  58.742 -50.533  1.00  0.00     0.143 A 
HETATM    9  C   UNL     1     -40.919  57.534 -50.894  1.00  0.00     0.042 A 
ENDROOT
BRANCH   3  10
HETATM   10  C   UNL     1     -42.327  59.163 -56.060  1.00  0.00     0.270 C 
HETATM   11  N   UNL     1     -43.316  58.439 -56.681  1.00  0.00    -0.351 N 
HETATM   12  H   UNL     1     -43.662  57.618 -56.194  1.00  0.00     0.163 HD
HETATM   13  O   UNL     1     -41.772  60.133 -56.562  1.00  0.00    -0.266 OA
BRANCH  11  14
HETATM   14  C   UNL     1     -43.726  58.702 -58.037  1.00  0.00     0.165 C 
BRANCH  14  15
HETATM   15  C   UNL     1     -42.895  57.879 -58.952  1.00  0.00     0.002 A 
HETATM   16  C   UNL     1     -43.128  56.554 -59.416  1.00  0.00     0.060 A 
HETATM   17  C   UNL     1     -44.261  55.647 -59.106  1.00  0.00     0.073 C 
HETATM   18  N   UNL     1     -42.146  56.129 -60.223  1.00  0.00    -0.180 NA
HETATM   19  N   UNL     1     -41.291  57.159 -60.271  1.00  0.00    -0.288 N 
HETATM   20  H   UNL     1     -40.448  57.060 -60.829  1.00  0.00     0.188 HD
HETATM   21  C   UNL     1     -41.690  58.228 -59.530  1.00  0.00     0.120 A 
ENDBRANCH  14  15
ENDBRANCH  11  14
ENDBRANCH   3  10
BRANCH   1  22
HETATM   22  N   UNL     1     -42.351  55.521 -52.861  1.00  0.00    -0.340 N 
HETATM   23  H   UNL     1     -43.182  55.451 -52.291  1.00  0.00     0.167 HD
BRANCH  22  24
HETATM   24  C   UNL     1     -41.732  54.286 -53.117  1.00  0.00     0.034 A 
HETATM   25  C   UNL     1     -41.925  53.691 -54.373  1.00  0.00     0.031 A 
HETATM   26  C   UNL     1     -41.309  52.483 -54.707  1.00  0.00     0.022 A 
HETATM   27  C   UNL     1     -40.473  51.847 -53.789  1.00  0.00     0.017 A 
HETATM   28  C   UNL     1     -40.255  52.410 -52.527  1.00  0.00    -0.043 A 
HETATM   29 BR   UNL     1     -39.659  50.217 -54.324  1.00  0.00    -0.051 Br
HETATM   30  C   UNL     1     -39.352  51.776 -51.504  1.00  0.00     0.049 C 
HETATM   31  C   UNL     1     -40.894  53.627 -52.212  1.00  0.00     0.037 A 
ENDBRANCH  22  24
ENDBRANCH   1  22
TORSDOF 5
ENDMDL
MODEL 2
REMARK VINA RESULT:      -8.7      1.422      1.494
REMARK  5 active torsions:
REMARK  status: ('A' for Active; 'I' for Inactive)
REMARK    1  A    between atoms: C_7  and  N_8 
REMARK    2  A    between atoms: N_8  and  C_9 
REMARK    3  A    between atoms: C_11  and  C_12 
REMARK       I    between atoms: C_12  and  N_13 
REMARK    4  A    between atoms: N_13  and  C_14 
REMARK    5  A    between atoms: C_14  and  C_15 
ROOT
HETATM    1  C   UNL     1     -41.589  56.399 -52.235  1.00  0.00     0.142 A 
HETATM    2  N   UNL     1     -42.464  56.367 -53.278  1.00  0.00    -0.225 NA
HETATM    3  C   UNL     1     -42.992  57.524 -53.779  1.00  0.00     0.129 A 
HETATM    4  C   UNL     1     -42.726  58.795 -53.309  1.00  0.00     0.075 A 
HETATM    5  C   UNL     1     -41.857  58.800 -52.237  1.00  0.00     0.091 A 
HETATM    6  C   UNL     1     -41.280  57.664 -51.683  1.00  0.00     0.046 A 
HETATM    7  O   UNL     1     -41.443  59.917 -51.576  1.00  0.00    -0.322 OA
HETATM    8  C   UNL     1     -40.601  59.511 -50.594  1.00  0.00     0.143 A 
HETATM    9  C   UNL     1     -40.462  58.143 -50.615  1.00  0.00     0.042 A 
ENDROOT
BRANCH   3  10
HETATM   10  C   UNL     1     -43.934  57.367 -54.935  1.00  0.00     0.270 C 
HETATM   11  N   UNL     1     -43.334  57.390 -56.171  1.00  0.00    -0.351 N 
HETATM   12  H   UNL     1     -42.336  57.572 -56.196  1.00  0.00     0.163 HD
HETATM   13  O   UNL     1     -45.140  57.227 -54.764  1.00  0.00    -0.266 OA
BRANCH  11  14
HETATM   14  C   UNL     1     -44.092  57.349 -57.396  1.00  0.00     0.165 C 
BRANCH  14  15
HETATM   15  C   UNL     1     -43.152  57.149 -58.528  1.00  0.00     0.002 A 
HETATM   16  C   UNL     1     -43.151  56.121 -59.513  1.00  0.00     0.060 A 
HETATM   17  C   UNL     1     -44.087  54.979 -59.664  1.00  0.00     0.073 C 
HETATM   18  N   UNL     1     -42.134  56.258 -60.374  1.00  0.00    -0.180 NA
HETATM   19  N   UNL     1     -41.486  57.349 -59.947  1.00  0.00    -0.288 N 
HETATM   20  H   UNL     1     -40.657  57.647 -60.453  1.00  0.00     0.188 HD
HETATM   21  C   UNL     1     -42.051  57.919 -58.849  1.00  0.00     0.120 A 
ENDBRANCH  14  15
ENDBRANCH  11  14
ENDBRANCH   3  10
BRANCH   1  22
HETATM   22  N   UNL     1     -41.021  55.232 -51.703  1.00  0.00    -0.340 N 
HETATM   23  H   UNL     1     -40.759  55.326 -50.732  1.00  0.00     0.167 HD
BRANCH  22  24
HETATM   24  C   UNL     1     -40.690  53.985 -52.262  1.00  0.00     0.034 A 
HETATM   25  C   UNL     1     -40.689  53.861 -53.659  1.00  0.00     0.031 A 
HETATM   26  C   UNL     1     -40.332  52.662 -54.281  1.00  0.00     0.022 A 
HETATM   27  C   UNL     1     -39.958  51.559 -53.513  1.00  0.00     0.017 A 
HETATM   28  C   UNL     1     -39.947  51.646 -52.116  1.00  0.00    -0.043 A 
HETATM   29 BR   UNL     1     -39.473  49.971 -54.432  1.00  0.00    -0.051 Br
HETATM   30  C   UNL     1     -39.538  50.494 -51.239  1.00  0.00     0.049 C 
HETATM   31  C   UNL     1     -40.316  52.865 -51.513  1.00  0.00     0.037 A 
ENDBRANCH  22  24
ENDBRANCH   1  22
TORSDOF 5
ENDMDL
MODEL 3
REMARK VINA RESULT:      -8.6      2.242      2.595
REMARK  5 active torsions:
REMARK  status: ('A' for Active; 'I' for Inactive)
REMARK    1  A    between atoms: C_7  and  N_8 
REMARK    2  A    between atoms: N_8  and  C_9 
REMARK    3  A    between atoms: C_11  and  C_12 
REMARK       I    between atoms: C_12  and  N_13 
REMARK    4  A    between atoms: N_13  and  C_14 
REMARK    5  A    between atoms: C_14  and  C_15 
ROOT
HETATM    1  C   UNL     1     -42.125  56.469 -53.536  1.00  0.00     0.142 A 
HETATM    2  N   UNL     1     -42.254  56.874 -54.831  1.00  0.00    -0.225 NA
HETATM    3  C   UNL     1     -43.325  57.628 -55.220  1.00  0.00     0.129 A 
HETATM    4  C   UNL     1     -44.356  58.039 -54.398  1.00  0.00     0.075 A 
HETATM    5  C   UNL     1     -44.217  57.596 -53.098  1.00  0.00     0.091 A 
HETATM    6  C   UNL     1     -43.152  56.833 -52.635  1.00  0.00     0.046 A 
HETATM    7  O   UNL     1     -45.099  57.845 -52.092  1.00  0.00    -0.322 OA
HETATM    8  C   UNL     1     -44.614  57.247 -50.976  1.00  0.00     0.143 A 
HETATM    9  C   UNL     1     -43.423  56.616 -51.250  1.00  0.00     0.042 A 
ENDROOT
BRANCH   3  10
HETATM   10  C   UNL     1     -43.356  58.026 -56.665  1.00  0.00     0.270 C 
HETATM   11  N   UNL     1     -44.616  58.199 -57.185  1.00  0.00    -0.351 N 
HETATM   12  H   UNL     1     -45.400  57.984 -56.577  1.00  0.00     0.163 HD
HETATM   13  O   UNL     1     -42.324  58.183 -57.308  1.00  0.00    -0.266 OA
BRANCH  11  14
HETATM   14  C   UNL     1     -44.840  58.489 -58.579  1.00  0.00     0.165 C 
BRANCH  14  15
HETATM   15  C   UNL     1     -45.465  57.301 -59.215  1.00  0.00     0.002 A 
HETATM   16  C   UNL     1     -44.837  56.127 -59.718  1.00  0.00     0.060 A 
HETATM   17  C   UNL     1     -43.393  55.783 -59.739  1.00  0.00     0.073 C 
HETATM   18  N   UNL     1     -45.726  55.271 -60.239  1.00  0.00    -0.180 NA
HETATM   19  N   UNL     1     -46.905  55.886 -60.084  1.00  0.00    -0.288 N 
HETATM   20  H   UNL     1     -47.741  55.418 -60.421  1.00  0.00     0.188 HD
HETATM   21  C   UNL     1     -46.806  57.101 -59.479  1.00  0.00     0.120 A 
ENDBRANCH  14  15
ENDBRANCH  11  14
ENDBRANCH   3  10
BRANCH   1  22
HETATM   22  N   UNL     1     -41.033  55.703 -53.102  1.00  0.00    -0.340 N 
HETATM   23  H   UNL     1     -40.313  56.256 -52.659  1.00  0.00     0.167 HD
BRANCH  22  24
HETATM   24  C   UNL     1     -40.715  54.338 -53.211  1.00  0.00     0.034 A 
HETATM   25  C   UNL     1     -40.616  53.778 -54.493  1.00  0.00     0.031 A 
HETATM   26  C   UNL     1     -40.266  52.438 -54.676  1.00  0.00     0.022 A 
HETATM   27  C   UNL     1     -39.995  51.629 -53.572  1.00  0.00     0.017 A 
HETATM   28  C   UNL     1     -40.082  52.153 -52.277  1.00  0.00    -0.043 A 
HETATM   29 BR   UNL     1     -39.511  49.824 -53.903  1.00  0.00    -0.051 Br
HETATM   30  C   UNL     1     -39.787  51.331 -51.052  1.00  0.00     0.049 C 
HETATM   31  C   UNL     1     -40.443  53.507 -52.120  1.00  0.00     0.037 A 
ENDBRANCH  22  24
ENDBRANCH   1  22
TORSDOF 5
ENDMDL
MODEL 4
REMARK VINA RESULT:      -8.5      2.347      2.975
REMARK  5 active torsions:
REMARK  status: ('A' for Active; 'I' for Inactive)
REMARK    1  A    between atoms: C_7  and  N_8 
REMARK    2  A    between atoms: N_8  and  C_9 
REMARK    3  A    between atoms: C_11  and  C_12 
REMARK       I    between atoms: C_12  and  N_13 
REMARK    4  A    between atoms: N_13  and  C_14 
REMARK    5  A    between atoms: C_14  and  C_15 
ROOT
HETATM    1  C   UNL     1     -41.936  55.937 -53.839  1.00  0.00     0.142 A 
HETATM    2  N   UNL     1     -42.323  56.300 -55.094  1.00  0.00    -0.225 NA
HETATM    3  C   UNL     1     -43.502  56.961 -55.294  1.00  0.00     0.129 A 
HETATM    4  C   UNL     1     -44.401  57.313 -54.306  1.00  0.00     0.075 A 
HETATM    5  C   UNL     1     -44.000  56.913 -53.047  1.00  0.00     0.091 A 
HETATM    6  C   UNL     1     -42.814  56.245 -52.773  1.00  0.00     0.046 A 
HETATM    7  O   UNL     1     -44.709  57.119 -51.903  1.00  0.00    -0.322 OA
HETATM    8  C   UNL     1     -43.988  56.587 -50.885  1.00  0.00     0.143 A 
HETATM    9  C   UNL     1     -42.818  56.041 -51.360  1.00  0.00     0.042 A 
ENDROOT
BRANCH   3  10
HETATM   10  C   UNL     1     -43.818  57.321 -56.715  1.00  0.00     0.270 C 
HETATM   11  N   UNL     1     -42.959  56.787 -57.645  1.00  0.00    -0.351 N 
HETATM   12  H   UNL     1     -42.166  56.260 -57.293  1.00  0.00     0.163 HD
HETATM   13  O   UNL     1     -44.774  58.033 -56.998  1.00  0.00    -0.266 OA
BRANCH  11  14
HETATM   14  C   UNL     1     -43.052  57.101 -59.048  1.00  0.00     0.165 C 
BRANCH  14  15
HETATM   15  C   UNL     1     -44.043  56.188 -59.674  1.00  0.00     0.002 A 
HETATM   16  C   UNL     1     -45.322  56.500 -60.216  1.00  0.00     0.060 A 
HETATM   17  C   UNL     1     -46.001  57.817 -60.295  1.00  0.00     0.073 C 
HETATM   18  N   UNL     1     -45.943  55.409 -60.684  1.00  0.00    -0.180 NA
HETATM   19  N   UNL     1     -45.085  54.411 -60.439  1.00  0.00    -0.288 N 
HETATM   20  H   UNL     1     -45.352  53.469 -60.708  1.00  0.00     0.188 HD
HETATM   21  C   UNL     1     -43.935  54.821 -59.839  1.00  0.00     0.120 A 
ENDBRANCH  14  15
ENDBRANCH  11  14
ENDBRANCH   3  10
BRANCH   1  22
HETATM   22  N   UNL     1     -40.728  55.267 -53.597  1.00  0.00    -0.340 N 
HETATM   23  H   UNL     1     -39.916  55.810 -53.852  1.00  0.00     0.167 HD
BRANCH  22  24
HETATM   24  C   UNL     1     -40.425  53.976 -53.131  1.00  0.00     0.034 A 
HETATM   25  C   UNL     1     -40.277  53.784 -51.749  1.00  0.00     0.031 A 
HETATM   26  C   UNL     1     -40.013  52.520 -51.215  1.00  0.00     0.022 A 
HETATM   27  C   UNL     1     -39.900  51.414 -52.059  1.00  0.00     0.017 A 
HETATM   28  C   UNL     1     -40.043  51.566 -53.442  1.00  0.00    -0.043 A 
HETATM   29 BR   UNL     1     -39.556  49.728 -51.256  1.00  0.00    -0.051 Br
HETATM   30  C   UNL     1     -39.947  50.407 -54.396  1.00  0.00     0.049 C 
HETATM   31  C   UNL     1     -40.303  52.853 -53.956  1.00  0.00     0.037 A 
ENDBRANCH  22  24
ENDBRANCH   1  22
TORSDOF 5
ENDMDL
MODEL 5
REMARK VINA RESULT:      -8.3      1.456      1.853
REMARK  5 active torsions:
REMARK  status: ('A' for Active; 'I' for Inactive)
REMARK    1  A    between atoms: C_7  and  N_8 
REMARK    2  A    between atoms: N_8  and  C_9 
REMARK    3  A    between atoms: C_11  and  C_12 
REMARK       I    between atoms: C_12  and  N_13 
REMARK    4  A    between atoms: N_13  and  C_14 
REMARK    5  A    between atoms: C_14  and  C_15 
ROOT
HETATM    1  C   UNL     1     -42.444  56.898 -53.996  1.00  0.00     0.142 A 
HETATM    2  N   UNL     1     -42.707  57.228 -55.291  1.00  0.00    -0.225 NA
HETATM    3  C   UNL     1     -42.421  58.479 -55.762  1.00  0.00     0.129 A 
HETATM    4  C   UNL     1     -41.872  59.507 -55.021  1.00  0.00     0.075 A 
HETATM    5  C   UNL     1     -41.638  59.158 -53.707  1.00  0.00     0.091 A 
HETATM    6  C   UNL     1     -41.899  57.905 -53.166  1.00  0.00     0.046 A 
HETATM    7  O   UNL     1     -41.119  59.988 -52.761  1.00  0.00    -0.322 OA
HETATM    8  C   UNL     1     -41.042  59.281 -51.606  1.00  0.00     0.143 A 
HETATM    9  C   UNL     1     -41.503  58.000 -51.797  1.00  0.00     0.042 A 
ENDROOT
BRANCH   3  10
HETATM   10  C   UNL     1     -42.742  58.724 -57.206  1.00  0.00     0.270 C 
HETATM   11  N   UNL     1     -44.068  58.573 -57.532  1.00  0.00    -0.351 N 
HETATM   12  H   UNL     1     -44.690  58.253 -56.797  1.00  0.00     0.163 HD
HETATM   13  O   UNL     1     -41.872  59.038 -58.010  1.00  0.00    -0.266 OA
BRANCH  11  14
HETATM   14  C   UNL     1     -44.543  58.676 -58.889  1.00  0.00     0.165 C 
BRANCH  14  15
HETATM   15  C   UNL     1     -45.112  57.365 -59.293  1.00  0.00     0.002 A 
HETATM   16  C   UNL     1     -44.426  56.169 -59.649  1.00  0.00     0.060 A 
HETATM   17  C   UNL     1     -42.964  55.921 -59.710  1.00  0.00     0.073 C 
HETATM   18  N   UNL     1     -45.276  55.186 -59.973  1.00  0.00    -0.180 NA
HETATM   19  N   UNL     1     -46.487  55.740 -59.838  1.00  0.00    -0.288 N 
HETATM   20  H   UNL     1     -47.303  55.172 -60.044  1.00  0.00     0.188 HD
HETATM   21  C   UNL     1     -46.447  57.039 -59.435  1.00  0.00     0.120 A 
ENDBRANCH  14  15
ENDBRANCH  11  14
ENDBRANCH   3  10
BRANCH   1  22
HETATM   22  N   UNL     1     -42.717  55.621 -53.483  1.00  0.00    -0.340 N 
HETATM   23  H   UNL     1     -43.591  55.575 -52.980  1.00  0.00     0.167 HD
BRANCH  22  24
HETATM   24  C   UNL     1     -41.994  54.416 -53.476  1.00  0.00     0.034 A 
HETATM   25  C   UNL     1     -42.030  53.611 -54.624  1.00  0.00     0.031 A 
HETATM   26  C   UNL     1     -41.304  52.419 -54.699  1.00  0.00     0.022 A 
HETATM   27  C   UNL     1     -40.514  52.013 -53.623  1.00  0.00     0.017 A 
HETATM   28  C   UNL     1     -40.451  52.791 -52.462  1.00  0.00    -0.043 A 
HETATM   29 BR   UNL     1     -39.545  50.390 -53.808  1.00  0.00    -0.051 Br
HETATM   30  C   UNL     1     -39.605  52.409 -51.279  1.00  0.00     0.049 C 
HETATM   31  C   UNL     1     -41.198  53.986 -52.410  1.00  0.00     0.037 A 
ENDBRANCH  22  24
ENDBRANCH   1  22
TORSDOF 5
ENDMDL
MODEL 6
REMARK VINA RESULT:      -8.2      2.474      3.145
REMARK  5 active torsions:
REMARK  status: ('A' for Active; 'I' for Inactive)
REMARK    1  A    between atoms: C_7  and  N_8 
REMARK    2  A    between atoms: N_8  and  C_9 
REMARK    3  A    between atoms: C_11  and  C_12 
REMARK       I    between atoms: C_12  and  N_13 
REMARK    4  A    between atoms: N_13  and  C_14 
REMARK    5  A    between atoms: C_14  and  C_15 
ROOT
HETATM    1  C   UNL     1     -41.946  56.086 -54.177  1.00  0.00     0.142 A 
HETATM    2  N   UNL     1     -41.948  55.945 -55.532  1.00  0.00    -0.225 NA
HETATM    3  C   UNL     1     -42.973  56.450 -56.282  1.00  0.00     0.129 A 
HETATM    4  C   UNL     1     -44.076  57.117 -55.785  1.00  0.00     0.075 A 
HETATM    5  C   UNL     1     -44.064  57.226 -54.409  1.00  0.00     0.091 A 
HETATM    6  C   UNL     1     -43.053  56.741 -53.589  1.00  0.00     0.046 A 
HETATM    7  O   UNL     1     -45.037  57.821 -53.667  1.00  0.00    -0.322 OA
HETATM    8  C   UNL     1     -44.665  57.726 -52.367  1.00  0.00     0.143 A 
HETATM    9  C   UNL     1     -43.456  57.077 -52.261  1.00  0.00     0.042 A 
ENDROOT
BRANCH   3  10
HETATM   10  C   UNL     1     -42.863  56.247 -57.763  1.00  0.00     0.270 C 
HETATM   11  N   UNL     1     -42.124  57.202 -58.419  1.00  0.00    -0.351 N 
HETATM   12  H   UNL     1     -41.779  57.980 -57.865  1.00  0.00     0.163 HD
HETATM   13  O   UNL     1     -43.395  55.294 -58.320  1.00  0.00    -0.266 OA
BRANCH  11  14
HETATM   14  C   UNL     1     -41.989  57.221 -59.853  1.00  0.00     0.165 C 
BRANCH  14  15
HETATM   15  C   UNL     1     -42.628  58.457 -60.373  1.00  0.00     0.002 A 
HETATM   16  C   UNL     1     -44.014  58.755 -60.505  1.00  0.00     0.060 A 
HETATM   17  C   UNL     1     -45.183  57.908 -60.159  1.00  0.00     0.073 C 
HETATM   18  N   UNL     1     -44.214  59.970 -61.031  1.00  0.00    -0.180 NA
HETATM   19  N   UNL     1     -42.980  60.444 -61.244  1.00  0.00    -0.288 N 
HETATM   20  H   UNL     1     -42.882  61.368 -61.654  1.00  0.00     0.188 HD
HETATM   21  C   UNL     1     -41.997  59.581 -60.869  1.00  0.00     0.120 A 
ENDBRANCH  14  15
ENDBRANCH  11  14
ENDBRANCH   3  10
BRANCH   1  22
HETATM   22  N   UNL     1     -40.906  55.588 -53.378  1.00  0.00    -0.340 N 
HETATM   23  H   UNL     1     -40.253  56.302 -53.089  1.00  0.00     0.167 HD
BRANCH  22  24
HETATM   24  C   UNL     1     -40.557  54.294 -52.954  1.00  0.00     0.034 A 
HETATM   25  C   UNL     1     -40.404  54.063 -51.579  1.00  0.00     0.031 A 
HETATM   26  C   UNL     1     -40.096  52.793 -51.085  1.00  0.00     0.022 A 
HETATM   27  C   UNL     1     -39.944  51.719 -51.963  1.00  0.00     0.017 A 
HETATM   28  C   UNL     1     -40.091  51.911 -53.342  1.00  0.00    -0.043 A 
HETATM   29 BR   UNL     1     -39.542  50.022 -51.215  1.00  0.00    -0.051 Br
HETATM   30  C   UNL     1     -39.954  50.787 -54.332  1.00  0.00     0.049 C 
HETATM   31  C   UNL     1     -40.396  53.204 -53.814  1.00  0.00     0.037 A 
ENDBRANCH  22  24
ENDBRANCH   1  22
TORSDOF 5
ENDMDL
MODEL 7
REMARK VINA RESULT:      -8.0      2.448      5.947
REMARK  5 active torsions:
REMARK  status: ('A' for Active; 'I' for Inactive)
REMARK    1  A    between atoms: C_7  and  N_8 
REMARK    2  A    between atoms: N_8  and  C_9 
REMARK    3  A    between atoms: C_11  and  C_12 
REMARK       I    between atoms: C_12  and  N_13 
REMARK    4  A    between atoms: N_13  and  C_14 
REMARK    5  A    between atoms: C_14  and  C_15 
ROOT
HETATM    1  C   UNL     1     -43.017  55.904 -56.876  1.00  0.00     0.142 A 
HETATM    2  N   UNL     1     -42.622  57.062 -56.276  1.00  0.00    -0.225 NA
HETATM    3  C   UNL     1     -42.632  58.241 -56.967  1.00  0.00     0.129 A 
HETATM    4  C   UNL     1     -43.011  58.393 -58.287  1.00  0.00     0.075 A 
HETATM    5  C   UNL     1     -43.382  57.203 -58.880  1.00  0.00     0.091 A 
HETATM    6  C   UNL     1     -43.402  55.973 -58.235  1.00  0.00     0.046 A 
HETATM    7  O   UNL     1     -43.782  57.071 -60.175  1.00  0.00    -0.322 OA
HETATM    8  C   UNL     1     -44.060  55.759 -60.375  1.00  0.00     0.143 A 
HETATM    9  C   UNL     1     -43.848  55.042 -59.221  1.00  0.00     0.042 A 
ENDROOT
BRANCH   3  10
HETATM   10  C   UNL     1     -42.189  59.452 -56.202  1.00  0.00     0.270 C 
HETATM   11  N   UNL     1     -42.500  59.429 -54.864  1.00  0.00    -0.351 N 
HETATM   12  H   UNL     1     -43.046  58.641 -54.530  1.00  0.00     0.163 HD
HETATM   13  O   UNL     1     -41.595  60.373 -56.750  1.00  0.00    -0.266 OA
BRANCH  11  14
HETATM   14  C   UNL     1     -42.236  60.547 -53.993  1.00  0.00     0.165 C 
BRANCH  14  15
HETATM   15  C   UNL     1     -42.712  60.207 -52.628  1.00  0.00     0.002 A 
HETATM   16  C   UNL     1     -44.047  60.172 -52.134  1.00  0.00     0.060 A 
HETATM   17  C   UNL     1     -45.311  60.467 -52.853  1.00  0.00     0.073 C 
HETATM   18  N   UNL     1     -44.089  59.834 -50.838  1.00  0.00    -0.180 NA
HETATM   19  N   UNL     1     -42.805  59.665 -50.500  1.00  0.00    -0.288 N 
HETATM   20  H   UNL     1     -42.588  59.408 -49.542  1.00  0.00     0.188 HD
HETATM   21  C   UNL     1     -41.942  59.874 -51.531  1.00  0.00     0.120 A 
ENDBRANCH  14  15
ENDBRANCH  11  14
ENDBRANCH   3  10
BRANCH   1  22
HETATM   22  N   UNL     1     -43.029  54.678 -56.193  1.00  0.00    -0.340 N 
HETATM   23  H   UNL     1     -43.615  53.985 -56.636  1.00  0.00     0.167 HD
BRANCH  22  24
HETATM   24  C   UNL     1     -42.442  54.244 -54.993  1.00  0.00     0.034 A 
HETATM   25  C   UNL     1     -41.144  53.714 -55.039  1.00  0.00     0.031 A 
HETATM   26  C   UNL     1     -40.486  53.299 -53.878  1.00  0.00     0.022 A 
HETATM   27  C   UNL     1     -41.116  53.415 -52.638  1.00  0.00     0.017 A 
HETATM   28  C   UNL     1     -42.410  53.940 -52.552  1.00  0.00    -0.043 A 
HETATM   29 BR   UNL     1     -40.151  52.843 -51.106  1.00  0.00    -0.051 Br
HETATM   30  C   UNL     1     -43.130  54.102 -51.241  1.00  0.00     0.049 C 
HETATM   31  C   UNL     1     -43.053  54.346 -53.739  1.00  0.00     0.037 A 
ENDBRANCH  22  24
ENDBRANCH   1  22
TORSDOF 5
ENDMDL
MODEL 8
REMARK VINA RESULT:      -7.9      2.552      3.072
REMARK  5 active torsions:
REMARK  status: ('A' for Active; 'I' for Inactive)
REMARK    1  A    between atoms: C_7  and  N_8 
REMARK    2  A    between atoms: N_8  and  C_9 
REMARK    3  A    between atoms: C_11  and  C_12 
REMARK       I    between atoms: C_12  and  N_13 
REMARK    4  A    between atoms: N_13  and  C_14 
REMARK    5  A    between atoms: C_14  and  C_15 
ROOT
HETATM    1  C   UNL     1     -44.378  56.780 -54.124  1.00  0.00     0.142 A 
HETATM    2  N   UNL     1     -44.269  57.260 -55.394  1.00  0.00    -0.225 NA
HETATM    3  C   UNL     1     -44.425  58.594 -55.650  1.00  0.00     0.129 A 
HETATM    4  C   UNL     1     -44.709  59.562 -54.706  1.00  0.00     0.075 A 
HETATM    5  C   UNL     1     -44.840  59.049 -53.432  1.00  0.00     0.091 A 
HETATM    6  C   UNL     1     -44.688  57.708 -53.102  1.00  0.00     0.046 A 
HETATM    7  O   UNL     1     -45.134  59.783 -52.324  1.00  0.00    -0.322 OA
HETATM    8  C   UNL     1     -45.175  58.925 -51.274  1.00  0.00     0.143 A 
HETATM    9  C   UNL     1     -44.907  57.643 -51.692  1.00  0.00     0.042 A 
ENDROOT
BRANCH   3  10
HETATM   10  C   UNL     1     -44.271  59.008 -57.082  1.00  0.00     0.270 C 
HETATM   11  N   UNL     1     -45.293  58.609 -57.908  1.00  0.00    -0.351 N 
HETATM   12  H   UNL     1     -46.016  58.025 -57.499  1.00  0.00     0.163 HD
HETATM   13  O   UNL     1     -43.301  59.656 -57.459  1.00  0.00    -0.266 OA
BRANCH  11  14
HETATM   14  C   UNL     1     -45.267  58.836 -59.331  1.00  0.00     0.165 C 
BRANCH  14  15
HETATM   15  C   UNL     1     -45.131  57.526 -60.017  1.00  0.00     0.002 A 
HETATM   16  C   UNL     1     -43.943  56.818 -60.357  1.00  0.00     0.060 A 
HETATM   17  C   UNL     1     -42.531  57.205 -60.115  1.00  0.00     0.073 C 
HETATM   18  N   UNL     1     -44.213  55.668 -60.989  1.00  0.00    -0.180 NA
HETATM   19  N   UNL     1     -45.549  55.639 -61.064  1.00  0.00    -0.288 N 
HETATM   20  H   UNL     1     -45.990  54.846 -61.520  1.00  0.00     0.188 HD
HETATM   21  C   UNL     1     -46.147  56.723 -60.499  1.00  0.00     0.120 A 
ENDBRANCH  14  15
ENDBRANCH  11  14
ENDBRANCH   3  10
BRANCH   1  22
HETATM   22  N   UNL     1     -44.214  55.419 -53.825  1.00  0.00    -0.340 N 
HETATM   23  H   UNL     1     -45.060  54.882 -53.951  1.00  0.00     0.167 HD
BRANCH  22  24
HETATM   24  C   UNL     1     -43.133  54.669 -53.332  1.00  0.00     0.034 A 
HETATM   25  C   UNL     1     -42.999  54.530 -51.942  1.00  0.00     0.031 A 
HETATM   26  C   UNL     1     -41.970  53.766 -51.385  1.00  0.00     0.022 A 
HETATM   27  C   UNL     1     -41.055  53.115 -52.212  1.00  0.00     0.017 A 
HETATM   28  C   UNL     1     -41.158  53.230 -53.603  1.00  0.00    -0.043 A 
HETATM   29 BR   UNL     1     -39.695  52.084 -51.380  1.00  0.00    -0.051 Br
HETATM   30  C   UNL     1     -40.209  52.537 -54.543  1.00  0.00     0.049 C 
HETATM   31  C   UNL     1     -42.202  54.011 -54.140  1.00  0.00     0.037 A 
ENDBRANCH  22  24
ENDBRANCH   1  22
TORSDOF 5
ENDMDL
MODEL 9
REMARK VINA RESULT:      -7.7      2.206      2.993
REMARK  5 active torsions:
REMARK  status: ('A' for Active; 'I' for Inactive)
REMARK    1  A    between atoms: C_7  and  N_8 
REMARK    2  A    between atoms: N_8  and  C_9 
REMARK    3  A    between atoms: C_11  and  C_12 
REMARK       I    between atoms: C_12  and  N_13 
REMARK    4  A    between atoms: N_13  and  C_14 
REMARK    5  A    between atoms: C_14  and  C_15 
ROOT
HETATM    1  C   UNL     1     -41.666  56.806 -54.394  1.00  0.00     0.142 A 
HETATM    2  N   UNL     1     -42.053  56.318 -55.606  1.00  0.00    -0.225 NA
HETATM    3  C   UNL     1     -42.553  57.153 -56.565  1.00  0.00     0.129 A 
HETATM    4  C   UNL     1     -42.730  58.516 -56.428  1.00  0.00     0.075 A 
HETATM    5  C   UNL     1     -42.356  58.984 -55.184  1.00  0.00     0.091 A 
HETATM    6  C   UNL     1     -41.835  58.193 -54.168  1.00  0.00     0.046 A 
HETATM    7  O   UNL     1     -42.443  60.282 -54.783  1.00  0.00    -0.322 OA
HETATM    8  C   UNL     1     -41.982  60.338 -53.509  1.00  0.00     0.143 A 
HETATM    9  C   UNL     1     -41.594  59.089 -53.083  1.00  0.00     0.042 A 
ENDROOT
BRANCH   3  10
HETATM   10  C   UNL     1     -42.933  56.506 -57.863  1.00  0.00     0.270 C 
HETATM   11  N   UNL     1     -43.105  57.380 -58.910  1.00  0.00    -0.351 N 
HETATM   12  H   UNL     1     -43.024  58.370 -58.703  1.00  0.00     0.163 HD
HETATM   13  O   UNL     1     -43.069  55.292 -57.958  1.00  0.00    -0.266 OA
BRANCH  11  14
HETATM   14  C   UNL     1     -43.561  56.947 -60.207  1.00  0.00     0.165 C 
BRANCH  14  15
HETATM   15  C   UNL     1     -45.043  56.855 -60.181  1.00  0.00     0.002 A 
HETATM   16  C   UNL     1     -46.001  57.909 -60.198  1.00  0.00     0.060 A 
HETATM   17  C   UNL     1     -45.768  59.374 -60.245  1.00  0.00     0.073 C 
HETATM   18  N   UNL     1     -47.255  57.442 -60.149  1.00  0.00    -0.180 NA
HETATM   19  N   UNL     1     -47.110  56.112 -60.091  1.00  0.00    -0.288 N 
HETATM   20  H   UNL     1     -47.945  55.537 -60.038  1.00  0.00     0.188 HD
HETATM   21  C   UNL     1     -45.811  55.709 -60.107  1.00  0.00     0.120 A 
ENDBRANCH  14  15
ENDBRANCH  11  14
ENDBRANCH   3  10
BRANCH   1  22
HETATM   22  N   UNL     1     -41.140  55.979 -53.392  1.00  0.00    -0.340 N 
HETATM   23  H   UNL     1     -40.900  56.483 -52.549  1.00  0.00     0.167 HD
BRANCH  22  24
HETATM   24  C   UNL     1     -40.824  54.611 -53.345  1.00  0.00     0.034 A 
HETATM   25  C   UNL     1     -40.640  53.928 -54.556  1.00  0.00     0.031 A 
HETATM   26  C   UNL     1     -40.287  52.576 -54.582  1.00  0.00     0.022 A 
HETATM   27  C   UNL     1     -40.100  51.879 -53.388  1.00  0.00     0.017 A 
HETATM   28  C   UNL     1     -40.273  52.527 -52.160  1.00  0.00    -0.043 A 
HETATM   29 BR   UNL     1     -39.606  50.050 -53.506  1.00  0.00    -0.051 Br
HETATM   30  C   UNL     1     -40.070  51.829 -50.843  1.00  0.00     0.049 C 
HETATM   31  C   UNL     1     -40.635  53.890 -52.161  1.00  0.00     0.037 A 
ENDBRANCH  22  24
ENDBRANCH   1  22
TORSDOF 5
ENDMDL
MODEL 10
REMARK VINA RESULT:      -7.6      3.616      5.658
REMARK  5 active torsions:
REMARK  status: ('A' for Active; 'I' for Inactive)
REMARK    1  A    between atoms: C_7  and  N_8 
REMARK    2  A    between atoms: N_8  and  C_9 
REMARK    3  A    between atoms: C_11  and  C_12 
REMARK       I    between atoms: C_12  and  N_13 
REMARK    4  A    between atoms: N_13  and  C_14 
REMARK    5  A    between atoms: C_14  and  C_15 
ROOT
HETATM    1  C   UNL     1     -41.640  55.971 -53.104  1.00  0.00     0.142 A 
HETATM    2  N   UNL     1     -42.022  56.588 -54.258  1.00  0.00    -0.225 NA
HETATM    3  C   UNL     1     -41.959  55.927 -55.453  1.00  0.00     0.129 A 
HETATM    4  C   UNL     1     -41.515  54.631 -55.629  1.00  0.00     0.075 A 
HETATM    5  C   UNL     1     -41.110  54.036 -54.451  1.00  0.00     0.091 A 
HETATM    6  C   UNL     1     -41.154  54.647 -53.204  1.00  0.00     0.046 A 
HETATM    7  O   UNL     1     -40.616  52.772 -54.347  1.00  0.00    -0.322 OA
HETATM    8  C   UNL     1     -40.337  52.558 -53.038  1.00  0.00     0.143 A 
HETATM    9  C   UNL     1     -40.649  53.671 -52.293  1.00  0.00     0.042 A 
ENDROOT
BRANCH   3  10
HETATM   10  C   UNL     1     -42.416  56.700 -56.653  1.00  0.00     0.270 C 
HETATM   11  N   UNL     1     -42.468  55.972 -57.818  1.00  0.00    -0.351 N 
HETATM   12  H   UNL     1     -42.137  55.013 -57.778  1.00  0.00     0.163 HD
HETATM   13  O   UNL     1     -42.718  57.885 -56.575  1.00  0.00    -0.266 OA
BRANCH  11  14
HETATM   14  C   UNL     1     -42.793  56.572 -59.087  1.00  0.00     0.165 C 
BRANCH  14  15
HETATM   15  C   UNL     1     -44.227  56.318 -59.377  1.00  0.00     0.002 A 
HETATM   16  C   UNL     1     -45.333  57.205 -59.244  1.00  0.00     0.060 A 
HETATM   17  C   UNL     1     -45.342  58.614 -58.778  1.00  0.00     0.073 C 
HETATM   18  N   UNL     1     -46.487  56.617 -59.588  1.00  0.00    -0.180 NA
HETATM   19  N   UNL     1     -46.133  55.371 -59.927  1.00  0.00    -0.288 N 
HETATM   20  H   UNL     1     -46.860  54.726 -60.221  1.00  0.00     0.188 HD
HETATM   21  C   UNL     1     -44.797  55.140 -59.820  1.00  0.00     0.120 A 
ENDBRANCH  14  15
ENDBRANCH  11  14
ENDBRANCH   3  10
BRANCH   1  22
HETATM   22  N   UNL     1     -41.701  56.617 -51.861  1.00  0.00    -0.340 N 
HETATM   23  H   UNL     1     -41.310  56.066 -51.110  1.00  0.00     0.167 HD
BRANCH  22  24
HETATM   24  C   UNL     1     -42.249  57.841 -51.441  1.00  0.00     0.034 A 
HETATM   25  C   UNL     1     -41.372  58.860 -51.040  1.00  0.00     0.031 A 
HETATM   26  C   UNL     1     -41.847  60.114 -50.648  1.00  0.00     0.022 A 
HETATM   27  C   UNL     1     -43.217  60.378 -50.658  1.00  0.00     0.017 A 
HETATM   28  C   UNL     1     -44.122  59.387 -51.053  1.00  0.00    -0.043 A 
HETATM   29 BR   UNL     1     -43.782  62.111 -50.127  1.00  0.00    -0.051 Br
HETATM   30  C   UNL     1     -45.607  59.621 -51.099  1.00  0.00     0.049 C 
HETATM   31  C   UNL     1     -43.617  58.128 -51.439  1.00  0.00     0.037 A 
ENDBRANCH  22  24
ENDBRANCH   1  22
TORSDOF 5
ENDMDL
