MODEL 1
REMARK VINA RESULT:      -8.8      0.000      0.000
REMARK  2 active torsions:
REMARK  status: ('A' for Active; 'I' for Inactive)
REMARK    1  A    between atoms: C_2  and  N_3 
REMARK    2  A    between atoms: N_3  and  C_4 
ROOT
HETATM    1  C   UNL     1     -42.073  56.949 -54.133  1.00  0.00     0.143 A 
HETATM    2  N   UNL     1     -41.718  57.786 -53.125  1.00  0.00    -0.223 NA
HETATM    3  C   UNL     1     -41.515  59.083 -53.374  1.00  0.00     0.236 A 
HETATM    4  N   UNL     1     -41.617  59.703 -54.545  1.00  0.00    -0.234 NA
HETATM    5  C   UNL     1     -41.967  58.868 -55.536  1.00  0.00     0.114 A 
HETATM    6  C   UNL     1     -42.220  57.503 -55.434  1.00  0.00     0.053 A 
HETATM    7  S   UNL     1     -42.134  59.471 -57.118  1.00  0.00    -0.073 SA
HETATM    8  C   UNL     1     -42.526  57.939 -57.724  1.00  0.00    -0.008 A 
HETATM    9  C   UNL     1     -42.576  56.964 -56.740  1.00  0.00    -0.028 A 
HETATM   10  C   UNL     1     -42.906  55.538 -57.089  1.00  0.00     0.041 C 
HETATM   11  C   UNL     1     -43.456  55.380 -58.516  1.00  0.00     0.005 C 
HETATM   12  C   UNL     1     -42.693  56.238 -59.530  1.00  0.00     0.005 C 
HETATM   13  C   UNL     1     -42.802  57.727 -59.181  1.00  0.00     0.047 C 
ENDROOT
BRANCH   1  14
HETATM   14  N   UNL     1     -42.316  55.596 -53.854  1.00  0.00    -0.340 N 
HETATM   15  H   UNL     1     -43.259  55.296 -54.035  1.00  0.00     0.167 HD
BRANCH  14  16
HETATM   16  C   UNL     1     -41.490  54.585 -53.330  1.00  0.00     0.036 A 
HETATM   17  C   UNL     1     -41.086  54.535 -51.991  1.00  0.00     0.032 A 
HETATM   18  C   UNL     1     -40.291  53.488 -51.512  1.00  0.00     0.042 A 
HETATM   19  C   UNL     1     -39.929  52.444 -52.358  1.00  0.00     0.102 A 
HETATM   20  C   UNL     1     -40.333  52.466 -53.691  1.00  0.00     0.104 A 
HETATM   21  O   UNL     1     -39.102  51.486 -51.841  1.00  0.00    -0.348 OA
HETATM   22  C   UNL     1     -41.092  53.537 -54.175  1.00  0.00     0.069 A 
HETATM   23  O   UNL     1     -39.953  51.521 -54.605  1.00  0.00    -0.348 OA
HETATM   24  C   UNL     1     -40.444  50.223 -54.267  1.00  0.00     0.178 C 
HETATM   25  C   UNL     1     -39.570  49.530 -53.233  1.00  0.00     0.053 C 
HETATM   26  C   UNL     1     -39.703  50.191 -51.869  1.00  0.00     0.178 C 
ENDBRANCH  14  16
ENDBRANCH   1  14
TORSDOF 2
ENDMDL
MODEL 2
REMARK VINA RESULT:      -8.6      3.498      7.385
REMARK  2 active torsions:
REMARK  status: ('A' for Active; 'I' for Inactive)
REMARK    1  A    between atoms: C_2  and  N_3 
REMARK    2  A    between atoms: N_3  and  C_4 
ROOT
HETATM    1  C   UNL     1     -43.690  56.063 -54.581  1.00  0.00     0.143 A 
HETATM    2  N   UNL     1     -44.546  57.054 -54.222  1.00  0.00    -0.223 NA
HETATM    3  C   UNL     1     -44.567  57.493 -52.959  1.00  0.00     0.236 A 
HETATM    4  N   UNL     1     -43.822  57.066 -51.946  1.00  0.00    -0.234 NA
HETATM    5  C   UNL     1     -42.980  56.086 -52.309  1.00  0.00     0.114 A 
HETATM    6  C   UNL     1     -42.834  55.530 -53.577  1.00  0.00     0.053 A 
HETATM    7  S   UNL     1     -41.950  55.394 -51.145  1.00  0.00    -0.073 SA
HETATM    8  C   UNL     1     -41.292  54.321 -52.279  1.00  0.00    -0.008 A 
HETATM    9  C   UNL     1     -41.809  54.496 -53.553  1.00  0.00    -0.028 A 
HETATM   10  C   UNL     1     -41.347  53.630 -54.693  1.00  0.00     0.041 C 
HETATM   11  C   UNL     1     -40.091  52.809 -54.355  1.00  0.00     0.005 C 
HETATM   12  C   UNL     1     -40.148  52.216 -52.945  1.00  0.00     0.005 C 
HETATM   13  C   UNL     1     -40.246  53.322 -51.887  1.00  0.00     0.047 C 
ENDROOT
BRANCH   1  14
HETATM   14  N   UNL     1     -43.653  55.632 -55.915  1.00  0.00    -0.340 N 
HETATM   15  H   UNL     1     -44.024  54.710 -56.065  1.00  0.00     0.167 HD
BRANCH  14  16
HETATM   16  C   UNL     1     -43.153  56.240 -57.081  1.00  0.00     0.036 A 
HETATM   17  C   UNL     1     -43.253  55.667 -58.354  1.00  0.00     0.032 A 
HETATM   18  C   UNL     1     -42.771  56.330 -59.488  1.00  0.00     0.042 A 
HETATM   19  C   UNL     1     -42.225  57.603 -59.370  1.00  0.00     0.102 A 
HETATM   20  C   UNL     1     -42.128  58.200 -58.115  1.00  0.00     0.104 A 
HETATM   21  O   UNL     1     -41.718  58.168 -60.508  1.00  0.00    -0.348 OA
HETATM   22  C   UNL     1     -42.573  57.515 -56.980  1.00  0.00     0.069 A 
HETATM   23  O   UNL     1     -41.532  59.413 -57.905  1.00  0.00    -0.348 OA
HETATM   24  C   UNL     1     -42.220  60.469 -58.576  1.00  0.00     0.178 C 
HETATM   25  C   UNL     1     -41.829  60.566 -60.044  1.00  0.00     0.053 C 
HETATM   26  C   UNL     1     -42.378  59.390 -60.838  1.00  0.00     0.178 C 
ENDBRANCH  14  16
ENDBRANCH   1  14
TORSDOF 2
ENDMDL
MODEL 3
REMARK VINA RESULT:      -8.6      3.267      7.245
REMARK  2 active torsions:
REMARK  status: ('A' for Active; 'I' for Inactive)
REMARK    1  A    between atoms: C_2  and  N_3 
REMARK    2  A    between atoms: N_3  and  C_4 
ROOT
HETATM    1  C   UNL     1     -41.141  55.156 -53.111  1.00  0.00     0.143 A 
HETATM    2  N   UNL     1     -41.505  56.261 -52.413  1.00  0.00    -0.223 NA
HETATM    3  C   UNL     1     -41.460  56.251 -51.076  1.00  0.00     0.236 A 
HETATM    4  N   UNL     1     -41.087  55.245 -50.292  1.00  0.00    -0.234 NA
HETATM    5  C   UNL     1     -40.730  54.157 -50.991  1.00  0.00     0.114 A 
HETATM    6  C   UNL     1     -40.715  54.016 -52.375  1.00  0.00     0.053 A 
HETATM    7  S   UNL     1     -40.236  52.756 -50.162  1.00  0.00    -0.073 SA
HETATM    8  C   UNL     1     -40.005  51.908 -51.611  1.00  0.00    -0.008 A 
HETATM    9  C   UNL     1     -40.259  52.680 -52.734  1.00  0.00    -0.028 A 
HETATM   10  C   UNL     1     -40.111  52.097 -54.114  1.00  0.00     0.041 C 
HETATM   11  C   UNL     1     -39.386  50.740 -54.119  1.00  0.00     0.005 C 
HETATM   12  C   UNL     1     -39.843  49.834 -52.972  1.00  0.00     0.005 C 
HETATM   13  C   UNL     1     -39.552  50.481 -51.612  1.00  0.00     0.047 C 
ENDROOT
BRANCH   1  14
HETATM   14  N   UNL     1     -41.160  55.188 -54.514  1.00  0.00    -0.340 N 
HETATM   15  H   UNL     1     -40.489  54.582 -54.953  1.00  0.00     0.167 HD
BRANCH  14  16
HETATM   16  C   UNL     1     -41.923  55.943 -55.422  1.00  0.00     0.036 A 
HETATM   17  C   UNL     1     -42.120  57.324 -55.304  1.00  0.00     0.032 A 
HETATM   18  C   UNL     1     -42.860  58.035 -56.255  1.00  0.00     0.042 A 
HETATM   19  C   UNL     1     -43.373  57.381 -57.370  1.00  0.00     0.102 A 
HETATM   20  C   UNL     1     -43.176  56.009 -57.516  1.00  0.00     0.104 A 
HETATM   21  O   UNL     1     -44.137  58.123 -58.228  1.00  0.00    -0.348 OA
HETATM   22  C   UNL     1     -42.473  55.296 -56.540  1.00  0.00     0.069 A 
HETATM   23  O   UNL     1     -43.716  55.279 -58.540  1.00  0.00    -0.348 OA
HETATM   24  C   UNL     1     -43.213  55.690 -59.812  1.00  0.00     0.178 C 
HETATM   25  C   UNL     1     -43.937  56.917 -60.346  1.00  0.00     0.053 C 
HETATM   26  C   UNL     1     -43.581  58.159 -59.542  1.00  0.00     0.178 C 
ENDBRANCH  14  16
ENDBRANCH   1  14
TORSDOF 2
ENDMDL
MODEL 4
REMARK VINA RESULT:      -8.5      1.608      2.245
REMARK  2 active torsions:
REMARK  status: ('A' for Active; 'I' for Inactive)
REMARK    1  A    between atoms: C_2  and  N_3 
REMARK    2  A    between atoms: N_3  and  C_4 
ROOT
HETATM    1  C   UNL     1     -41.580  56.815 -51.516  1.00  0.00     0.143 A 
HETATM    2  N   UNL     1     -41.047  57.494 -50.469  1.00  0.00    -0.223 NA
HETATM    3  C   UNL     1     -40.700  58.778 -50.611  1.00  0.00     0.236 A 
HETATM    4  N   UNL     1     -40.812  59.524 -51.704  1.00  0.00    -0.234 NA
HETATM    5  C   UNL     1     -41.339  58.845 -52.734  1.00  0.00     0.114 A 
HETATM    6  C   UNL     1     -41.754  57.517 -52.741  1.00  0.00     0.053 A 
HETATM    7  S   UNL     1     -41.547  59.627 -54.232  1.00  0.00    -0.073 SA
HETATM    8  C   UNL     1     -42.175  58.224 -54.944  1.00  0.00    -0.008 A 
HETATM    9  C   UNL     1     -42.272  57.164 -54.055  1.00  0.00    -0.028 A 
HETATM   10  C   UNL     1     -42.805  55.831 -54.508  1.00  0.00     0.041 C 
HETATM   11  C   UNL     1     -43.477  55.890 -55.890  1.00  0.00     0.005 C 
HETATM   12  C   UNL     1     -42.691  56.753 -56.881  1.00  0.00     0.005 C 
HETATM   13  C   UNL     1     -42.585  58.200 -56.384  1.00  0.00     0.047 C 
ENDROOT
BRANCH   1  14
HETATM   14  N   UNL     1     -41.970  55.479 -51.347  1.00  0.00    -0.340 N 
HETATM   15  H   UNL     1     -42.947  55.352 -51.146  1.00  0.00     0.167 HD
BRANCH  14  16
HETATM   16  C   UNL     1     -41.235  54.279 -51.370  1.00  0.00     0.036 A 
HETATM   17  C   UNL     1     -40.963  53.518 -50.227  1.00  0.00     0.032 A 
HETATM   18  C   UNL     1     -40.257  52.314 -50.309  1.00  0.00     0.042 A 
HETATM   19  C   UNL     1     -39.855  51.824 -51.548  1.00  0.00     0.102 A 
HETATM   20  C   UNL     1     -40.128  52.558 -52.701  1.00  0.00     0.104 A 
HETATM   21  O   UNL     1     -39.117  50.673 -51.551  1.00  0.00    -0.348 OA
HETATM   22  C   UNL     1     -40.797  53.783 -52.608  1.00  0.00     0.069 A 
HETATM   23  O   UNL     1     -39.697  52.187 -53.946  1.00  0.00    -0.348 OA
HETATM   24  C   UNL     1     -40.266  50.944 -54.359  1.00  0.00     0.178 C 
HETATM   25  C   UNL     1     -39.521  49.751 -53.779  1.00  0.00     0.053 C 
HETATM   26  C   UNL     1     -39.760  49.629 -52.281  1.00  0.00     0.178 C 
ENDBRANCH  14  16
ENDBRANCH   1  14
TORSDOF 2
ENDMDL
MODEL 5
REMARK VINA RESULT:      -8.5      3.654      7.315
REMARK  2 active torsions:
REMARK  status: ('A' for Active; 'I' for Inactive)
REMARK    1  A    between atoms: C_2  and  N_3 
REMARK    2  A    between atoms: N_3  and  C_4 
ROOT
HETATM    1  C   UNL     1     -43.018  55.070 -52.595  1.00  0.00     0.143 A 
HETATM    2  N   UNL     1     -43.481  56.037 -51.763  1.00  0.00    -0.223 NA
HETATM    3  C   UNL     1     -42.887  56.243 -50.583  1.00  0.00     0.236 A 
HETATM    4  N   UNL     1     -41.845  55.589 -50.082  1.00  0.00    -0.234 NA
HETATM    5  C   UNL     1     -41.395  54.634 -50.910  1.00  0.00     0.114 A 
HETATM    6  C   UNL     1     -41.897  54.307 -52.167  1.00  0.00     0.053 A 
HETATM    7  S   UNL     1     -40.072  53.673 -50.439  1.00  0.00    -0.073 SA
HETATM    8  C   UNL     1     -40.135  52.778 -51.875  1.00  0.00    -0.008 A 
HETATM    9  C   UNL     1     -41.124  53.216 -52.742  1.00  0.00    -0.028 A 
HETATM   10  C   UNL     1     -41.334  52.538 -54.070  1.00  0.00     0.041 C 
HETATM   11  C   UNL     1     -40.188  51.584 -54.446  1.00  0.00     0.005 C 
HETATM   12  C   UNL     1     -39.710  50.752 -53.253  1.00  0.00     0.005 C 
HETATM   13  C   UNL     1     -39.178  51.654 -52.133  1.00  0.00     0.047 C 
ENDROOT
BRANCH   1  14
HETATM   14  N   UNL     1     -43.627  54.884 -53.845  1.00  0.00    -0.340 N 
HETATM   15  H   UNL     1     -44.265  54.108 -53.887  1.00  0.00     0.167 HD
BRANCH  14  16
HETATM   16  C   UNL     1     -43.481  55.564 -55.068  1.00  0.00     0.036 A 
HETATM   17  C   UNL     1     -42.965  54.969 -56.225  1.00  0.00     0.032 A 
HETATM   18  C   UNL     1     -42.873  55.680 -57.427  1.00  0.00     0.042 A 
HETATM   19  C   UNL     1     -43.342  56.987 -57.501  1.00  0.00     0.102 A 
HETATM   20  C   UNL     1     -43.873  57.595 -56.364  1.00  0.00     0.104 A 
HETATM   21  O   UNL     1     -43.166  57.643 -58.688  1.00  0.00    -0.348 OA
HETATM   22  C   UNL     1     -43.924  56.893 -55.156  1.00  0.00     0.069 A 
HETATM   23  O   UNL     1     -44.281  58.901 -56.334  1.00  0.00    -0.348 OA
HETATM   24  C   UNL     1     -45.377  59.138 -57.219  1.00  0.00     0.178 C 
HETATM   25  C   UNL     1     -44.920  59.346 -58.655  1.00  0.00     0.053 C 
HETATM   26  C   UNL     1     -44.407  58.049 -59.263  1.00  0.00     0.178 C 
ENDBRANCH  14  16
ENDBRANCH   1  14
TORSDOF 2
ENDMDL
MODEL 6
REMARK VINA RESULT:      -8.4      4.011      7.825
REMARK  2 active torsions:
REMARK  status: ('A' for Active; 'I' for Inactive)
REMARK    1  A    between atoms: C_2  and  N_3 
REMARK    2  A    between atoms: N_3  and  C_4 
ROOT
HETATM    1  C   UNL     1     -39.932  52.061 -53.993  1.00  0.00     0.143 A 
HETATM    2  N   UNL     1     -39.680  50.960 -54.747  1.00  0.00    -0.223 NA
HETATM    3  C   UNL     1     -39.554  49.764 -54.162  1.00  0.00     0.236 A 
HETATM    4  N   UNL     1     -39.645  49.490 -52.865  1.00  0.00    -0.234 NA
HETATM    5  C   UNL     1     -39.893  50.584 -52.128  1.00  0.00     0.114 A 
HETATM    6  C   UNL     1     -40.057  51.887 -52.587  1.00  0.00     0.053 A 
HETATM    7  S   UNL     1     -40.028  50.440 -50.437  1.00  0.00    -0.073 SA
HETATM    8  C   UNL     1     -40.288  52.104 -50.257  1.00  0.00    -0.008 A 
HETATM    9  C   UNL     1     -40.316  52.781 -51.467  1.00  0.00    -0.028 A 
HETATM   10  C   UNL     1     -40.533  54.270 -51.507  1.00  0.00     0.041 C 
HETATM   11  C   UNL     1     -41.006  54.846 -50.162  1.00  0.00     0.005 C 
HETATM   12  C   UNL     1     -40.258  54.233 -48.974  1.00  0.00     0.005 C 
HETATM   13  C   UNL     1     -40.484  52.718 -48.905  1.00  0.00     0.047 C 
ENDROOT
BRANCH   1  14
HETATM   14  N   UNL     1     -40.095  53.305 -54.620  1.00  0.00    -0.340 N 
HETATM   15  H   UNL     1     -39.265  53.660 -55.063  1.00  0.00     0.167 HD
BRANCH  14  16
HETATM   16  C   UNL     1     -41.201  54.168 -54.712  1.00  0.00     0.036 A 
HETATM   17  C   UNL     1     -42.528  53.723 -54.742  1.00  0.00     0.032 A 
HETATM   18  C   UNL     1     -43.595  54.626 -54.799  1.00  0.00     0.042 A 
HETATM   19  C   UNL     1     -43.351  55.995 -54.775  1.00  0.00     0.102 A 
HETATM   20  C   UNL     1     -42.039  56.461 -54.731  1.00  0.00     0.104 A 
HETATM   21  O   UNL     1     -44.435  56.821 -54.895  1.00  0.00    -0.348 OA
HETATM   22  C   UNL     1     -40.975  55.554 -54.717  1.00  0.00     0.069 A 
HETATM   23  O   UNL     1     -41.713  57.789 -54.786  1.00  0.00    -0.348 OA
HETATM   24  C   UNL     1     -42.220  58.511 -53.664  1.00  0.00     0.178 C 
HETATM   25  C   UNL     1     -43.682  58.895 -53.841  1.00  0.00     0.053 C 
HETATM   26  C   UNL     1     -44.585  57.673 -53.759  1.00  0.00     0.178 C 
ENDBRANCH  14  16
ENDBRANCH   1  14
TORSDOF 2
ENDMDL
MODEL 7
REMARK VINA RESULT:      -8.4      4.768      7.913
REMARK  2 active torsions:
REMARK  status: ('A' for Active; 'I' for Inactive)
REMARK    1  A    between atoms: C_2  and  N_3 
REMARK    2  A    between atoms: N_3  and  C_4 
ROOT
HETATM    1  C   UNL     1     -40.939  55.540 -50.200  1.00  0.00     0.143 A 
HETATM    2  N   UNL     1     -40.979  55.490 -48.845  1.00  0.00    -0.223 NA
HETATM    3  C   UNL     1     -40.746  54.335 -48.212  1.00  0.00     0.236 A 
HETATM    4  N   UNL     1     -40.466  53.159 -48.762  1.00  0.00    -0.234 NA
HETATM    5  C   UNL     1     -40.429  53.218 -50.102  1.00  0.00     0.114 A 
HETATM    6  C   UNL     1     -40.640  54.338 -50.900  1.00  0.00     0.053 A 
HETATM    7  S   UNL     1     -40.101  51.805 -50.993  1.00  0.00    -0.073 SA
HETATM    8  C   UNL     1     -40.248  52.629 -52.466  1.00  0.00    -0.008 A 
HETATM    9  C   UNL     1     -40.506  53.981 -52.306  1.00  0.00    -0.028 A 
HETATM   10  C   UNL     1     -40.672  54.877 -53.504  1.00  0.00     0.041 C 
HETATM   11  C   UNL     1     -40.232  54.212 -54.818  1.00  0.00     0.005 C 
HETATM   12  C   UNL     1     -40.685  52.752 -54.910  1.00  0.00     0.005 C 
HETATM   13  C   UNL     1     -40.084  51.917 -53.774  1.00  0.00     0.047 C 
ENDROOT
BRANCH   1  14
HETATM   14  N   UNL     1     -41.152  56.763 -50.853  1.00  0.00    -0.340 N 
HETATM   15  H   UNL     1     -40.311  57.257 -51.098  1.00  0.00     0.167 HD
BRANCH  14  16
HETATM   16  C   UNL     1     -42.332  57.448 -51.196  1.00  0.00     0.036 A 
HETATM   17  C   UNL     1     -43.586  56.832 -51.276  1.00  0.00     0.032 A 
HETATM   18  C   UNL     1     -44.736  57.566 -51.588  1.00  0.00     0.042 A 
HETATM   19  C   UNL     1     -44.655  58.942 -51.775  1.00  0.00     0.102 A 
HETATM   20  C   UNL     1     -43.418  59.578 -51.685  1.00  0.00     0.104 A 
HETATM   21  O   UNL     1     -45.805  59.587 -52.137  1.00  0.00    -0.348 OA
HETATM   22  C   UNL     1     -42.266  58.833 -51.416  1.00  0.00     0.069 A 
HETATM   23  O   UNL     1     -43.242  60.912 -51.935  1.00  0.00    -0.348 OA
HETATM   24  C   UNL     1     -43.956  61.728 -51.006  1.00  0.00     0.178 C 
HETATM   25  C   UNL     1     -45.422  61.882 -51.385  1.00  0.00     0.053 C 
HETATM   26  C   UNL     1     -46.182  60.580 -51.182  1.00  0.00     0.178 C 
ENDBRANCH  14  16
ENDBRANCH   1  14
TORSDOF 2
ENDMDL
MODEL 8
REMARK VINA RESULT:      -8.2      2.540      4.638
REMARK  2 active torsions:
REMARK  status: ('A' for Active; 'I' for Inactive)
REMARK    1  A    between atoms: C_2  and  N_3 
REMARK    2  A    between atoms: N_3  and  C_4 
ROOT
HETATM    1  C   UNL     1     -42.611  57.383 -54.606  1.00  0.00     0.143 A 
HETATM    2  N   UNL     1     -43.643  57.239 -55.475  1.00  0.00    -0.223 NA
HETATM    3  C   UNL     1     -44.735  58.001 -55.347  1.00  0.00     0.236 A 
HETATM    4  N   UNL     1     -44.961  58.934 -54.429  1.00  0.00    -0.234 NA
HETATM    5  C   UNL     1     -43.936  59.069 -53.574  1.00  0.00     0.114 A 
HETATM    6  C   UNL     1     -42.737  58.361 -53.581  1.00  0.00     0.053 A 
HETATM    7  S   UNL     1     -44.043  60.206 -52.313  1.00  0.00    -0.073 SA
HETATM    8  C   UNL     1     -42.513  59.783 -51.722  1.00  0.00    -0.008 A 
HETATM    9  C   UNL     1     -41.887  58.811 -52.488  1.00  0.00    -0.028 A 
HETATM   10  C   UNL     1     -40.520  58.304 -52.115  1.00  0.00     0.041 C 
HETATM   11  C   UNL     1     -39.828  59.169 -51.048  1.00  0.00     0.005 C 
HETATM   12  C   UNL     1     -40.790  59.601 -49.939  1.00  0.00     0.005 C 
HETATM   13  C   UNL     1     -41.940  60.443 -50.505  1.00  0.00     0.047 C 
ENDROOT
BRANCH   1  14
HETATM   14  N   UNL     1     -41.457  56.602 -54.769  1.00  0.00    -0.340 N 
HETATM   15  H   UNL     1     -40.727  57.044 -55.300  1.00  0.00     0.167 HD
BRANCH  14  16
HETATM   16  C   UNL     1     -41.146  55.294 -54.355  1.00  0.00     0.036 A 
HETATM   17  C   UNL     1     -40.404  54.395 -55.130  1.00  0.00     0.032 A 
HETATM   18  C   UNL     1     -40.092  53.116 -54.658  1.00  0.00     0.042 A 
HETATM   19  C   UNL     1     -40.476  52.733 -53.376  1.00  0.00     0.102 A 
HETATM   20  C   UNL     1     -41.203  53.618 -52.582  1.00  0.00     0.104 A 
HETATM   21  O   UNL     1     -40.192  51.449 -53.001  1.00  0.00    -0.348 OA
HETATM   22  C   UNL     1     -41.549  54.879 -53.076  1.00  0.00     0.069 A 
HETATM   23  O   UNL     1     -41.687  53.289 -51.344  1.00  0.00    -0.348 OA
HETATM   24  C   UNL     1     -40.637  53.004 -50.419  1.00  0.00     0.178 C 
HETATM   25  C   UNL     1     -40.119  51.580 -50.561  1.00  0.00     0.053 C 
HETATM   26  C   UNL     1     -39.341  51.404 -51.856  1.00  0.00     0.178 C 
ENDBRANCH  14  16
ENDBRANCH   1  14
TORSDOF 2
ENDMDL
MODEL 9
REMARK VINA RESULT:      -7.9      2.381      4.186
REMARK  2 active torsions:
REMARK  status: ('A' for Active; 'I' for Inactive)
REMARK    1  A    between atoms: C_2  and  N_3 
REMARK    2  A    between atoms: N_3  and  C_4 
ROOT
HETATM    1  C   UNL     1     -43.324  55.962 -57.522  1.00  0.00     0.143 A 
HETATM    2  N   UNL     1     -43.488  55.111 -58.567  1.00  0.00    -0.223 NA
HETATM    3  C   UNL     1     -43.234  55.524 -59.812  1.00  0.00     0.236 A 
HETATM    4  N   UNL     1     -42.820  56.729 -60.191  1.00  0.00    -0.234 NA
HETATM    5  C   UNL     1     -42.662  57.564 -59.153  1.00  0.00     0.114 A 
HETATM    6  C   UNL     1     -42.876  57.282 -57.807  1.00  0.00     0.053 A 
HETATM    7  S   UNL     1     -42.151  59.163 -59.436  1.00  0.00    -0.073 SA
HETATM    8  C   UNL     1     -42.218  59.539 -57.785  1.00  0.00    -0.008 A 
HETATM    9  C   UNL     1     -42.585  58.458 -56.999  1.00  0.00    -0.028 A 
HETATM   10  C   UNL     1     -42.702  58.601 -55.505  1.00  0.00     0.041 C 
HETATM   11  C   UNL     1     -42.093  59.911 -54.977  1.00  0.00     0.005 C 
HETATM   12  C   UNL     1     -42.431  61.109 -55.869  1.00  0.00     0.005 C 
HETATM   13  C   UNL     1     -41.880  60.910 -57.287  1.00  0.00     0.047 C 
ENDROOT
BRANCH   1  14
HETATM   14  N   UNL     1     -43.562  55.508 -56.217  1.00  0.00    -0.340 N 
HETATM   15  H   UNL     1     -44.485  55.703 -55.869  1.00  0.00     0.167 HD
BRANCH  14  16
HETATM   16  C   UNL     1     -42.730  54.860 -55.285  1.00  0.00     0.036 A 
HETATM   17  C   UNL     1     -41.398  54.520 -55.546  1.00  0.00     0.032 A 
HETATM   18  C   UNL     1     -40.602  53.907 -54.572  1.00  0.00     0.042 A 
HETATM   19  C   UNL     1     -41.115  53.669 -53.301  1.00  0.00     0.102 A 
HETATM   20  C   UNL     1     -42.435  54.013 -53.015  1.00  0.00     0.104 A 
HETATM   21  O   UNL     1     -40.304  53.012 -52.418  1.00  0.00    -0.348 OA
HETATM   22  C   UNL     1     -43.238  54.586 -54.006  1.00  0.00     0.069 A 
HETATM   23  O   UNL     1     -43.038  53.739 -51.818  1.00  0.00    -0.348 OA
HETATM   24  C   UNL     1     -42.412  54.428 -50.735  1.00  0.00     0.178 C 
HETATM   25  C   UNL     1     -41.168  53.706 -50.238  1.00  0.00     0.053 C 
HETATM   26  C   UNL     1     -40.039  53.795 -51.254  1.00  0.00     0.178 C 
ENDBRANCH  14  16
ENDBRANCH   1  14
TORSDOF 2
ENDMDL
MODEL 10
REMARK VINA RESULT:      -7.9     14.862     17.482
REMARK  2 active torsions:
REMARK  status: ('A' for Active; 'I' for Inactive)
REMARK    1  A    between atoms: C_2  and  N_3 
REMARK    2  A    between atoms: N_3  and  C_4 
ROOT
HETATM    1  C   UNL     1     -35.413  41.779 -55.357  1.00  0.00     0.143 A 
HETATM    2  N   UNL     1     -36.427  42.248 -54.587  1.00  0.00    -0.223 NA
HETATM    3  C   UNL     1     -36.429  42.015 -53.270  1.00  0.00     0.236 A 
HETATM    4  N   UNL     1     -35.520  41.345 -52.571  1.00  0.00    -0.234 NA
HETATM    5  C   UNL     1     -34.522  40.884 -53.340  1.00  0.00     0.114 A 
HETATM    6  C   UNL     1     -34.375  41.050 -54.715  1.00  0.00     0.053 A 
HETATM    7  S   UNL     1     -33.265  39.984 -52.629  1.00  0.00    -0.073 SA
HETATM    8  C   UNL     1     -32.496  39.767 -54.122  1.00  0.00    -0.008 A 
HETATM    9  C   UNL     1     -33.152  40.401 -55.166  1.00  0.00    -0.028 A 
HETATM   10  C   UNL     1     -32.618  40.317 -56.571  1.00  0.00     0.041 C 
HETATM   11  C   UNL     1     -31.189  39.754 -56.639  1.00  0.00     0.005 C 
HETATM   12  C   UNL     1     -30.987  38.567 -55.693  1.00  0.00     0.005 C 
HETATM   13  C   UNL     1     -31.227  38.979 -54.235  1.00  0.00     0.047 C 
ENDROOT
BRANCH   1  14
HETATM   14  N   UNL     1     -35.404  42.056 -56.732  1.00  0.00    -0.340 N 
HETATM   15  H   UNL     1     -34.859  42.860 -56.991  1.00  0.00     0.167 HD
BRANCH  14  16
HETATM   16  C   UNL     1     -36.051  41.436 -57.817  1.00  0.00     0.036 A 
HETATM   17  C   UNL     1     -36.793  42.136 -58.775  1.00  0.00     0.032 A 
HETATM   18  C   UNL     1     -37.388  41.475 -59.855  1.00  0.00     0.042 A 
HETATM   19  C   UNL     1     -37.207  40.106 -60.020  1.00  0.00     0.102 A 
HETATM   20  C   UNL     1     -36.459  39.392 -59.086  1.00  0.00     0.104 A 
HETATM   21  O   UNL     1     -37.866  39.514 -61.062  1.00  0.00    -0.348 OA
HETATM   22  C   UNL     1     -35.902  40.050 -57.985  1.00  0.00     0.069 A 
HETATM   23  O   UNL     1     -36.302  38.033 -59.133  1.00  0.00    -0.348 OA
HETATM   24  C   UNL     1     -35.605  37.616 -60.307  1.00  0.00     0.178 C 
HETATM   25  C   UNL     1     -36.525  37.520 -61.516  1.00  0.00     0.053 C 
HETATM   26  C   UNL     1     -36.965  38.899 -61.983  1.00  0.00     0.178 C 
ENDBRANCH  14  16
ENDBRANCH   1  14
TORSDOF 2
ENDMDL
