MODEL 1
REMARK VINA RESULT:      -8.5      0.000      0.000
REMARK  7 active torsions:
REMARK  status: ('A' for Active; 'I' for Inactive)
REMARK    1  A    between atoms: O_2  and  C_3 
REMARK    2  A    between atoms: C_5  and  C_6 
REMARK       I    between atoms: C_6  and  N_7 
REMARK    3  A    between atoms: N_7  and  C_8 
REMARK    4  A    between atoms: C_10  and  C_11 
REMARK    5  A    between atoms: C_11  and  C_12 
REMARK    6  A    between atoms: C_12  and  C_13 
REMARK    7  A    between atoms: C_13  and  C_14 
ROOT
HETATM    1  C   UNL     1     -42.579  55.388 -55.569  1.00  0.00     0.725 A 
HETATM    2  N   UNL     1     -43.028  55.485 -54.341  1.00  0.00    -0.046 NA
HETATM    3  C   UNL     1     -41.877  55.553 -53.592  1.00  0.00     0.165 A 
HETATM    4  N   UNL     1     -40.739  55.500 -54.297  1.00  0.00    -0.144 NA
HETATM    5  N   UNL     1     -41.211  55.396 -55.551  1.00  0.00    -0.106 N 
HETATM    6  H   UNL     1     -40.584  55.352 -56.349  1.00  0.00     0.208 HD
ENDROOT
BRANCH   3   7
HETATM    7  C   UNL     1     -41.879  55.755 -52.118  1.00  0.00     0.083 C 
BRANCH   7   8
HETATM    8  C   UNL     1     -41.848  54.456 -51.315  1.00  0.00     0.012 C 
BRANCH   8   9
HETATM    9  C   UNL     1     -40.406  54.050 -51.010  1.00  0.00     0.041 C 
BRANCH   9  10
HETATM   10  C   UNL     1     -40.188  52.573 -51.096  1.00  0.00    -0.030 A 
HETATM   11  C   UNL     1     -39.969  51.804 -52.284  1.00  0.00    -0.002 A 
HETATM   12  C   UNL     1     -39.841  50.469 -51.903  1.00  0.00     0.042 A 
HETATM   13  C   UNL     1     -39.871  52.123 -53.654  1.00  0.00     0.014 A 
HETATM   14  C   UNL     1     -39.625  49.434 -52.821  1.00  0.00     0.030 A 
HETATM   15  N   UNL     1     -39.970  50.426 -50.535  1.00  0.00    -0.365 N 
HETATM   16  C   UNL     1     -39.534  49.777 -54.173  1.00  0.00     0.002 A 
HETATM   17  C   UNL     1     -39.653  51.102 -54.587  1.00  0.00     0.001 A 
HETATM   18  H   UNL     1     -39.922  49.583 -49.981  1.00  0.00     0.165 HD
HETATM   19  C   UNL     1     -40.179  51.684 -50.038  1.00  0.00     0.096 A 
ENDBRANCH   9  10
ENDBRANCH   8   9
ENDBRANCH   7   8
ENDBRANCH   3   7
BRANCH   1  20
HETATM   20  N   UNL     1     -43.352  55.305 -56.699  1.00  0.00    -0.152 N 
HETATM   21  C   UNL     1     -43.213  56.207 -57.730  1.00  0.00     0.270 C 
HETATM   22  O   UNL     1     -42.413  57.139 -57.738  1.00  0.00    -0.267 OA
HETATM   23  H   UNL     1     -44.082  54.607 -56.680  1.00  0.00     0.187 HD
BRANCH  21  24
HETATM   24  C   UNL     1     -44.143  56.022 -58.872  1.00  0.00     0.035 A 
HETATM   25  C   UNL     1     -45.179  56.948 -59.043  1.00  0.00     0.053 A 
HETATM   26  C   UNL     1     -46.079  56.817 -60.103  1.00  0.00     0.069 A 
HETATM   27  C   UNL     1     -45.931  55.758 -61.000  1.00  0.00     0.037 A 
HETATM   28  C   UNL     1     -44.886  54.840 -60.842  1.00  0.00     0.004 A 
HETATM   29  C   UNL     1     -43.991  54.969 -59.780  1.00  0.00     0.017 A 
BRANCH  26  30
HETATM   30  O   UNL     1     -47.052  57.777 -60.145  1.00  0.00    -0.356 OA
HETATM   31  C   UNL     1     -46.631  59.117 -60.363  1.00  0.00     0.210 C 
ENDBRANCH  26  30
ENDBRANCH  21  24
ENDBRANCH   1  20
TORSDOF 7
ENDMDL
MODEL 2
REMARK VINA RESULT:      -8.4      2.022      2.854
REMARK  7 active torsions:
REMARK  status: ('A' for Active; 'I' for Inactive)
REMARK    1  A    between atoms: O_2  and  C_3 
REMARK    2  A    between atoms: C_5  and  C_6 
REMARK       I    between atoms: C_6  and  N_7 
REMARK    3  A    between atoms: N_7  and  C_8 
REMARK    4  A    between atoms: C_10  and  C_11 
REMARK    5  A    between atoms: C_11  and  C_12 
REMARK    6  A    between atoms: C_12  and  C_13 
REMARK    7  A    between atoms: C_13  and  C_14 
ROOT
HETATM    1  C   UNL     1     -42.916  57.140 -53.628  1.00  0.00     0.725 A 
HETATM    2  N   UNL     1     -41.945  57.274 -52.757  1.00  0.00    -0.046 NA
HETATM    3  C   UNL     1     -42.544  56.934 -51.567  1.00  0.00     0.165 A 
HETATM    4  N   UNL     1     -43.837  56.599 -51.660  1.00  0.00    -0.144 NA
HETATM    5  N   UNL     1     -44.051  56.737 -52.979  1.00  0.00    -0.106 N 
HETATM    6  H   UNL     1     -44.957  56.534 -53.392  1.00  0.00     0.208 HD
ENDROOT
BRANCH   3   7
HETATM    7  C   UNL     1     -41.803  56.858 -50.279  1.00  0.00     0.083 C 
BRANCH   7   8
HETATM    8  C   UNL     1     -40.827  55.686 -50.194  1.00  0.00     0.012 C 
BRANCH   8   9
HETATM    9  C   UNL     1     -41.587  54.362 -50.098  1.00  0.00     0.041 C 
BRANCH   9  10
HETATM   10  C   UNL     1     -40.874  53.232 -50.768  1.00  0.00    -0.030 A 
HETATM   11  C   UNL     1     -40.620  53.088 -52.170  1.00  0.00    -0.002 A 
HETATM   12  C   UNL     1     -39.951  51.878 -52.354  1.00  0.00     0.042 A 
HETATM   13  C   UNL     1     -40.902  53.876 -53.305  1.00  0.00     0.014 A 
HETATM   14  C   UNL     1     -39.554  51.413 -53.613  1.00  0.00     0.030 A 
HETATM   15  N   UNL     1     -39.797  51.310 -51.111  1.00  0.00    -0.365 N 
HETATM   16  C   UNL     1     -39.849  52.213 -54.721  1.00  0.00     0.002 A 
HETATM   17  C   UNL     1     -40.511  53.429 -54.573  1.00  0.00     0.001 A 
HETATM   18  H   UNL     1     -39.346  50.424 -50.939  1.00  0.00     0.165 HD
HETATM   19  C   UNL     1     -40.347  52.115 -50.150  1.00  0.00     0.096 A 
ENDBRANCH   9  10
ENDBRANCH   8   9
ENDBRANCH   7   8
ENDBRANCH   3   7
BRANCH   1  20
HETATM   20  N   UNL     1     -42.813  57.355 -54.979  1.00  0.00    -0.152 N 
HETATM   21  C   UNL     1     -43.010  56.335 -55.883  1.00  0.00     0.270 C 
HETATM   22  O   UNL     1     -43.287  55.177 -55.579  1.00  0.00    -0.267 OA
HETATM   23  H   UNL     1     -42.495  58.273 -55.254  1.00  0.00     0.187 HD
BRANCH  21  24
HETATM   24  C   UNL     1     -42.828  56.700 -57.310  1.00  0.00     0.035 A 
HETATM   25  C   UNL     1     -43.376  55.861 -58.287  1.00  0.00     0.053 A 
HETATM   26  C   UNL     1     -43.231  56.163 -59.643  1.00  0.00     0.069 A 
HETATM   27  C   UNL     1     -42.543  57.318 -60.017  1.00  0.00     0.037 A 
HETATM   28  C   UNL     1     -42.008  58.169 -59.043  1.00  0.00     0.004 A 
HETATM   29  C   UNL     1     -42.149  57.863 -57.689  1.00  0.00     0.017 A 
BRANCH  26  30
HETATM   30  O   UNL     1     -43.798  55.253 -60.492  1.00  0.00    -0.356 OA
HETATM   31  C   UNL     1     -44.808  54.410 -59.956  1.00  0.00     0.210 C 
ENDBRANCH  26  30
ENDBRANCH  21  24
ENDBRANCH   1  20
TORSDOF 7
ENDMDL
MODEL 3
REMARK VINA RESULT:      -8.4      2.043      3.015
REMARK  7 active torsions:
REMARK  status: ('A' for Active; 'I' for Inactive)
REMARK    1  A    between atoms: O_2  and  C_3 
REMARK    2  A    between atoms: C_5  and  C_6 
REMARK       I    between atoms: C_6  and  N_7 
REMARK    3  A    between atoms: N_7  and  C_8 
REMARK    4  A    between atoms: C_10  and  C_11 
REMARK    5  A    between atoms: C_11  and  C_12 
REMARK    6  A    between atoms: C_12  and  C_13 
REMARK    7  A    between atoms: C_13  and  C_14 
ROOT
HETATM    1  C   UNL     1     -42.823  56.779 -53.489  1.00  0.00     0.725 A 
HETATM    2  N   UNL     1     -41.828  56.942 -52.651  1.00  0.00    -0.046 NA
HETATM    3  C   UNL     1     -42.342  56.482 -51.462  1.00  0.00     0.165 A 
HETATM    4  N   UNL     1     -43.607  56.046 -51.523  1.00  0.00    -0.144 NA
HETATM    5  N   UNL     1     -43.891  56.243 -52.822  1.00  0.00    -0.106 N 
HETATM    6  H   UNL     1     -44.795  55.990 -53.209  1.00  0.00     0.208 HD
ENDROOT
BRANCH   3   7
HETATM    7  C   UNL     1     -41.540  56.392 -50.212  1.00  0.00     0.083 C 
BRANCH   7   8
HETATM    8  C   UNL     1     -40.354  55.434 -50.305  1.00  0.00     0.012 C 
BRANCH   8   9
HETATM    9  C   UNL     1     -40.837  53.983 -50.301  1.00  0.00     0.041 C 
BRANCH   9  10
HETATM   10  C   UNL     1     -40.547  53.270 -51.583  1.00  0.00    -0.030 A 
HETATM   11  C   UNL     1     -40.158  51.900 -51.735  1.00  0.00    -0.002 A 
HETATM   12  C   UNL     1     -39.968  51.667 -53.097  1.00  0.00     0.042 A 
HETATM   13  C   UNL     1     -39.945  50.835 -50.836  1.00  0.00     0.014 A 
HETATM   14  C   UNL     1     -39.571  50.424 -53.606  1.00  0.00     0.030 A 
HETATM   15  N   UNL     1     -40.238  52.846 -53.750  1.00  0.00    -0.365 N 
HETATM   16  C   UNL     1     -39.365  49.386 -52.693  1.00  0.00     0.002 A 
HETATM   17  C   UNL     1     -39.550  49.584 -51.327  1.00  0.00     0.001 A 
HETATM   18  H   UNL     1     -40.180  52.973 -54.750  1.00  0.00     0.165 HD
HETATM   19  C   UNL     1     -40.588  53.817 -52.851  1.00  0.00     0.096 A 
ENDBRANCH   9  10
ENDBRANCH   8   9
ENDBRANCH   7   8
ENDBRANCH   3   7
BRANCH   1  20
HETATM   20  N   UNL     1     -42.800  57.081 -54.826  1.00  0.00    -0.152 N 
HETATM   21  C   UNL     1     -42.834  56.093 -55.785  1.00  0.00     0.270 C 
HETATM   22  O   UNL     1     -42.887  54.890 -55.545  1.00  0.00    -0.267 OA
HETATM   23  H   UNL     1     -42.662  58.056 -55.053  1.00  0.00     0.187 HD
BRANCH  21  24
HETATM   24  C   UNL     1     -42.762  56.563 -57.192  1.00  0.00     0.035 A 
HETATM   25  C   UNL     1     -43.258  55.726 -58.198  1.00  0.00     0.053 A 
HETATM   26  C   UNL     1     -43.213  56.125 -59.537  1.00  0.00     0.069 A 
HETATM   27  C   UNL     1     -42.678  57.372 -59.862  1.00  0.00     0.037 A 
HETATM   28  C   UNL     1     -42.197  58.218 -58.856  1.00  0.00     0.004 A 
HETATM   29  C   UNL     1     -42.237  57.817 -57.520  1.00  0.00     0.017 A 
BRANCH  26  30
HETATM   30  O   UNL     1     -43.714  55.209 -60.420  1.00  0.00    -0.356 OA
HETATM   31  C   UNL     1     -44.914  54.542 -60.050  1.00  0.00     0.210 C 
ENDBRANCH  26  30
ENDBRANCH  21  24
ENDBRANCH   1  20
TORSDOF 7
ENDMDL
MODEL 4
REMARK VINA RESULT:      -8.1      2.209      4.863
REMARK  7 active torsions:
REMARK  status: ('A' for Active; 'I' for Inactive)
REMARK    1  A    between atoms: O_2  and  C_3 
REMARK    2  A    between atoms: C_5  and  C_6 
REMARK       I    between atoms: C_6  and  N_7 
REMARK    3  A    between atoms: N_7  and  C_8 
REMARK    4  A    between atoms: C_10  and  C_11 
REMARK    5  A    between atoms: C_11  and  C_12 
REMARK    6  A    between atoms: C_12  and  C_13 
REMARK    7  A    between atoms: C_13  and  C_14 
ROOT
HETATM    1  C   UNL     1     -40.808  54.013 -54.542  1.00  0.00     0.725 A 
HETATM    2  N   UNL     1     -40.928  54.142 -53.244  1.00  0.00    -0.046 NA
HETATM    3  C   UNL     1     -40.419  52.960 -52.762  1.00  0.00     0.165 A 
HETATM    4  N   UNL     1     -39.992  52.104 -53.700  1.00  0.00    -0.144 NA
HETATM    5  N   UNL     1     -40.248  52.796 -54.823  1.00  0.00    -0.106 N 
HETATM    6  H   UNL     1     -40.017  52.421 -55.739  1.00  0.00     0.208 HD
ENDROOT
BRANCH   3   7
HETATM    7  C   UNL     1     -40.270  52.672 -51.310  1.00  0.00     0.083 C 
BRANCH   7   8
HETATM    8  C   UNL     1     -39.966  53.906 -50.462  1.00  0.00     0.012 C 
BRANCH   8   9
HETATM    9  C   UNL     1     -41.131  54.208 -49.519  1.00  0.00     0.041 C 
BRANCH   9  10
HETATM   10  C   UNL     1     -42.215  55.005 -50.172  1.00  0.00    -0.030 A 
HETATM   11  C   UNL     1     -42.147  56.377 -50.577  1.00  0.00    -0.002 A 
HETATM   12  C   UNL     1     -43.387  56.718 -51.116  1.00  0.00     0.042 A 
HETATM   13  C   UNL     1     -41.142  57.366 -50.529  1.00  0.00     0.014 A 
HETATM   14  C   UNL     1     -43.676  57.997 -51.607  1.00  0.00     0.030 A 
HETATM   15  N   UNL     1     -44.177  55.595 -51.050  1.00  0.00    -0.365 N 
HETATM   16  C   UNL     1     -42.663  58.958 -51.546  1.00  0.00     0.002 A 
HETATM   17  C   UNL     1     -41.412  58.650 -51.017  1.00  0.00     0.001 A 
HETATM   18  H   UNL     1     -45.134  55.549 -51.370  1.00  0.00     0.165 HD
HETATM   19  C   UNL     1     -43.484  54.559 -50.486  1.00  0.00     0.096 A 
ENDBRANCH   9  10
ENDBRANCH   8   9
ENDBRANCH   7   8
ENDBRANCH   3   7
BRANCH   1  20
HETATM   20  N   UNL     1     -41.169  54.949 -55.477  1.00  0.00    -0.152 N 
HETATM   21  C   UNL     1     -42.408  54.920 -56.078  1.00  0.00     0.270 C 
HETATM   22  O   UNL     1     -43.277  54.084 -55.844  1.00  0.00    -0.267 OA
HETATM   23  H   UNL     1     -40.443  55.591 -55.758  1.00  0.00     0.187 HD
BRANCH  21  24
HETATM   24  C   UNL     1     -42.648  55.969 -57.100  1.00  0.00     0.035 A 
HETATM   25  C   UNL     1     -43.073  55.572 -58.374  1.00  0.00     0.053 A 
HETATM   26  C   UNL     1     -43.313  56.523 -59.369  1.00  0.00     0.069 A 
HETATM   27  C   UNL     1     -43.136  57.876 -59.079  1.00  0.00     0.037 A 
HETATM   28  C   UNL     1     -42.728  58.278 -57.802  1.00  0.00     0.004 A 
HETATM   29  C   UNL     1     -42.483  57.327 -56.810  1.00  0.00     0.017 A 
BRANCH  26  30
HETATM   30  O   UNL     1     -43.706  56.002 -60.570  1.00  0.00    -0.356 OA
HETATM   31  C   UNL     1     -44.733  55.020 -60.545  1.00  0.00     0.210 C 
ENDBRANCH  26  30
ENDBRANCH  21  24
ENDBRANCH   1  20
TORSDOF 7
ENDMDL
MODEL 5
REMARK VINA RESULT:      -8.1      3.166      7.842
REMARK  7 active torsions:
REMARK  status: ('A' for Active; 'I' for Inactive)
REMARK    1  A    between atoms: O_2  and  C_3 
REMARK    2  A    between atoms: C_5  and  C_6 
REMARK       I    between atoms: C_6  and  N_7 
REMARK    3  A    between atoms: N_7  and  C_8 
REMARK    4  A    between atoms: C_10  and  C_11 
REMARK    5  A    between atoms: C_11  and  C_12 
REMARK    6  A    between atoms: C_12  and  C_13 
REMARK    7  A    between atoms: C_13  and  C_14 
ROOT
HETATM    1  C   UNL     1     -42.233  55.682 -56.323  1.00  0.00     0.725 A 
HETATM    2  N   UNL     1     -42.109  56.986 -56.296  1.00  0.00    -0.046 NA
HETATM    3  C   UNL     1     -43.061  57.410 -57.193  1.00  0.00     0.165 A 
HETATM    4  N   UNL     1     -43.766  56.430 -57.774  1.00  0.00    -0.144 NA
HETATM    5  N   UNL     1     -43.223  55.341 -57.204  1.00  0.00    -0.106 N 
HETATM    6  H   UNL     1     -43.557  54.407 -57.424  1.00  0.00     0.208 HD
ENDROOT
BRANCH   3   7
HETATM    7  C   UNL     1     -43.356  58.846 -57.446  1.00  0.00     0.083 C 
BRANCH   7   8
HETATM    8  C   UNL     1     -43.078  59.755 -56.250  1.00  0.00     0.012 C 
BRANCH   8   9
HETATM    9  C   UNL     1     -44.256  59.730 -55.275  1.00  0.00     0.041 C 
BRANCH   9  10
HETATM   10  C   UNL     1     -44.107  58.690 -54.211  1.00  0.00    -0.030 A 
HETATM   11  C   UNL     1     -43.098  58.637 -53.196  1.00  0.00    -0.002 A 
HETATM   12  C   UNL     1     -43.323  57.488 -52.439  1.00  0.00     0.042 A 
HETATM   13  C   UNL     1     -42.007  59.463 -52.854  1.00  0.00     0.014 A 
HETATM   14  C   UNL     1     -42.512  57.119 -51.359  1.00  0.00     0.030 A 
HETATM   15  N   UNL     1     -44.431  56.868 -52.967  1.00  0.00    -0.365 N 
HETATM   16  C   UNL     1     -41.436  57.954 -51.043  1.00  0.00     0.002 A 
HETATM   17  C   UNL     1     -41.185  59.111 -51.776  1.00  0.00     0.001 A 
HETATM   18  H   UNL     1     -44.826  56.007 -52.617  1.00  0.00     0.165 HD
HETATM   19  C   UNL     1     -44.911  57.581 -54.032  1.00  0.00     0.096 A 
ENDBRANCH   9  10
ENDBRANCH   8   9
ENDBRANCH   7   8
ENDBRANCH   3   7
BRANCH   1  20
HETATM   20  N   UNL     1     -41.501  54.793 -55.577  1.00  0.00    -0.152 N 
HETATM   21  C   UNL     1     -42.038  54.174 -54.470  1.00  0.00     0.270 C 
HETATM   22  O   UNL     1     -43.182  54.350 -54.059  1.00  0.00    -0.267 OA
HETATM   23  H   UNL     1     -40.530  54.700 -55.836  1.00  0.00     0.187 HD
BRANCH  21  24
HETATM   24  C   UNL     1     -41.119  53.268 -53.735  1.00  0.00     0.035 A 
HETATM   25  C   UNL     1     -40.851  53.543 -52.389  1.00  0.00     0.053 A 
HETATM   26  C   UNL     1     -39.994  52.720 -51.655  1.00  0.00     0.069 A 
HETATM   27  C   UNL     1     -39.414  51.612 -52.273  1.00  0.00     0.037 A 
HETATM   28  C   UNL     1     -39.693  51.324 -53.614  1.00  0.00     0.004 A 
HETATM   29  C   UNL     1     -40.545  52.150 -54.348  1.00  0.00     0.017 A 
BRANCH  26  30
HETATM   30  O   UNL     1     -39.804  53.110 -50.358  1.00  0.00    -0.356 OA
HETATM   31  C   UNL     1     -40.220  54.424 -50.010  1.00  0.00     0.210 C 
ENDBRANCH  26  30
ENDBRANCH  21  24
ENDBRANCH   1  20
TORSDOF 7
ENDMDL
MODEL 6
REMARK VINA RESULT:      -8.1      2.641      8.527
REMARK  7 active torsions:
REMARK  status: ('A' for Active; 'I' for Inactive)
REMARK    1  A    between atoms: O_2  and  C_3 
REMARK    2  A    between atoms: C_5  and  C_6 
REMARK       I    between atoms: C_6  and  N_7 
REMARK    3  A    between atoms: N_7  and  C_8 
REMARK    4  A    between atoms: C_10  and  C_11 
REMARK    5  A    between atoms: C_11  and  C_12 
REMARK    6  A    between atoms: C_12  and  C_13 
REMARK    7  A    between atoms: C_13  and  C_14 
ROOT
HETATM    1  C   UNL     1     -43.415  56.338 -54.101  1.00  0.00     0.725 A 
HETATM    2  N   UNL     1     -43.124  57.546 -54.517  1.00  0.00    -0.046 NA
HETATM    3  C   UNL     1     -44.346  58.051 -54.895  1.00  0.00     0.165 A 
HETATM    4  N   UNL     1     -45.378  57.212 -54.734  1.00  0.00    -0.144 NA
HETATM    5  N   UNL     1     -44.762  56.131 -54.227  1.00  0.00    -0.106 N 
HETATM    6  H   UNL     1     -45.284  55.297 -53.970  1.00  0.00     0.208 HD
ENDROOT
BRANCH   3   7
HETATM    7  C   UNL     1     -44.536  59.448 -55.368  1.00  0.00     0.083 C 
BRANCH   7   8
HETATM    8  C   UNL     1     -43.545  59.875 -56.450  1.00  0.00     0.012 C 
BRANCH   8   9
HETATM    9  C   UNL     1     -44.081  59.516 -57.837  1.00  0.00     0.041 C 
BRANCH   9  10
HETATM   10  C   UNL     1     -43.636  58.165 -58.299  1.00  0.00    -0.030 A 
HETATM   11  C   UNL     1     -44.422  57.196 -59.001  1.00  0.00    -0.002 A 
HETATM   12  C   UNL     1     -43.620  56.075 -59.209  1.00  0.00     0.042 A 
HETATM   13  C   UNL     1     -45.750  57.167 -59.477  1.00  0.00     0.014 A 
HETATM   14  C   UNL     1     -44.076  54.924 -59.864  1.00  0.00     0.030 A 
HETATM   15  N   UNL     1     -42.389  56.353 -58.661  1.00  0.00    -0.365 N 
HETATM   16  C   UNL     1     -45.396  54.922 -60.324  1.00  0.00     0.002 A 
HETATM   17  C   UNL     1     -46.223  56.027 -60.136  1.00  0.00     0.001 A 
HETATM   18  H   UNL     1     -41.605  55.716 -58.663  1.00  0.00     0.165 HD
HETATM   19  C   UNL     1     -42.387  57.606 -58.112  1.00  0.00     0.096 A 
ENDBRANCH   9  10
ENDBRANCH   8   9
ENDBRANCH   7   8
ENDBRANCH   3   7
BRANCH   1  20
HETATM   20  N   UNL     1     -42.520  55.426 -53.603  1.00  0.00    -0.152 N 
HETATM   21  C   UNL     1     -42.221  54.268 -54.286  1.00  0.00     0.270 C 
HETATM   22  O   UNL     1     -42.709  53.952 -55.368  1.00  0.00    -0.267 OA
HETATM   23  H   UNL     1     -42.175  55.614 -52.672  1.00  0.00     0.187 HD
BRANCH  21  24
HETATM   24  C   UNL     1     -41.268  53.354 -53.610  1.00  0.00     0.035 A 
HETATM   25  C   UNL     1     -40.995  53.563 -52.253  1.00  0.00     0.053 A 
HETATM   26  C   UNL     1     -40.105  52.728 -51.572  1.00  0.00     0.069 A 
HETATM   27  C   UNL     1     -39.498  51.674 -52.255  1.00  0.00     0.037 A 
HETATM   28  C   UNL     1     -39.781  51.452 -53.607  1.00  0.00     0.004 A 
HETATM   29  C   UNL     1     -40.665  52.290 -54.288  1.00  0.00     0.017 A 
BRANCH  26  30
HETATM   30  O   UNL     1     -39.915  53.052 -50.257  1.00  0.00    -0.356 OA
HETATM   31  C   UNL     1     -40.163  54.400 -49.880  1.00  0.00     0.210 C 
ENDBRANCH  26  30
ENDBRANCH  21  24
ENDBRANCH   1  20
TORSDOF 7
ENDMDL
MODEL 7
REMARK VINA RESULT:      -7.9      3.197      8.592
REMARK  7 active torsions:
REMARK  status: ('A' for Active; 'I' for Inactive)
REMARK    1  A    between atoms: O_2  and  C_3 
REMARK    2  A    between atoms: C_5  and  C_6 
REMARK       I    between atoms: C_6  and  N_7 
REMARK    3  A    between atoms: N_7  and  C_8 
REMARK    4  A    between atoms: C_10  and  C_11 
REMARK    5  A    between atoms: C_11  and  C_12 
REMARK    6  A    between atoms: C_12  and  C_13 
REMARK    7  A    between atoms: C_13  and  C_14 
ROOT
HETATM    1  C   UNL     1     -43.338  56.165 -53.711  1.00  0.00     0.725 A 
HETATM    2  N   UNL     1     -43.122  57.455 -53.637  1.00  0.00    -0.046 NA
HETATM    3  C   UNL     1     -44.251  57.996 -54.205  1.00  0.00     0.165 A 
HETATM    4  N   UNL     1     -45.154  57.102 -54.628  1.00  0.00    -0.144 NA
HETATM    5  N   UNL     1     -44.553  55.946 -54.303  1.00  0.00    -0.106 N 
HETATM    6  H   UNL     1     -44.999  55.050 -54.481  1.00  0.00     0.208 HD
ENDROOT
BRANCH   3   7
HETATM    7  C   UNL     1     -44.503  59.461 -54.274  1.00  0.00     0.083 C 
BRANCH   7   8
HETATM    8  C   UNL     1     -44.199  60.077 -55.639  1.00  0.00     0.012 C 
BRANCH   8   9
HETATM    9  C   UNL     1     -42.709  59.950 -55.962  1.00  0.00     0.041 C 
BRANCH   9  10
HETATM   10  C   UNL     1     -42.455  59.580 -57.389  1.00  0.00    -0.030 A 
HETATM   11  C   UNL     1     -42.592  58.282 -57.977  1.00  0.00    -0.002 A 
HETATM   12  C   UNL     1     -42.229  58.388 -59.319  1.00  0.00     0.042 A 
HETATM   13  C   UNL     1     -42.989  57.020 -57.488  1.00  0.00     0.014 A 
HETATM   14  C   UNL     1     -42.238  57.297 -60.197  1.00  0.00     0.030 A 
HETATM   15  N   UNL     1     -41.891  59.702 -59.542  1.00  0.00    -0.365 N 
HETATM   16  C   UNL     1     -42.634  56.058 -59.686  1.00  0.00     0.002 A 
HETATM   17  C   UNL     1     -43.006  55.918 -58.351  1.00  0.00     0.001 A 
HETATM   18  H   UNL     1     -41.585  60.071 -60.431  1.00  0.00     0.165 HD
HETATM   19  C   UNL     1     -42.023  60.428 -58.390  1.00  0.00     0.096 A 
ENDBRANCH   9  10
ENDBRANCH   8   9
ENDBRANCH   7   8
ENDBRANCH   3   7
BRANCH   1  20
HETATM   20  N   UNL     1     -42.494  55.185 -53.257  1.00  0.00    -0.152 N 
HETATM   21  C   UNL     1     -41.905  54.289 -54.121  1.00  0.00     0.270 C 
HETATM   22  O   UNL     1     -42.073  54.281 -55.338  1.00  0.00    -0.267 OA
HETATM   23  H   UNL     1     -42.412  55.108 -52.253  1.00  0.00     0.187 HD
BRANCH  21  24
HETATM   24  C   UNL     1     -41.048  53.256 -53.487  1.00  0.00     0.035 A 
HETATM   25  C   UNL     1     -40.943  53.245 -52.091  1.00  0.00     0.053 A 
HETATM   26  C   UNL     1     -40.149  52.293 -51.448  1.00  0.00     0.069 A 
HETATM   27  C   UNL     1     -39.468  51.342 -52.209  1.00  0.00     0.037 A 
HETATM   28  C   UNL     1     -39.584  51.340 -53.604  1.00  0.00     0.004 A 
HETATM   29  C   UNL     1     -40.373  52.295 -54.246  1.00  0.00     0.017 A 
BRANCH  26  30
HETATM   30  O   UNL     1     -40.119  52.404 -50.085  1.00  0.00    -0.356 OA
HETATM   31  C   UNL     1     -40.504  53.654 -49.529  1.00  0.00     0.210 C 
ENDBRANCH  26  30
ENDBRANCH  21  24
ENDBRANCH   1  20
TORSDOF 7
ENDMDL
MODEL 8
REMARK VINA RESULT:      -7.9      2.741      8.923
REMARK  7 active torsions:
REMARK  status: ('A' for Active; 'I' for Inactive)
REMARK    1  A    between atoms: O_2  and  C_3 
REMARK    2  A    between atoms: C_5  and  C_6 
REMARK       I    between atoms: C_6  and  N_7 
REMARK    3  A    between atoms: N_7  and  C_8 
REMARK    4  A    between atoms: C_10  and  C_11 
REMARK    5  A    between atoms: C_11  and  C_12 
REMARK    6  A    between atoms: C_12  and  C_13 
REMARK    7  A    between atoms: C_13  and  C_14 
ROOT
HETATM    1  C   UNL     1     -43.380  56.385 -54.286  1.00  0.00     0.725 A 
HETATM    2  N   UNL     1     -43.069  57.557 -54.784  1.00  0.00    -0.046 NA
HETATM    3  C   UNL     1     -44.289  58.078 -55.146  1.00  0.00     0.165 A 
HETATM    4  N   UNL     1     -45.339  57.284 -54.897  1.00  0.00    -0.144 NA
HETATM    5  N   UNL     1     -44.737  56.214 -54.350  1.00  0.00    -0.106 N 
HETATM    6  H   UNL     1     -45.273  55.415 -54.025  1.00  0.00     0.208 HD
ENDROOT
BRANCH   3   7
HETATM    7  C   UNL     1     -44.456  59.451 -55.695  1.00  0.00     0.083 C 
BRANCH   7   8
HETATM    8  C   UNL     1     -45.547  59.564 -56.758  1.00  0.00     0.012 C 
BRANCH   8   9
HETATM    9  C   UNL     1     -44.926  59.724 -58.146  1.00  0.00     0.041 C 
BRANCH   9  10
HETATM   10  C   UNL     1     -45.358  58.657 -59.101  1.00  0.00    -0.030 A 
HETATM   11  C   UNL     1     -44.844  57.324 -59.190  1.00  0.00    -0.002 A 
HETATM   12  C   UNL     1     -45.513  56.683 -60.232  1.00  0.00     0.042 A 
HETATM   13  C   UNL     1     -43.863  56.601 -58.479  1.00  0.00     0.014 A 
HETATM   14  C   UNL     1     -45.250  55.360 -60.604  1.00  0.00     0.030 A 
HETATM   15  N   UNL     1     -46.406  57.589 -60.754  1.00  0.00    -0.365 N 
HETATM   16  C   UNL     1     -44.272  54.667 -59.885  1.00  0.00     0.002 A 
HETATM   17  C   UNL     1     -43.588  55.275 -58.835  1.00  0.00     0.001 A 
HETATM   18  H   UNL     1     -47.028  57.399 -61.526  1.00  0.00     0.165 HD
HETATM   19  C   UNL     1     -46.323  58.779 -60.083  1.00  0.00     0.096 A 
ENDBRANCH   9  10
ENDBRANCH   8   9
ENDBRANCH   7   8
ENDBRANCH   3   7
BRANCH   1  20
HETATM   20  N   UNL     1     -42.494  55.476 -53.768  1.00  0.00    -0.152 N 
HETATM   21  C   UNL     1     -42.304  54.246 -54.357  1.00  0.00     0.270 C 
HETATM   22  O   UNL     1     -42.886  53.858 -55.366  1.00  0.00    -0.267 OA
HETATM   23  H   UNL     1     -42.071  55.729 -52.886  1.00  0.00     0.187 HD
BRANCH  21  24
HETATM   24  C   UNL     1     -41.346  53.347 -53.665  1.00  0.00     0.035 A 
HETATM   25  C   UNL     1     -41.043  53.604 -52.323  1.00  0.00     0.053 A 
HETATM   26  C   UNL     1     -40.148  52.786 -51.629  1.00  0.00     0.069 A 
HETATM   27  C   UNL     1     -39.566  51.700 -52.283  1.00  0.00     0.037 A 
HETATM   28  C   UNL     1     -39.879  51.430 -53.620  1.00  0.00     0.004 A 
HETATM   29  C   UNL     1     -40.769  52.251 -54.314  1.00  0.00     0.017 A 
BRANCH  26  30
HETATM   30  O   UNL     1     -39.927  53.157 -50.332  1.00  0.00    -0.356 OA
HETATM   31  C   UNL     1     -40.740  54.199 -49.809  1.00  0.00     0.210 C 
ENDBRANCH  26  30
ENDBRANCH  21  24
ENDBRANCH   1  20
TORSDOF 7
ENDMDL
MODEL 9
REMARK VINA RESULT:      -7.8      4.875      7.333
REMARK  7 active torsions:
REMARK  status: ('A' for Active; 'I' for Inactive)
REMARK    1  A    between atoms: O_2  and  C_3 
REMARK    2  A    between atoms: C_5  and  C_6 
REMARK       I    between atoms: C_6  and  N_7 
REMARK    3  A    between atoms: N_7  and  C_8 
REMARK    4  A    between atoms: C_10  and  C_11 
REMARK    5  A    between atoms: C_11  and  C_12 
REMARK    6  A    between atoms: C_12  and  C_13 
REMARK    7  A    between atoms: C_13  and  C_14 
ROOT
HETATM    1  C   UNL     1     -43.971  57.801 -52.842  1.00  0.00     0.725 A 
HETATM    2  N   UNL     1     -43.477  56.636 -52.502  1.00  0.00    -0.046 NA
HETATM    3  C   UNL     1     -43.770  55.842 -53.585  1.00  0.00     0.165 A 
HETATM    4  N   UNL     1     -44.423  56.460 -54.578  1.00  0.00    -0.144 NA
HETATM    5  N   UNL     1     -44.538  57.704 -54.084  1.00  0.00    -0.106 N 
HETATM    6  H   UNL     1     -44.984  58.445 -54.617  1.00  0.00     0.208 HD
ENDROOT
BRANCH   3   7
HETATM    7  C   UNL     1     -43.329  54.426 -53.697  1.00  0.00     0.083 C 
BRANCH   7   8
HETATM    8  C   UNL     1     -42.192  54.209 -54.694  1.00  0.00     0.012 C 
BRANCH   8   9
HETATM    9  C   UNL     1     -40.845  54.540 -54.050  1.00  0.00     0.041 C 
BRANCH   9  10
HETATM   10  C   UNL     1     -40.458  53.569 -52.981  1.00  0.00    -0.030 A 
HETATM   11  C   UNL     1     -40.180  52.174 -53.147  1.00  0.00    -0.002 A 
HETATM   12  C   UNL     1     -39.887  51.651 -51.888  1.00  0.00     0.042 A 
HETATM   13  C   UNL     1     -40.155  51.304 -54.257  1.00  0.00     0.014 A 
HETATM   14  C   UNL     1     -39.575  50.302 -51.680  1.00  0.00     0.030 A 
HETATM   15  N   UNL     1     -39.976  52.688 -50.990  1.00  0.00    -0.365 N 
HETATM   16  C   UNL     1     -39.559  49.461 -52.797  1.00  0.00     0.002 A 
HETATM   17  C   UNL     1     -39.842  49.952 -54.069  1.00  0.00     0.001 A 
HETATM   18  H   UNL     1     -39.816  52.601 -49.997  1.00  0.00     0.165 HD
HETATM   19  C   UNL     1     -40.318  53.846 -51.634  1.00  0.00     0.096 A 
ENDBRANCH   9  10
ENDBRANCH   8   9
ENDBRANCH   7   8
ENDBRANCH   3   7
BRANCH   1  20
HETATM   20  N   UNL     1     -43.918  58.944 -52.087  1.00  0.00    -0.152 N 
HETATM   21  C   UNL     1     -44.712  59.104 -50.973  1.00  0.00     0.270 C 
HETATM   22  O   UNL     1     -45.515  58.270 -50.563  1.00  0.00    -0.267 OA
HETATM   23  H   UNL     1     -43.337  59.685 -52.452  1.00  0.00     0.187 HD
BRANCH  21  24
HETATM   24  C   UNL     1     -44.581  60.408 -50.275  1.00  0.00     0.035 A 
HETATM   25  C   UNL     1     -45.432  60.673 -49.196  1.00  0.00     0.053 A 
HETATM   26  C   UNL     1     -45.346  61.885 -48.507  1.00  0.00     0.069 A 
HETATM   27  C   UNL     1     -44.394  62.828 -48.896  1.00  0.00     0.037 A 
HETATM   28  C   UNL     1     -43.529  62.559 -49.964  1.00  0.00     0.004 A 
HETATM   29  C   UNL     1     -43.620  61.350 -50.655  1.00  0.00     0.017 A 
BRANCH  26  30
HETATM   30  O   UNL     1     -46.246  62.024 -47.487  1.00  0.00    -0.356 OA
HETATM   31  C   UNL     1     -46.320  60.967 -46.540  1.00  0.00     0.210 C 
ENDBRANCH  26  30
ENDBRANCH  21  24
ENDBRANCH   1  20
TORSDOF 7
ENDMDL
MODEL 10
REMARK VINA RESULT:      -7.7      3.277      9.001
REMARK  7 active torsions:
REMARK  status: ('A' for Active; 'I' for Inactive)
REMARK    1  A    between atoms: O_2  and  C_3 
REMARK    2  A    between atoms: C_5  and  C_6 
REMARK       I    between atoms: C_6  and  N_7 
REMARK    3  A    between atoms: N_7  and  C_8 
REMARK    4  A    between atoms: C_10  and  C_11 
REMARK    5  A    between atoms: C_11  and  C_12 
REMARK    6  A    between atoms: C_12  and  C_13 
REMARK    7  A    between atoms: C_13  and  C_14 
ROOT
HETATM    1  C   UNL     1     -41.080  57.449 -54.147  1.00  0.00     0.725 A 
HETATM    2  N   UNL     1     -41.922  58.046 -54.955  1.00  0.00    -0.046 NA
HETATM    3  C   UNL     1     -41.835  59.365 -54.580  1.00  0.00     0.165 A 
HETATM    4  N   UNL     1     -40.981  59.612 -53.577  1.00  0.00    -0.144 NA
HETATM    5  N   UNL     1     -40.513  58.379 -53.320  1.00  0.00    -0.106 N 
HETATM    6  H   UNL     1     -39.812  58.220 -52.601  1.00  0.00     0.208 HD
ENDROOT
BRANCH   3   7
HETATM    7  C   UNL     1     -42.562  60.458 -55.279  1.00  0.00     0.083 C 
BRANCH   7   8
HETATM    8  C   UNL     1     -42.643  60.277 -56.794  1.00  0.00     0.012 C 
BRANCH   8   9
HETATM    9  C   UNL     1     -44.098  60.113 -57.236  1.00  0.00     0.041 C 
BRANCH   9  10
HETATM   10  C   UNL     1     -44.235  59.331 -58.503  1.00  0.00    -0.030 A 
HETATM   11  C   UNL     1     -43.985  57.933 -58.681  1.00  0.00    -0.002 A 
HETATM   12  C   UNL     1     -44.213  57.633 -60.024  1.00  0.00     0.042 A 
HETATM   13  C   UNL     1     -43.578  56.891 -57.821  1.00  0.00     0.014 A 
HETATM   14  C   UNL     1     -44.053  56.346 -60.552  1.00  0.00     0.030 A 
HETATM   15  N   UNL     1     -44.596  58.802 -60.638  1.00  0.00    -0.365 N 
HETATM   16  C   UNL     1     -43.647  55.333 -59.679  1.00  0.00     0.002 A 
HETATM   17  C   UNL     1     -43.414  55.598 -58.332  1.00  0.00     0.001 A 
HETATM   18  H   UNL     1     -44.825  58.884 -61.618  1.00  0.00     0.165 HD
HETATM   19  C   UNL     1     -44.613  59.830 -59.735  1.00  0.00     0.096 A 
ENDBRANCH   9  10
ENDBRANCH   8   9
ENDBRANCH   7   8
ENDBRANCH   3   7
BRANCH   1  20
HETATM   20  N   UNL     1     -40.797  56.107 -54.136  1.00  0.00    -0.152 N 
HETATM   21  C   UNL     1     -40.948  55.352 -52.994  1.00  0.00     0.270 C 
HETATM   22  O   UNL     1     -41.337  55.790 -51.915  1.00  0.00    -0.267 OA
HETATM   23  H   UNL     1     -40.386  55.739 -54.982  1.00  0.00     0.187 HD
BRANCH  21  24
HETATM   24  C   UNL     1     -40.565  53.923 -53.116  1.00  0.00     0.035 A 
HETATM   25  C   UNL     1     -40.359  53.187 -51.943  1.00  0.00     0.053 A 
HETATM   26  C   UNL     1     -39.998  51.839 -52.007  1.00  0.00     0.069 A 
HETATM   27  C   UNL     1     -39.856  51.227 -53.252  1.00  0.00     0.037 A 
HETATM   28  C   UNL     1     -40.078  51.955 -54.427  1.00  0.00     0.004 A 
HETATM   29  C   UNL     1     -40.433  53.303 -54.362  1.00  0.00     0.017 A 
BRANCH  26  30
HETATM   30  O   UNL     1     -39.811  51.243 -50.790  1.00  0.00    -0.356 OA
HETATM   31  C   UNL     1     -39.582  49.840 -50.786  1.00  0.00     0.210 C 
ENDBRANCH  26  30
ENDBRANCH  21  24
ENDBRANCH   1  20
TORSDOF 7
ENDMDL
