MODEL 1
REMARK VINA RESULT:      -8.7      0.000      0.000
REMARK  5 active torsions:
REMARK  status: ('A' for Active; 'I' for Inactive)
REMARK    1  A    between atoms: C_2  and  O_3 
REMARK    2  A    between atoms: C_2  and  C_4 
REMARK    3  A    between atoms: C_7  and  N_8 
REMARK    4  A    between atoms: N_12  and  C_13 
REMARK    5  A    between atoms: C_13  and  C_14 
ROOT
HETATM    1  N   UNL     1     -42.694  56.117 -55.205  1.00  0.00    -0.367 N 
HETATM    2  C   UNL     1     -43.604  55.511 -54.204  1.00  0.00     0.127 C 
HETATM    3  C   UNL     1     -42.883  54.507 -53.297  1.00  0.00     0.068 C 
HETATM    4  C   UNL     1     -41.456  54.944 -52.883  1.00  0.00     0.206 C 
HETATM    5  N   UNL     1     -40.725  53.886 -52.060  1.00  0.00     0.105 N 
HETATM    6  C   UNL     1     -41.105  53.890 -50.603  1.00  0.00     0.280 C 
HETATM    7  C   UNL     1     -40.785  55.204 -49.866  1.00  0.00     0.089 C 
HETATM    8  C   UNL     1     -41.255  56.311 -50.698  1.00  0.00     0.037 A 
HETATM    9  C   UNL     1     -41.559  56.214 -52.036  1.00  0.00     0.072 A 
HETATM   10  N   UNL     1     -41.899  57.500 -52.433  1.00  0.00    -0.352 N 
HETATM   11  H   UNL     1     -42.123  57.774 -53.388  1.00  0.00     0.166 HD
HETATM   12  C   UNL     1     -41.811  58.351 -51.403  1.00  0.00     0.181 A 
HETATM   13  N   UNL     1     -41.442  57.629 -50.341  1.00  0.00    -0.354 N 
HETATM   14  H   UNL     1     -41.279  58.014 -49.412  1.00  0.00     0.166 HD
HETATM   15  C   UNL     1     -40.617  55.339 -54.137  1.00  0.00     0.068 C 
HETATM   16  C   UNL     1     -41.436  55.392 -55.428  1.00  0.00     0.127 C 
ENDROOT
BRANCH   5  17
HETATM   17  C   UNL     1     -40.847  52.471 -52.518  1.00  0.00     0.277 C 
BRANCH  17  18
HETATM   18  C   UNL     1     -39.566  51.615 -52.558  1.00  0.00     0.006 C 
HETATM   19  C   UNL     1     -39.495  50.648 -51.372  1.00  0.00     0.011 C 
HETATM   20  C   UNL     1     -39.516  50.815 -53.865  1.00  0.00     0.011 C 
ENDBRANCH  17  18
ENDBRANCH   5  17
BRANCH   1  21
HETATM   21  C   UNL     1     -43.386  56.581 -56.342  1.00  0.00     0.103 A 
HETATM   22  N   UNL     1     -43.339  55.942 -57.520  1.00  0.00    -0.344 N 
HETATM   23  C   UNL     1     -43.986  56.334 -58.636  1.00  0.00     0.039 A 
HETATM   24  H   UNL     1     -42.827  55.065 -57.640  1.00  0.00     0.167 HD
HETATM   25  C   UNL     1     -44.758  57.490 -58.610  1.00  0.00     0.028 A 
HETATM   26  C   UNL     1     -44.836  58.211 -57.426  1.00  0.00     0.006 A 
HETATM   27  C   UNL     1     -44.154  57.760 -56.296  1.00  0.00     0.048 A 
BRANCH  23  28
HETATM   28  C   UNL     1     -43.820  55.432 -59.823  1.00  0.00     0.163 C 
HETATM   29  C   UNL     1     -44.794  54.264 -59.823  1.00  0.00     0.046 C 
BRANCH  28  30
HETATM   30  O   UNL     1     -44.090  56.269 -60.965  1.00  0.00    -0.390 OA
HETATM   31  H   UNL     1     -43.226  56.416 -61.408  1.00  0.00     0.210 HD
ENDBRANCH  28  30
ENDBRANCH  23  28
ENDBRANCH   1  21
TORSDOF 5
ENDMDL
MODEL 2
REMARK VINA RESULT:      -8.0      2.892      6.921
REMARK  5 active torsions:
REMARK  status: ('A' for Active; 'I' for Inactive)
REMARK    1  A    between atoms: C_2  and  O_3 
REMARK    2  A    between atoms: C_2  and  C_4 
REMARK    3  A    between atoms: C_7  and  N_8 
REMARK    4  A    between atoms: N_12  and  C_13 
REMARK    5  A    between atoms: C_13  and  C_14 
ROOT
HETATM    1  N   UNL     1     -41.787  54.338 -53.464  1.00  0.00    -0.367 N 
HETATM    2  C   UNL     1     -41.097  55.643 -53.594  1.00  0.00     0.127 C 
HETATM    3  C   UNL     1     -41.653  56.482 -54.750  1.00  0.00     0.068 C 
HETATM    4  C   UNL     1     -43.193  56.400 -54.903  1.00  0.00     0.206 C 
HETATM    5  N   UNL     1     -43.710  57.167 -56.117  1.00  0.00     0.105 N 
HETATM    6  C   UNL     1     -43.854  58.646 -55.878  1.00  0.00     0.280 C 
HETATM    7  C   UNL     1     -44.852  59.017 -54.766  1.00  0.00     0.089 C 
HETATM    8  C   UNL     1     -44.576  58.161 -53.612  1.00  0.00     0.037 A 
HETATM    9  C   UNL     1     -43.841  57.000 -53.653  1.00  0.00     0.072 A 
HETATM   10  N   UNL     1     -43.886  56.485 -52.364  1.00  0.00    -0.352 N 
HETATM   11  H   UNL     1     -43.480  55.597 -52.078  1.00  0.00     0.166 HD
HETATM   12  C   UNL     1     -44.608  57.281 -51.565  1.00  0.00     0.181 A 
HETATM   13  N   UNL     1     -45.011  58.311 -52.312  1.00  0.00    -0.354 N 
HETATM   14  H   UNL     1     -45.595  59.075 -51.974  1.00  0.00     0.166 HD
HETATM   15  C   UNL     1     -43.661  54.914 -54.952  1.00  0.00     0.068 C 
HETATM   16  C   UNL     1     -42.547  53.911 -54.646  1.00  0.00     0.127 C 
ENDROOT
BRANCH   5  17
HETATM   17  C   UNL     1     -42.939  57.023 -57.386  1.00  0.00     0.277 C 
BRANCH  17  18
HETATM   18  C   UNL     1     -43.585  56.223 -58.535  1.00  0.00     0.006 C 
HETATM   19  C   UNL     1     -44.846  56.912 -59.064  1.00  0.00     0.011 C 
HETATM   20  C   UNL     1     -42.580  56.059 -59.682  1.00  0.00     0.011 C 
ENDBRANCH  17  18
ENDBRANCH   5  17
BRANCH   1  21
HETATM   21  C   UNL     1     -40.983  53.371 -52.825  1.00  0.00     0.103 A 
HETATM   22  N   UNL     1     -40.833  52.130 -53.311  1.00  0.00    -0.344 N 
HETATM   23  C   UNL     1     -40.072  51.170 -52.748  1.00  0.00     0.039 A 
HETATM   24  H   UNL     1     -41.266  51.837 -54.190  1.00  0.00     0.167 HD
HETATM   25  C   UNL     1     -39.389  51.441 -51.569  1.00  0.00     0.028 A 
HETATM   26  C   UNL     1     -39.514  52.701 -51.001  1.00  0.00     0.006 A 
HETATM   27  C   UNL     1     -40.307  53.664 -51.625  1.00  0.00     0.048 A 
BRANCH  23  28
HETATM   28  C   UNL     1     -40.021  49.872 -53.500  1.00  0.00     0.163 C 
HETATM   29  C   UNL     1     -39.245  49.969 -54.804  1.00  0.00     0.046 C 
BRANCH  28  30
HETATM   30  O   UNL     1     -39.341  48.959 -52.615  1.00  0.00    -0.390 OA
HETATM   31  H   UNL     1     -38.412  48.913 -52.929  1.00  0.00     0.210 HD
ENDBRANCH  28  30
ENDBRANCH  23  28
ENDBRANCH   1  21
TORSDOF 5
ENDMDL
MODEL 3
REMARK VINA RESULT:      -8.0      3.097      7.184
REMARK  5 active torsions:
REMARK  status: ('A' for Active; 'I' for Inactive)
REMARK    1  A    between atoms: C_2  and  O_3 
REMARK    2  A    between atoms: C_2  and  C_4 
REMARK    3  A    between atoms: C_7  and  N_8 
REMARK    4  A    between atoms: N_12  and  C_13 
REMARK    5  A    between atoms: C_13  and  C_14 
ROOT
HETATM    1  N   UNL     1     -41.209  53.716 -53.829  1.00  0.00    -0.367 N 
HETATM    2  C   UNL     1     -42.671  53.707 -53.582  1.00  0.00     0.127 C 
HETATM    3  C   UNL     1     -43.193  55.078 -53.137  1.00  0.00     0.068 C 
HETATM    4  C   UNL     1     -42.539  56.271 -53.877  1.00  0.00     0.206 C 
HETATM    5  N   UNL     1     -43.006  57.625 -53.350  1.00  0.00     0.105 N 
HETATM    6  C   UNL     1     -44.335  58.061 -53.906  1.00  0.00     0.280 C 
HETATM    7  C   UNL     1     -44.355  58.245 -55.435  1.00  0.00     0.089 C 
HETATM    8  C   UNL     1     -43.712  57.075 -56.035  1.00  0.00     0.037 A 
HETATM    9  C   UNL     1     -42.907  56.189 -55.360  1.00  0.00     0.072 A 
HETATM   10  N   UNL     1     -42.468  55.283 -56.316  1.00  0.00    -0.352 N 
HETATM   11  H   UNL     1     -41.806  54.529 -56.144  1.00  0.00     0.166 HD
HETATM   12  C   UNL     1     -42.971  55.587 -57.519  1.00  0.00     0.181 A 
HETATM   13  N   UNL     1     -43.745  56.662 -57.350  1.00  0.00    -0.354 N 
HETATM   14  H   UNL     1     -44.251  57.132 -58.100  1.00  0.00     0.166 HD
HETATM   15  C   UNL     1     -40.984  56.167 -53.820  1.00  0.00     0.068 C 
HETATM   16  C   UNL     1     -40.480  54.845 -53.237  1.00  0.00     0.127 C 
ENDROOT
BRANCH   5  17
HETATM   17  C   UNL     1     -43.105  57.776 -51.869  1.00  0.00     0.277 C 
BRANCH  17  18
HETATM   18  C   UNL     1     -42.002  58.578 -51.150  1.00  0.00     0.006 C 
HETATM   19  C   UNL     1     -40.981  57.656 -50.478  1.00  0.00     0.011 C 
HETATM   20  C   UNL     1     -41.280  59.483 -52.155  1.00  0.00     0.011 C 
ENDBRANCH  17  18
ENDBRANCH   5  17
BRANCH   1  21
HETATM   21  C   UNL     1     -40.638  52.433 -53.695  1.00  0.00     0.103 A 
HETATM   22  N   UNL     1     -40.278  51.930 -52.506  1.00  0.00    -0.344 N 
HETATM   23  C   UNL     1     -39.737  50.710 -52.318  1.00  0.00     0.039 A 
HETATM   24  H   UNL     1     -40.434  52.439 -51.633  1.00  0.00     0.167 HD
HETATM   25  C   UNL     1     -39.505  49.887 -53.414  1.00  0.00     0.028 A 
HETATM   26  C   UNL     1     -39.837  50.353 -54.678  1.00  0.00     0.006 A 
HETATM   27  C   UNL     1     -40.403  51.621 -54.821  1.00  0.00     0.048 A 
BRANCH  23  28
HETATM   28  C   UNL     1     -39.459  50.345 -50.889  1.00  0.00     0.163 C 
HETATM   29  C   UNL     1     -40.365  51.067 -49.904  1.00  0.00     0.046 C 
BRANCH  28  30
HETATM   30  O   UNL     1     -39.714  48.929 -50.812  1.00  0.00    -0.390 OA
HETATM   31  H   UNL     1     -39.999  48.751 -49.890  1.00  0.00     0.210 HD
ENDBRANCH  28  30
ENDBRANCH  23  28
ENDBRANCH   1  21
TORSDOF 5
ENDMDL
MODEL 4
REMARK VINA RESULT:      -7.7      2.512      7.139
REMARK  5 active torsions:
REMARK  status: ('A' for Active; 'I' for Inactive)
REMARK    1  A    between atoms: C_2  and  O_3 
REMARK    2  A    between atoms: C_2  and  C_4 
REMARK    3  A    between atoms: C_7  and  N_8 
REMARK    4  A    between atoms: N_12  and  C_13 
REMARK    5  A    between atoms: C_13  and  C_14 
ROOT
HETATM    1  N   UNL     1     -41.795  55.222 -53.184  1.00  0.00    -0.367 N 
HETATM    2  C   UNL     1     -40.732  55.466 -54.187  1.00  0.00     0.127 C 
HETATM    3  C   UNL     1     -41.302  55.771 -55.576  1.00  0.00     0.068 C 
HETATM    4  C   UNL     1     -42.567  56.665 -55.555  1.00  0.00     0.206 C 
HETATM    5  N   UNL     1     -43.170  56.875 -56.942  1.00  0.00     0.105 N 
HETATM    6  C   UNL     1     -42.477  57.945 -57.743  1.00  0.00     0.280 C 
HETATM    7  C   UNL     1     -42.532  59.348 -57.111  1.00  0.00     0.089 C 
HETATM    8  C   UNL     1     -42.180  59.216 -55.697  1.00  0.00     0.037 A 
HETATM    9  C   UNL     1     -42.188  58.036 -54.992  1.00  0.00     0.072 A 
HETATM   10  N   UNL     1     -41.855  58.380 -53.688  1.00  0.00    -0.352 N 
HETATM   11  H   UNL     1     -41.830  57.731 -52.904  1.00  0.00     0.166 HD
HETATM   12  C   UNL     1     -41.652  59.699 -53.586  1.00  0.00     0.181 A 
HETATM   13  N   UNL     1     -41.826  60.209 -54.808  1.00  0.00    -0.354 N 
HETATM   14  H   UNL     1     -41.751  61.200 -55.034  1.00  0.00     0.166 HD
HETATM   15  C   UNL     1     -43.633  56.085 -54.576  1.00  0.00     0.068 C 
HETATM   16  C   UNL     1     -43.120  54.912 -53.738  1.00  0.00     0.127 C 
ENDROOT
BRANCH   5  17
HETATM   17  C   UNL     1     -43.254  55.679 -57.830  1.00  0.00     0.277 C 
BRANCH  17  18
HETATM   18  C   UNL     1     -43.969  55.838 -59.187  1.00  0.00     0.006 C 
HETATM   19  C   UNL     1     -44.406  54.486 -59.756  1.00  0.00     0.011 C 
HETATM   20  C   UNL     1     -45.199  56.739 -59.023  1.00  0.00     0.011 C 
ENDBRANCH  17  18
ENDBRANCH   5  17
BRANCH   1  21
HETATM   21  C   UNL     1     -41.342  54.434 -52.107  1.00  0.00     0.103 A 
HETATM   22  N   UNL     1     -40.641  53.306 -52.290  1.00  0.00    -0.344 N 
HETATM   23  C   UNL     1     -40.175  52.518 -51.299  1.00  0.00     0.039 A 
HETATM   24  H   UNL     1     -40.370  52.982 -53.221  1.00  0.00     0.167 HD
HETATM   25  C   UNL     1     -40.432  52.858 -49.976  1.00  0.00     0.028 A 
HETATM   26  C   UNL     1     -41.169  54.005 -49.714  1.00  0.00     0.006 A 
HETATM   27  C   UNL     1     -41.623  54.792 -50.774  1.00  0.00     0.048 A 
BRANCH  23  28
HETATM   28  C   UNL     1     -39.375  51.330 -51.747  1.00  0.00     0.163 C 
HETATM   29  C   UNL     1     -39.657  50.080 -50.929  1.00  0.00     0.046 C 
BRANCH  28  30
HETATM   30  O   UNL     1     -39.784  51.102 -53.111  1.00  0.00    -0.390 OA
HETATM   31  H   UNL     1     -38.967  50.881 -53.609  1.00  0.00     0.210 HD
ENDBRANCH  28  30
ENDBRANCH  23  28
ENDBRANCH   1  21
TORSDOF 5
ENDMDL
MODEL 5
REMARK VINA RESULT:      -7.7      2.508      7.103
REMARK  5 active torsions:
REMARK  status: ('A' for Active; 'I' for Inactive)
REMARK    1  A    between atoms: C_2  and  O_3 
REMARK    2  A    between atoms: C_2  and  C_4 
REMARK    3  A    between atoms: C_7  and  N_8 
REMARK    4  A    between atoms: N_12  and  C_13 
REMARK    5  A    between atoms: C_13  and  C_14 
ROOT
HETATM    1  N   UNL     1     -41.666  55.021 -53.631  1.00  0.00    -0.367 N 
HETATM    2  C   UNL     1     -43.139  54.889 -53.531  1.00  0.00     0.127 C 
HETATM    3  C   UNL     1     -43.844  56.250 -53.512  1.00  0.00     0.068 C 
HETATM    4  C   UNL     1     -43.222  57.295 -54.472  1.00  0.00     0.206 C 
HETATM    5  N   UNL     1     -43.881  58.667 -54.364  1.00  0.00     0.105 N 
HETATM    6  C   UNL     1     -45.167  58.779 -55.140  1.00  0.00     0.280 C 
HETATM    7  C   UNL     1     -45.014  58.572 -56.658  1.00  0.00     0.089 C 
HETATM    8  C   UNL     1     -44.191  57.380 -56.867  1.00  0.00     0.037 A 
HETATM    9  C   UNL     1     -43.393  56.799 -55.910  1.00  0.00     0.072 A 
HETATM   10  N   UNL     1     -42.752  55.747 -56.550  1.00  0.00    -0.352 N 
HETATM   11  H   UNL     1     -42.046  55.149 -56.124  1.00  0.00     0.166 HD
HETATM   12  C   UNL     1     -43.128  55.676 -57.833  1.00  0.00     0.181 A 
HETATM   13  N   UNL     1     -44.019  56.652 -58.025  1.00  0.00    -0.354 N 
HETATM   14  H   UNL     1     -44.471  56.853 -58.917  1.00  0.00     0.166 HD
HETATM   15  C   UNL     1     -41.684  57.405 -54.242  1.00  0.00     0.068 C 
HETATM   16  C   UNL     1     -41.130  56.345 -53.288  1.00  0.00     0.127 C 
ENDROOT
BRANCH   5  17
HETATM   17  C   UNL     1     -44.179  59.167 -52.991  1.00  0.00     0.277 C 
BRANCH  17  18
HETATM   18  C   UNL     1     -43.289  60.292 -52.425  1.00  0.00     0.006 C 
HETATM   19  C   UNL     1     -42.270  59.753 -51.418  1.00  0.00     0.011 C 
HETATM   20  C   UNL     1     -42.547  60.992 -53.570  1.00  0.00     0.011 C 
ENDBRANCH  17  18
ENDBRANCH   5  17
BRANCH   1  21
HETATM   21  C   UNL     1     -40.993  53.895 -53.113  1.00  0.00     0.103 A 
HETATM   22  N   UNL     1     -40.805  52.779 -53.833  1.00  0.00    -0.344 N 
HETATM   23  C   UNL     1     -40.163  51.678 -53.393  1.00  0.00     0.039 A 
HETATM   24  H   UNL     1     -41.109  52.705 -54.806  1.00  0.00     0.167 HD
HETATM   25  C   UNL     1     -39.657  51.651 -52.099  1.00  0.00     0.028 A 
HETATM   26  C   UNL     1     -39.832  52.767 -51.292  1.00  0.00     0.006 A 
HETATM   27  C   UNL     1     -40.497  53.886 -51.795  1.00  0.00     0.048 A 
BRANCH  23  28
HETATM   28  C   UNL     1     -40.034  50.569 -54.395  1.00  0.00     0.163 C 
HETATM   29  C   UNL     1     -39.231  49.387 -53.874  1.00  0.00     0.046 C 
BRANCH  28  30
HETATM   30  O   UNL     1     -41.386  50.142 -54.652  1.00  0.00    -0.390 OA
HETATM   31  H   UNL     1     -41.436  49.948 -55.613  1.00  0.00     0.210 HD
ENDBRANCH  28  30
ENDBRANCH  23  28
ENDBRANCH   1  21
TORSDOF 5
ENDMDL
MODEL 6
REMARK VINA RESULT:      -7.5      3.082      7.158
REMARK  5 active torsions:
REMARK  status: ('A' for Active; 'I' for Inactive)
REMARK    1  A    between atoms: C_2  and  O_3 
REMARK    2  A    between atoms: C_2  and  C_4 
REMARK    3  A    between atoms: C_7  and  N_8 
REMARK    4  A    between atoms: N_12  and  C_13 
REMARK    5  A    between atoms: C_13  and  C_14 
ROOT
HETATM    1  N   UNL     1     -42.031  54.634 -53.765  1.00  0.00    -0.367 N 
HETATM    2  C   UNL     1     -41.333  55.942 -53.734  1.00  0.00     0.127 C 
HETATM    3  C   UNL     1     -41.981  56.967 -54.671  1.00  0.00     0.068 C 
HETATM    4  C   UNL     1     -43.529  56.915 -54.690  1.00  0.00     0.206 C 
HETATM    5  N   UNL     1     -44.144  57.879 -55.701  1.00  0.00     0.105 N 
HETATM    6  C   UNL     1     -44.239  59.295 -55.200  1.00  0.00     0.280 C 
HETATM    7  C   UNL     1     -45.124  59.470 -53.951  1.00  0.00     0.089 C 
HETATM    8  C   UNL     1     -44.756  58.428 -52.992  1.00  0.00     0.037 A 
HETATM    9  C   UNL     1     -44.048  57.291 -53.301  1.00  0.00     0.072 A 
HETATM   10  N   UNL     1     -43.982  56.562 -52.120  1.00  0.00    -0.352 N 
HETATM   11  H   UNL     1     -43.567  55.637 -52.030  1.00  0.00     0.166 HD
HETATM   12  C   UNL     1     -44.613  57.209 -51.132  1.00  0.00     0.181 A 
HETATM   13  N   UNL     1     -45.066  58.353 -51.651  1.00  0.00    -0.354 N 
HETATM   14  H   UNL     1     -45.603  59.048 -51.133  1.00  0.00     0.166 HD
HETATM   15  C   UNL     1     -44.025  55.459 -54.948  1.00  0.00     0.068 C 
HETATM   16  C   UNL     1     -42.905  54.417 -54.925  1.00  0.00     0.127 C 
ENDROOT
BRANCH   5  17
HETATM   17  C   UNL     1     -43.497  57.955 -57.043  1.00  0.00     0.277 C 
BRANCH  17  18
HETATM   18  C   UNL     1     -44.121  57.138 -58.192  1.00  0.00     0.006 C 
HETATM   19  C   UNL     1     -44.352  58.000 -59.437  1.00  0.00     0.011 C 
HETATM   20  C   UNL     1     -43.204  55.964 -58.553  1.00  0.00     0.011 C 
ENDBRANCH  17  18
ENDBRANCH   5  17
BRANCH   1  21
HETATM   21  C   UNL     1     -41.188  53.571 -53.379  1.00  0.00     0.103 A 
HETATM   22  N   UNL     1     -40.882  53.329 -52.097  1.00  0.00    -0.344 N 
HETATM   23  C   UNL     1     -40.090  52.325 -51.670  1.00  0.00     0.039 A 
HETATM   24  H   UNL     1     -41.274  53.883 -51.332  1.00  0.00     0.167 HD
HETATM   25  C   UNL     1     -39.518  51.462 -52.598  1.00  0.00     0.028 A 
HETATM   26  C   UNL     1     -39.778  51.667 -53.946  1.00  0.00     0.006 A 
HETATM   27  C   UNL     1     -40.611  52.716 -54.338  1.00  0.00     0.048 A 
BRANCH  23  28
HETATM   28  C   UNL     1     -39.928  52.224 -50.182  1.00  0.00     0.163 C 
HETATM   29  C   UNL     1     -40.649  53.331 -49.429  1.00  0.00     0.046 C 
BRANCH  28  30
HETATM   30  O   UNL     1     -40.518  50.956 -49.831  1.00  0.00    -0.390 OA
HETATM   31  H   UNL     1     -39.801  50.290 -49.902  1.00  0.00     0.210 HD
ENDBRANCH  28  30
ENDBRANCH  23  28
ENDBRANCH   1  21
TORSDOF 5
ENDMDL
MODEL 7
REMARK VINA RESULT:      -7.5      1.751      4.311
REMARK  5 active torsions:
REMARK  status: ('A' for Active; 'I' for Inactive)
REMARK    1  A    between atoms: C_2  and  O_3 
REMARK    2  A    between atoms: C_2  and  C_4 
REMARK    3  A    between atoms: C_7  and  N_8 
REMARK    4  A    between atoms: N_12  and  C_13 
REMARK    5  A    between atoms: C_13  and  C_14 
ROOT
HETATM    1  N   UNL     1     -42.983  56.469 -56.184  1.00  0.00    -0.367 N 
HETATM    2  C   UNL     1     -41.648  56.909 -55.711  1.00  0.00     0.127 C 
HETATM    3  C   UNL     1     -41.659  57.306 -54.230  1.00  0.00     0.068 C 
HETATM    4  C   UNL     1     -42.535  56.391 -53.338  1.00  0.00     0.206 C 
HETATM    5  N   UNL     1     -42.605  56.865 -51.889  1.00  0.00     0.105 N 
HETATM    6  C   UNL     1     -41.412  56.457 -51.066  1.00  0.00     0.280 C 
HETATM    7  C   UNL     1     -41.218  54.935 -50.938  1.00  0.00     0.089 C 
HETATM    8  C   UNL     1     -41.359  54.352 -52.272  1.00  0.00     0.037 A 
HETATM    9  C   UNL     1     -41.938  54.983 -53.348  1.00  0.00     0.072 A 
HETATM   10  N   UNL     1     -41.917  54.053 -54.379  1.00  0.00    -0.352 N 
HETATM   11  H   UNL     1     -42.326  54.196 -55.300  1.00  0.00     0.166 HD
HETATM   12  C   UNL     1     -41.358  52.907 -53.969  1.00  0.00     0.181 A 
HETATM   13  N   UNL     1     -40.997  53.091 -52.697  1.00  0.00    -0.354 N 
HETATM   14  H   UNL     1     -40.557  52.379 -52.114  1.00  0.00     0.166 HD
HETATM   15  C   UNL     1     -43.967  56.248 -53.938  1.00  0.00     0.068 C 
HETATM   16  C   UNL     1     -44.112  56.864 -55.331  1.00  0.00     0.127 C 
ENDROOT
BRANCH   5  17
HETATM   17  C   UNL     1     -42.785  58.328 -51.664  1.00  0.00     0.277 C 
BRANCH  17  18
HETATM   18  C   UNL     1     -44.203  58.838 -51.338  1.00  0.00     0.006 C 
HETATM   19  C   UNL     1     -44.820  59.587 -52.522  1.00  0.00     0.011 C 
HETATM   20  C   UNL     1     -45.106  57.657 -50.962  1.00  0.00     0.011 C 
ENDBRANCH  17  18
ENDBRANCH   5  17
BRANCH   1  21
HETATM   21  C   UNL     1     -43.134  56.628 -57.576  1.00  0.00     0.103 A 
HETATM   22  N   UNL     1     -44.012  55.907 -58.289  1.00  0.00    -0.344 N 
HETATM   23  C   UNL     1     -44.205  56.023 -59.618  1.00  0.00     0.039 A 
HETATM   24  H   UNL     1     -44.640  55.232 -57.849  1.00  0.00     0.167 HD
HETATM   25  C   UNL     1     -43.448  56.936 -60.343  1.00  0.00     0.028 A 
HETATM   26  C   UNL     1     -42.507  57.703 -59.671  1.00  0.00     0.006 A 
HETATM   27  C   UNL     1     -42.349  57.552 -58.293  1.00  0.00     0.048 A 
BRANCH  23  28
HETATM   28  C   UNL     1     -45.277  55.142 -60.189  1.00  0.00     0.163 C 
HETATM   29  C   UNL     1     -46.573  55.887 -60.468  1.00  0.00     0.046 C 
BRANCH  28  30
HETATM   30  O   UNL     1     -44.735  54.659 -61.434  1.00  0.00    -0.390 OA
HETATM   31  H   UNL     1     -43.793  54.934 -61.449  1.00  0.00     0.210 HD
ENDBRANCH  28  30
ENDBRANCH  23  28
ENDBRANCH   1  21
TORSDOF 5
ENDMDL
MODEL 8
REMARK VINA RESULT:      -7.5     14.934     16.341
REMARK  5 active torsions:
REMARK  status: ('A' for Active; 'I' for Inactive)
REMARK    1  A    between atoms: C_2  and  O_3 
REMARK    2  A    between atoms: C_2  and  C_4 
REMARK    3  A    between atoms: C_7  and  N_8 
REMARK    4  A    between atoms: N_12  and  C_13 
REMARK    5  A    between atoms: C_13  and  C_14 
ROOT
HETATM    1  N   UNL     1     -36.531  41.048 -56.457  1.00  0.00    -0.367 N 
HETATM    2  C   UNL     1     -36.447  39.674 -55.909  1.00  0.00     0.127 C 
HETATM    3  C   UNL     1     -35.541  39.595 -54.675  1.00  0.00     0.068 C 
HETATM    4  C   UNL     1     -35.675  40.805 -53.716  1.00  0.00     0.206 C 
HETATM    5  N   UNL     1     -34.696  40.748 -52.547  1.00  0.00     0.105 N 
HETATM    6  C   UNL     1     -35.153  39.859 -51.422  1.00  0.00     0.280 C 
HETATM    7  C   UNL     1     -36.475  40.295 -50.763  1.00  0.00     0.089 C 
HETATM    8  C   UNL     1     -37.430  40.594 -51.831  1.00  0.00     0.037 A 
HETATM    9  C   UNL     1     -37.094  40.820 -53.144  1.00  0.00     0.072 A 
HETATM   10  N   UNL     1     -38.288  41.124 -53.786  1.00  0.00    -0.352 N 
HETATM   11  H   UNL     1     -38.371  41.397 -54.763  1.00  0.00     0.166 HD
HETATM   12  C   UNL     1     -39.310  41.089 -52.921  1.00  0.00     0.181 A 
HETATM   13  N   UNL     1     -38.797  40.746 -51.736  1.00  0.00    -0.354 N 
HETATM   14  H   UNL     1     -39.340  40.655 -50.878  1.00  0.00     0.166 HD
HETATM   15  C   UNL     1     -35.519  42.144 -54.499  1.00  0.00     0.068 C 
HETATM   16  C   UNL     1     -35.470  41.964 -56.017  1.00  0.00     0.127 C 
ENDROOT
BRANCH   5  17
HETATM   17  C   UNL     1     -33.295  40.339 -52.858  1.00  0.00     0.277 C 
BRANCH  17  18
HETATM   18  C   UNL     1     -32.620  39.315 -51.925  1.00  0.00     0.006 C 
HETATM   19  C   UNL     1     -31.837  38.262 -52.714  1.00  0.00     0.011 C 
HETATM   20  C   UNL     1     -31.667  40.037 -50.964  1.00  0.00     0.011 C 
ENDBRANCH  17  18
ENDBRANCH   5  17
BRANCH   1  21
HETATM   21  C   UNL     1     -36.869  41.057 -57.826  1.00  0.00     0.103 A 
HETATM   22  N   UNL     1     -37.117  39.930 -58.509  1.00  0.00    -0.344 N 
HETATM   23  C   UNL     1     -37.453  39.879 -59.814  1.00  0.00     0.039 A 
HETATM   24  H   UNL     1     -37.107  39.012 -58.060  1.00  0.00     0.167 HD
HETATM   25  C   UNL     1     -37.546  41.058 -60.544  1.00  0.00     0.028 A 
HETATM   26  C   UNL     1     -37.284  42.261 -59.903  1.00  0.00     0.006 A 
HETATM   27  C   UNL     1     -36.948  42.263 -58.548  1.00  0.00     0.048 A 
BRANCH  23  28
HETATM   28  C   UNL     1     -37.728  38.505 -60.351  1.00  0.00     0.163 C 
HETATM   29  C   UNL     1     -38.499  37.629 -59.376  1.00  0.00     0.046 C 
BRANCH  28  30
HETATM   30  O   UNL     1     -38.534  38.722 -61.526  1.00  0.00    -0.390 OA
HETATM   31  H   UNL     1     -39.237  39.355 -61.264  1.00  0.00     0.210 HD
ENDBRANCH  28  30
ENDBRANCH  23  28
ENDBRANCH   1  21
TORSDOF 5
ENDMDL
MODEL 9
REMARK VINA RESULT:      -7.5      3.063      7.503
REMARK  5 active torsions:
REMARK  status: ('A' for Active; 'I' for Inactive)
REMARK    1  A    between atoms: C_2  and  O_3 
REMARK    2  A    between atoms: C_2  and  C_4 
REMARK    3  A    between atoms: C_7  and  N_8 
REMARK    4  A    between atoms: N_12  and  C_13 
REMARK    5  A    between atoms: C_13  and  C_14 
ROOT
HETATM    1  N   UNL     1     -41.869  54.651 -53.731  1.00  0.00    -0.367 N 
HETATM    2  C   UNL     1     -41.160  55.898 -54.106  1.00  0.00     0.127 C 
HETATM    3  C   UNL     1     -41.683  56.491 -55.419  1.00  0.00     0.068 C 
HETATM    4  C   UNL     1     -43.220  56.394 -55.585  1.00  0.00     0.206 C 
HETATM    5  N   UNL     1     -43.705  56.904 -56.940  1.00  0.00     0.105 N 
HETATM    6  C   UNL     1     -43.833  58.402 -57.006  1.00  0.00     0.280 C 
HETATM    7  C   UNL     1     -44.848  58.999 -56.013  1.00  0.00     0.089 C 
HETATM    8  C   UNL     1     -44.605  58.391 -54.705  1.00  0.00     0.037 A 
HETATM    9  C   UNL     1     -43.884  57.239 -54.496  1.00  0.00     0.072 A 
HETATM   10  N   UNL     1     -43.960  56.995 -53.131  1.00  0.00    -0.352 N 
HETATM   11  H   UNL     1     -43.572  56.179 -52.663  1.00  0.00     0.166 HD
HETATM   12  C   UNL     1     -44.687  57.942 -52.524  1.00  0.00     0.181 A 
HETATM   13  N   UNL     1     -45.062  58.804 -53.472  1.00  0.00    -0.354 N 
HETATM   14  H   UNL     1     -45.643  59.625 -53.307  1.00  0.00     0.166 HD
HETATM   15  C   UNL     1     -43.707  54.932 -55.343  1.00  0.00     0.068 C 
HETATM   16  C   UNL     1     -42.613  54.001 -54.818  1.00  0.00     0.127 C 
ENDROOT
BRANCH   5  17
HETATM   17  C   UNL     1     -42.912  56.501 -58.137  1.00  0.00     0.277 C 
BRANCH  17  18
HETATM   18  C   UNL     1     -43.157  57.263 -59.454  1.00  0.00     0.006 C 
HETATM   19  C   UNL     1     -41.849  57.528 -60.205  1.00  0.00     0.011 C 
HETATM   20  C   UNL     1     -44.101  56.456 -60.353  1.00  0.00     0.011 C 
ENDBRANCH  17  18
ENDBRANCH   5  17
BRANCH   1  21
HETATM   21  C   UNL     1     -41.091  53.826 -52.893  1.00  0.00     0.103 A 
HETATM   22  N   UNL     1     -40.880  54.113 -51.601  1.00  0.00    -0.344 N 
HETATM   23  C   UNL     1     -40.153  53.358 -50.753  1.00  0.00     0.039 A 
HETATM   24  H   UNL     1     -41.304  54.927 -51.151  1.00  0.00     0.167 HD
HETATM   25  C   UNL     1     -39.549  52.195 -51.217  1.00  0.00     0.028 A 
HETATM   26  C   UNL     1     -39.711  51.847 -52.550  1.00  0.00     0.006 A 
HETATM   27  C   UNL     1     -40.479  52.658 -53.387  1.00  0.00     0.048 A 
BRANCH  23  28
HETATM   28  C   UNL     1     -40.095  53.857 -49.339  1.00  0.00     0.163 C 
HETATM   29  C   UNL     1     -40.983  55.069 -49.099  1.00  0.00     0.046 C 
BRANCH  28  30
HETATM   30  O   UNL     1     -40.574  52.758 -48.538  1.00  0.00    -0.390 OA
HETATM   31  H   UNL     1     -39.801  52.173 -48.385  1.00  0.00     0.210 HD
ENDBRANCH  28  30
ENDBRANCH  23  28
ENDBRANCH   1  21
TORSDOF 5
ENDMDL
MODEL 10
REMARK VINA RESULT:      -7.4      4.037      7.369
REMARK  5 active torsions:
REMARK  status: ('A' for Active; 'I' for Inactive)
REMARK    1  A    between atoms: C_2  and  O_3 
REMARK    2  A    between atoms: C_2  and  C_4 
REMARK    3  A    between atoms: C_7  and  N_8 
REMARK    4  A    between atoms: N_12  and  C_13 
REMARK    5  A    between atoms: C_13  and  C_14 
ROOT
HETATM    1  N   UNL     1     -43.086  59.207 -51.223  1.00  0.00    -0.367 N 
HETATM    2  C   UNL     1     -44.195  58.224 -51.248  1.00  0.00     0.127 C 
HETATM    3  C   UNL     1     -44.061  57.226 -52.404  1.00  0.00     0.068 C 
HETATM    4  C   UNL     1     -42.607  56.761 -52.669  1.00  0.00     0.206 C 
HETATM    5  N   UNL     1     -42.488  55.844 -53.883  1.00  0.00     0.105 N 
HETATM    6  C   UNL     1     -42.850  54.412 -53.593  1.00  0.00     0.280 C 
HETATM    7  C   UNL     1     -41.956  53.731 -52.539  1.00  0.00     0.089 C 
HETATM    8  C   UNL     1     -41.823  54.647 -51.406  1.00  0.00     0.037 A 
HETATM    9  C   UNL     1     -42.109  55.991 -51.444  1.00  0.00     0.072 A 
HETATM   10  N   UNL     1     -41.784  56.477 -50.184  1.00  0.00    -0.352 N 
HETATM   11  H   UNL     1     -41.830  57.455 -49.907  1.00  0.00     0.166 HD
HETATM   12  C   UNL     1     -41.322  55.491 -49.405  1.00  0.00     0.181 A 
HETATM   13  N   UNL     1     -41.364  54.373 -50.135  1.00  0.00    -0.354 N 
HETATM   14  H   UNL     1     -41.057  53.459 -49.806  1.00  0.00     0.166 HD
HETATM   15  C   UNL     1     -41.656  57.989 -52.813  1.00  0.00     0.068 C 
HETATM   16  C   UNL     1     -42.323  59.323 -52.472  1.00  0.00     0.127 C 
ENDROOT
BRANCH   5  17
HETATM   17  C   UNL     1     -43.261  56.230 -55.100  1.00  0.00     0.277 C 
BRANCH  17  18
HETATM   18  C   UNL     1     -42.469  56.584 -56.374  1.00  0.00     0.006 C 
HETATM   19  C   UNL     1     -43.028  55.864 -57.604  1.00  0.00     0.011 C 
HETATM   20  C   UNL     1     -42.517  58.098 -56.611  1.00  0.00     0.011 C 
ENDBRANCH  17  18
ENDBRANCH   5  17
BRANCH   1  21
HETATM   21  C   UNL     1     -43.449  60.403 -50.570  1.00  0.00     0.103 A 
HETATM   22  N   UNL     1     -44.239  60.417 -49.487  1.00  0.00    -0.344 N 
HETATM   23  C   UNL     1     -44.611  61.527 -48.819  1.00  0.00     0.039 A 
HETATM   24  H   UNL     1     -44.589  59.556 -49.061  1.00  0.00     0.167 HD
HETATM   25  C   UNL     1     -44.175  62.771 -49.261  1.00  0.00     0.028 A 
HETATM   26  C   UNL     1     -43.367  62.831 -50.388  1.00  0.00     0.006 A 
HETATM   27  C   UNL     1     -43.003  61.653 -51.042  1.00  0.00     0.048 A 
BRANCH  23  28
HETATM   28  C   UNL     1     -45.464  61.291 -47.607  1.00  0.00     0.163 C 
HETATM   29  C   UNL     1     -46.653  62.235 -47.523  1.00  0.00     0.046 C 
BRANCH  28  30
HETATM   30  O   UNL     1     -45.945  59.940 -47.752  1.00  0.00    -0.390 OA
HETATM   31  H   UNL     1     -45.765  59.491 -46.897  1.00  0.00     0.210 HD
ENDBRANCH  28  30
ENDBRANCH  23  28
ENDBRANCH   1  21
TORSDOF 5
ENDMDL
