MODEL 1
REMARK VINA RESULT:      -8.9      0.000      0.000
REMARK  5 active torsions:
REMARK  status: ('A' for Active; 'I' for Inactive)
REMARK    1  A    between atoms: C_7  and  C_8 
REMARK    2  A    between atoms: C_8  and  O_9 
REMARK    3  A    between atoms: N_12  and  C_13 
REMARK    4  A    between atoms: C_13  and  C_14 
REMARK    5  A    between atoms: C_14  and  C_15 
ROOT
HETATM    1  C   UNL     1     -42.124  57.628 -54.765  1.00  0.00     0.199 A 
HETATM    2  C   UNL     1     -41.181  56.703 -53.922  1.00  0.00     0.269 A 
HETATM    3  O   UNL     1     -40.152  56.155 -54.295  1.00  0.00    -0.269 OA
HETATM    4  N   UNL     1     -41.730  56.616 -52.628  1.00  0.00    -0.314 N 
HETATM    5  C   UNL     1     -42.938  57.324 -52.544  1.00  0.00     0.047 A 
HETATM    6  C   UNL     1     -43.224  57.932 -53.774  1.00  0.00     0.017 A 
HETATM    7  C   UNL     1     -43.791  57.459 -51.464  1.00  0.00     0.030 A 
HETATM    8  C   UNL     1     -44.946  58.233 -51.627  1.00  0.00     0.002 A 
HETATM    9  C   UNL     1     -45.227  58.858 -52.852  1.00  0.00     0.001 A 
HETATM   10  C   UNL     1     -44.359  58.717 -53.936  1.00  0.00     0.013 A 
ENDROOT
BRANCH   1  11
HETATM   11  C   UNL     1     -42.684  56.853 -55.945  1.00  0.00     0.025 A 
HETATM   12  C   UNL     1     -43.307  55.601 -55.987  1.00  0.00     0.016 A 
HETATM   13  C   UNL     1     -43.660  54.618 -54.926  1.00  0.00     0.069 C 
HETATM   14  N   UNL     1     -43.580  55.306 -57.300  1.00  0.00    -0.359 N 
HETATM   15  H   UNL     1     -44.027  54.460 -57.621  1.00  0.00     0.166 HD
HETATM   16  C   UNL     1     -43.082  56.270 -58.135  1.00  0.00     0.043 A 
HETATM   17  C   UNL     1     -42.521  57.257 -57.327  1.00  0.00     0.003 A 
HETATM   18  C   UNL     1     -43.073  56.327 -59.535  1.00  0.00     0.030 A 
HETATM   19  C   UNL     1     -41.913  58.360 -57.968  1.00  0.00     0.014 A 
HETATM   20  C   UNL     1     -41.891  58.436 -59.366  1.00  0.00     0.001 A 
HETATM   21  C   UNL     1     -42.464  57.430 -60.137  1.00  0.00     0.002 A 
ENDBRANCH   1  11
BRANCH   1  22
HETATM   22  O   UNL     1     -41.513  58.862 -55.125  1.00  0.00    -0.371 OA
HETATM   23  H   UNL     1     -40.939  59.119 -54.386  1.00  0.00     0.212 HD
ENDBRANCH   1  22
BRANCH   4  24
HETATM   24  C   UNL     1     -41.226  55.690 -51.636  1.00  0.00     0.137 C 
BRANCH  24  25
HETATM   25  C   UNL     1     -41.916  54.320 -51.668  1.00  0.00     0.058 C 
BRANCH  25  26
HETATM   26  C   UNL     1     -41.001  53.267 -52.247  1.00  0.00    -0.057 A 
HETATM   27  C   UNL     1     -41.055  52.969 -53.617  1.00  0.00     0.007 A 
HETATM   28  C   UNL     1     -40.244  51.970 -54.157  1.00  0.00     0.001 A 
HETATM   29  C   UNL     1     -39.367  51.266 -53.335  1.00  0.00     0.000 A 
HETATM   30  C   UNL     1     -39.300  51.562 -51.973  1.00  0.00     0.001 A 
HETATM   31  C   UNL     1     -40.113  52.557 -51.430  1.00  0.00     0.007 A 
ENDBRANCH  25  26
ENDBRANCH  24  25
ENDBRANCH   4  24
TORSDOF 5
ENDMDL
MODEL 2
REMARK VINA RESULT:      -8.8      2.105      6.315
REMARK  5 active torsions:
REMARK  status: ('A' for Active; 'I' for Inactive)
REMARK    1  A    between atoms: C_7  and  C_8 
REMARK    2  A    between atoms: C_8  and  O_9 
REMARK    3  A    between atoms: N_12  and  C_13 
REMARK    4  A    between atoms: C_13  and  C_14 
REMARK    5  A    between atoms: C_14  and  C_15 
ROOT
HETATM    1  C   UNL     1     -42.419  55.607 -51.341  1.00  0.00     0.199 A 
HETATM    2  C   UNL     1     -43.359  55.284 -52.552  1.00  0.00     0.269 A 
HETATM    3  O   UNL     1     -44.164  54.366 -52.643  1.00  0.00    -0.269 OA
HETATM    4  N   UNL     1     -43.121  56.263 -53.537  1.00  0.00    -0.314 N 
HETATM    5  C   UNL     1     -42.107  57.144 -53.137  1.00  0.00     0.047 A 
HETATM    6  C   UNL     1     -41.650  56.801 -51.857  1.00  0.00     0.017 A 
HETATM    7  C   UNL     1     -41.565  58.214 -53.826  1.00  0.00     0.030 A 
HETATM    8  C   UNL     1     -40.555  58.957 -53.204  1.00  0.00     0.002 A 
HETATM    9  C   UNL     1     -40.107  58.628 -51.916  1.00  0.00     0.001 A 
HETATM   10  C   UNL     1     -40.661  57.547 -51.228  1.00  0.00     0.013 A 
ENDROOT
BRANCH   1  11
HETATM   11  C   UNL     1     -41.475  54.443 -51.098  1.00  0.00     0.025 A 
HETATM   12  C   UNL     1     -40.829  54.037 -49.925  1.00  0.00     0.016 A 
HETATM   13  C   UNL     1     -40.850  54.562 -48.532  1.00  0.00     0.069 C 
HETATM   14  N   UNL     1     -40.031  52.962 -50.229  1.00  0.00    -0.359 N 
HETATM   15  H   UNL     1     -39.449  52.469 -49.568  1.00  0.00     0.166 HD
HETATM   16  C   UNL     1     -40.054  52.697 -51.572  1.00  0.00     0.043 A 
HETATM   17  C   UNL     1     -40.949  53.595 -52.148  1.00  0.00     0.003 A 
HETATM   18  C   UNL     1     -39.338  51.746 -52.312  1.00  0.00     0.030 A 
HETATM   19  C   UNL     1     -41.127  53.534 -53.550  1.00  0.00     0.014 A 
HETATM   20  C   UNL     1     -40.420  52.594 -54.307  1.00  0.00     0.001 A 
HETATM   21  C   UNL     1     -39.536  51.713 -53.693  1.00  0.00     0.002 A 
ENDBRANCH   1  11
BRANCH   1  22
HETATM   22  O   UNL     1     -43.132  56.021 -50.180  1.00  0.00    -0.371 OA
HETATM   23  H   UNL     1     -42.524  55.933 -49.429  1.00  0.00     0.212 HD
ENDBRANCH   1  22
BRANCH   4  24
HETATM   24  C   UNL     1     -43.676  56.167 -54.870  1.00  0.00     0.137 C 
BRANCH  24  25
HETATM   25  C   UNL     1     -42.777  55.410 -55.857  1.00  0.00     0.058 C 
BRANCH  25  26
HETATM   26  C   UNL     1     -42.759  56.092 -57.204  1.00  0.00    -0.057 A 
HETATM   27  C   UNL     1     -43.113  55.375 -58.357  1.00  0.00     0.007 A 
HETATM   28  C   UNL     1     -43.061  55.982 -59.612  1.00  0.00     0.001 A 
HETATM   29  C   UNL     1     -42.663  57.312 -59.726  1.00  0.00     0.000 A 
HETATM   30  C   UNL     1     -42.319  58.035 -58.584  1.00  0.00     0.001 A 
HETATM   31  C   UNL     1     -42.365  57.429 -57.328  1.00  0.00     0.007 A 
ENDBRANCH  25  26
ENDBRANCH  24  25
ENDBRANCH   4  24
TORSDOF 5
ENDMDL
MODEL 3
REMARK VINA RESULT:      -8.8      2.304      3.114
REMARK  5 active torsions:
REMARK  status: ('A' for Active; 'I' for Inactive)
REMARK    1  A    between atoms: C_7  and  C_8 
REMARK    2  A    between atoms: C_8  and  O_9 
REMARK    3  A    between atoms: N_12  and  C_13 
REMARK    4  A    between atoms: C_13  and  C_14 
REMARK    5  A    between atoms: C_14  and  C_15 
ROOT
HETATM    1  C   UNL     1     -42.695  57.216 -56.462  1.00  0.00     0.199 A 
HETATM    2  C   UNL     1     -42.592  55.672 -56.211  1.00  0.00     0.269 A 
HETATM    3  O   UNL     1     -43.007  54.774 -56.930  1.00  0.00    -0.269 OA
HETATM    4  N   UNL     1     -41.913  55.493 -54.990  1.00  0.00    -0.314 N 
HETATM    5  C   UNL     1     -41.613  56.727 -54.394  1.00  0.00     0.047 A 
HETATM    6  C   UNL     1     -42.058  57.775 -55.211  1.00  0.00     0.017 A 
HETATM    7  C   UNL     1     -40.984  56.978 -53.188  1.00  0.00     0.030 A 
HETATM    8  C   UNL     1     -40.789  58.311 -52.810  1.00  0.00     0.002 A 
HETATM    9  C   UNL     1     -41.217  59.364 -53.633  1.00  0.00     0.001 A 
HETATM   10  C   UNL     1     -41.849  59.100 -54.849  1.00  0.00     0.013 A 
ENDROOT
BRANCH   1  11
HETATM   11  C   UNL     1     -44.154  57.629 -56.534  1.00  0.00     0.025 A 
HETATM   12  C   UNL     1     -45.116  57.717 -55.522  1.00  0.00     0.016 A 
HETATM   13  C   UNL     1     -45.058  57.473 -54.055  1.00  0.00     0.069 C 
HETATM   14  N   UNL     1     -46.309  58.078 -56.100  1.00  0.00    -0.359 N 
HETATM   15  H   UNL     1     -47.175  58.213 -55.600  1.00  0.00     0.166 HD
HETATM   16  C   UNL     1     -46.195  58.145 -57.462  1.00  0.00     0.043 A 
HETATM   17  C   UNL     1     -44.864  57.877 -57.773  1.00  0.00     0.003 A 
HETATM   18  C   UNL     1     -47.173  58.402 -58.433  1.00  0.00     0.030 A 
HETATM   19  C   UNL     1     -44.500  57.864 -59.139  1.00  0.00     0.014 A 
HETATM   20  C   UNL     1     -45.461  58.116 -60.124  1.00  0.00     0.001 A 
HETATM   21  C   UNL     1     -46.781  58.380 -59.773  1.00  0.00     0.002 A 
ENDBRANCH   1  11
BRANCH   1  22
HETATM   22  O   UNL     1     -41.918  57.650 -57.574  1.00  0.00    -0.371 OA
HETATM   23  H   UNL     1     -42.394  57.377 -58.373  1.00  0.00     0.212 HD
ENDBRANCH   1  22
BRANCH   4  24
HETATM   24  C   UNL     1     -41.806  54.200 -54.348  1.00  0.00     0.137 C 
BRANCH  24  25
HETATM   25  C   UNL     1     -40.594  53.382 -54.812  1.00  0.00     0.058 C 
BRANCH  25  26
HETATM   26  C   UNL     1     -40.242  52.316 -53.802  1.00  0.00    -0.057 A 
HETATM   27  C   UNL     1     -40.123  52.650 -52.445  1.00  0.00     0.007 A 
HETATM   28  C   UNL     1     -39.758  51.683 -51.507  1.00  0.00     0.001 A 
HETATM   29  C   UNL     1     -39.517  50.374 -51.916  1.00  0.00     0.000 A 
HETATM   30  C   UNL     1     -39.643  50.030 -53.262  1.00  0.00     0.001 A 
HETATM   31  C   UNL     1     -40.003  50.997 -54.203  1.00  0.00     0.007 A 
ENDBRANCH  25  26
ENDBRANCH  24  25
ENDBRANCH   4  24
TORSDOF 5
ENDMDL
MODEL 4
REMARK VINA RESULT:      -8.6      2.025      5.099
REMARK  5 active torsions:
REMARK  status: ('A' for Active; 'I' for Inactive)
REMARK    1  A    between atoms: C_7  and  C_8 
REMARK    2  A    between atoms: C_8  and  O_9 
REMARK    3  A    between atoms: N_12  and  C_13 
REMARK    4  A    between atoms: C_13  and  C_14 
REMARK    5  A    between atoms: C_14  and  C_15 
ROOT
HETATM    1  C   UNL     1     -43.719  56.882 -53.537  1.00  0.00     0.199 A 
HETATM    2  C   UNL     1     -43.172  55.449 -53.215  1.00  0.00     0.269 A 
HETATM    3  O   UNL     1     -43.047  54.932 -52.113  1.00  0.00    -0.269 OA
HETATM    4  N   UNL     1     -42.852  54.840 -54.444  1.00  0.00    -0.314 N 
HETATM    5  C   UNL     1     -43.071  55.718 -55.515  1.00  0.00     0.047 A 
HETATM    6  C   UNL     1     -43.572  56.938 -55.039  1.00  0.00     0.017 A 
HETATM    7  C   UNL     1     -42.854  55.512 -56.865  1.00  0.00     0.030 A 
HETATM    8  C   UNL     1     -43.161  56.552 -57.750  1.00  0.00     0.002 A 
HETATM    9  C   UNL     1     -43.680  57.768 -57.280  1.00  0.00     0.001 A 
HETATM   10  C   UNL     1     -43.897  57.966 -55.915  1.00  0.00     0.013 A 
ENDROOT
BRANCH   1  11
HETATM   11  C   UNL     1     -42.832  57.928 -52.886  1.00  0.00     0.025 A 
HETATM   12  C   UNL     1     -41.443  58.088 -52.934  1.00  0.00     0.016 A 
HETATM   13  C   UNL     1     -40.368  57.334 -53.637  1.00  0.00     0.069 C 
HETATM   14  N   UNL     1     -41.108  59.149 -52.130  1.00  0.00    -0.359 N 
HETATM   15  H   UNL     1     -40.168  59.485 -51.978  1.00  0.00     0.166 HD
HETATM   16  C   UNL     1     -42.209  59.641 -51.481  1.00  0.00     0.043 A 
HETATM   17  C   UNL     1     -43.306  58.910 -51.931  1.00  0.00     0.003 A 
HETATM   18  C   UNL     1     -42.306  60.659 -50.523  1.00  0.00     0.030 A 
HETATM   19  C   UNL     1     -44.570  59.220 -51.380  1.00  0.00     0.014 A 
HETATM   20  C   UNL     1     -44.689  60.232 -50.420  1.00  0.00     0.001 A 
HETATM   21  C   UNL     1     -43.568  60.940 -49.998  1.00  0.00     0.002 A 
ENDBRANCH   1  11
BRANCH   1  22
HETATM   22  O   UNL     1     -45.102  57.029 -53.231  1.00  0.00    -0.371 OA
HETATM   23  H   UNL     1     -45.439  57.745 -53.791  1.00  0.00     0.212 HD
ENDBRANCH   1  22
BRANCH   4  24
HETATM   24  C   UNL     1     -42.141  53.581 -54.519  1.00  0.00     0.137 C 
BRANCH  24  25
HETATM   25  C   UNL     1     -40.720  53.642 -53.943  1.00  0.00     0.058 C 
BRANCH  25  26
HETATM   26  C   UNL     1     -40.273  52.282 -53.461  1.00  0.00    -0.057 A 
HETATM   27  C   UNL     1     -40.305  51.185 -54.335  1.00  0.00     0.007 A 
HETATM   28  C   UNL     1     -39.933  49.915 -53.891  1.00  0.00     0.001 A 
HETATM   29  C   UNL     1     -39.520  49.732 -52.573  1.00  0.00     0.000 A 
HETATM   30  C   UNL     1     -39.476  50.819 -51.700  1.00  0.00     0.001 A 
HETATM   31  C   UNL     1     -39.853  52.089 -52.141  1.00  0.00     0.007 A 
ENDBRANCH  25  26
ENDBRANCH  24  25
ENDBRANCH   4  24
TORSDOF 5
ENDMDL
MODEL 5
REMARK VINA RESULT:      -8.3      1.948      6.435
REMARK  5 active torsions:
REMARK  status: ('A' for Active; 'I' for Inactive)
REMARK    1  A    between atoms: C_7  and  C_8 
REMARK    2  A    between atoms: C_8  and  O_9 
REMARK    3  A    between atoms: N_12  and  C_13 
REMARK    4  A    between atoms: C_13  and  C_14 
REMARK    5  A    between atoms: C_14  and  C_15 
ROOT
HETATM    1  C   UNL     1     -42.443  55.327 -52.505  1.00  0.00     0.199 A 
HETATM    2  C   UNL     1     -43.302  55.744 -53.747  1.00  0.00     0.269 A 
HETATM    3  O   UNL     1     -44.004  55.019 -54.440  1.00  0.00    -0.269 OA
HETATM    4  N   UNL     1     -43.129  57.130 -53.927  1.00  0.00    -0.314 N 
HETATM    5  C   UNL     1     -42.225  57.651 -52.991  1.00  0.00     0.047 A 
HETATM    6  C   UNL     1     -41.781  56.634 -52.135  1.00  0.00     0.017 A 
HETATM    7  C   UNL     1     -41.771  58.951 -52.853  1.00  0.00     0.030 A 
HETATM    8  C   UNL     1     -40.865  59.228 -51.824  1.00  0.00     0.002 A 
HETATM    9  C   UNL     1     -40.433  58.217 -50.953  1.00  0.00     0.001 A 
HETATM   10  C   UNL     1     -40.897  56.909 -51.099  1.00  0.00     0.013 A 
ENDROOT
BRANCH   1  11
HETATM   11  C   UNL     1     -41.394  54.311 -52.921  1.00  0.00     0.025 A 
HETATM   12  C   UNL     1     -40.818  54.074 -54.174  1.00  0.00     0.016 A 
HETATM   13  C   UNL     1     -40.996  54.723 -55.502  1.00  0.00     0.069 C 
HETATM   14  N   UNL     1     -39.963  53.006 -54.054  1.00  0.00    -0.359 N 
HETATM   15  H   UNL     1     -39.414  52.618 -54.807  1.00  0.00     0.166 HD
HETATM   16  C   UNL     1     -40.018  52.471 -52.795  1.00  0.00     0.043 A 
HETATM   17  C   UNL     1     -40.895  53.262 -52.056  1.00  0.00     0.003 A 
HETATM   18  C   UNL     1     -39.374  51.343 -52.270  1.00  0.00     0.030 A 
HETATM   19  C   UNL     1     -41.139  52.891 -50.713  1.00  0.00     0.014 A 
HETATM   20  C   UNL     1     -40.507  51.766 -50.170  1.00  0.00     0.001 A 
HETATM   21  C   UNL     1     -39.637  51.003 -50.941  1.00  0.00     0.002 A 
ENDBRANCH   1  11
BRANCH   1  22
HETATM   22  O   UNL     1     -43.235  54.914 -51.396  1.00  0.00    -0.371 OA
HETATM   23  H   UNL     1     -43.381  53.961 -51.493  1.00  0.00     0.212 HD
ENDBRANCH   1  22
BRANCH   4  24
HETATM   24  C   UNL     1     -43.624  57.823 -55.098  1.00  0.00     0.137 C 
BRANCH  24  25
HETATM   25  C   UNL     1     -42.515  58.302 -56.043  1.00  0.00     0.058 C 
BRANCH  25  26
HETATM   26  C   UNL     1     -42.597  57.594 -57.374  1.00  0.00    -0.057 A 
HETATM   27  C   UNL     1     -41.933  58.123 -58.491  1.00  0.00     0.007 A 
HETATM   28  C   UNL     1     -42.034  57.501 -59.736  1.00  0.00     0.001 A 
HETATM   29  C   UNL     1     -42.793  56.342 -59.875  1.00  0.00     0.000 A 
HETATM   30  C   UNL     1     -43.448  55.802 -58.768  1.00  0.00     0.001 A 
HETATM   31  C   UNL     1     -43.353  56.425 -57.522  1.00  0.00     0.007 A 
ENDBRANCH  25  26
ENDBRANCH  24  25
ENDBRANCH   4  24
TORSDOF 5
ENDMDL
MODEL 6
REMARK VINA RESULT:      -8.2      2.907      4.957
REMARK  5 active torsions:
REMARK  status: ('A' for Active; 'I' for Inactive)
REMARK    1  A    between atoms: C_7  and  C_8 
REMARK    2  A    between atoms: C_8  and  O_9 
REMARK    3  A    between atoms: N_12  and  C_13 
REMARK    4  A    between atoms: C_13  and  C_14 
REMARK    5  A    between atoms: C_14  and  C_15 
ROOT
HETATM    1  C   UNL     1     -41.537  57.354 -52.429  1.00  0.00     0.199 A 
HETATM    2  C   UNL     1     -41.524  56.434 -53.697  1.00  0.00     0.269 A 
HETATM    3  O   UNL     1     -41.608  56.782 -54.868  1.00  0.00    -0.269 OA
HETATM    4  N   UNL     1     -41.385  55.107 -53.248  1.00  0.00    -0.314 N 
HETATM    5  C   UNL     1     -41.362  55.048 -51.847  1.00  0.00     0.047 A 
HETATM    6  C   UNL     1     -41.458  56.340 -51.311  1.00  0.00     0.017 A 
HETATM    7  C   UNL     1     -41.268  53.939 -51.026  1.00  0.00     0.030 A 
HETATM    8  C   UNL     1     -41.257  54.141 -49.641  1.00  0.00     0.002 A 
HETATM    9  C   UNL     1     -41.334  55.434 -49.101  1.00  0.00     0.001 A 
HETATM   10  C   UNL     1     -41.427  56.548 -49.938  1.00  0.00     0.013 A 
ENDROOT
BRANCH   1  11
HETATM   11  C   UNL     1     -42.852  58.110 -52.356  1.00  0.00     0.025 A 
HETATM   12  C   UNL     1     -44.080  57.842 -52.970  1.00  0.00     0.016 A 
HETATM   13  C   UNL     1     -44.538  56.744 -53.866  1.00  0.00     0.069 C 
HETATM   14  N   UNL     1     -44.949  58.853 -52.643  1.00  0.00    -0.359 N 
HETATM   15  H   UNL     1     -45.908  58.915 -52.953  1.00  0.00     0.166 HD
HETATM   16  C   UNL     1     -44.320  59.825 -51.911  1.00  0.00     0.043 A 
HETATM   17  C   UNL     1     -43.012  59.395 -51.705  1.00  0.00     0.003 A 
HETATM   18  C   UNL     1     -44.809  61.050 -51.439  1.00  0.00     0.030 A 
HETATM   19  C   UNL     1     -42.146  60.251 -50.987  1.00  0.00     0.014 A 
HETATM   20  C   UNL     1     -42.613  61.481 -50.508  1.00  0.00     0.001 A 
HETATM   21  C   UNL     1     -43.928  61.873 -50.734  1.00  0.00     0.002 A 
ENDBRANCH   1  11
BRANCH   1  22
HETATM   22  O   UNL     1     -40.388  58.189 -52.337  1.00  0.00    -0.371 OA
HETATM   23  H   UNL     1     -39.827  57.983 -53.101  1.00  0.00     0.212 HD
ENDBRANCH   1  22
BRANCH   4  24
HETATM   24  C   UNL     1     -41.527  53.972 -54.136  1.00  0.00     0.137 C 
BRANCH  24  25
HETATM   25  C   UNL     1     -40.189  53.358 -54.566  1.00  0.00     0.058 C 
BRANCH  25  26
HETATM   26  C   UNL     1     -39.965  52.024 -53.893  1.00  0.00    -0.057 A 
HETATM   27  C   UNL     1     -40.185  50.835 -54.604  1.00  0.00     0.007 A 
HETATM   28  C   UNL     1     -40.021  49.597 -53.982  1.00  0.00     0.001 A 
HETATM   29  C   UNL     1     -39.630  49.536 -52.647  1.00  0.00     0.000 A 
HETATM   30  C   UNL     1     -39.400  50.713 -51.934  1.00  0.00     0.001 A 
HETATM   31  C   UNL     1     -39.568  51.953 -52.553  1.00  0.00     0.007 A 
ENDBRANCH  25  26
ENDBRANCH  24  25
ENDBRANCH   4  24
TORSDOF 5
ENDMDL
MODEL 7
REMARK VINA RESULT:      -8.2      2.532      3.851
REMARK  5 active torsions:
REMARK  status: ('A' for Active; 'I' for Inactive)
REMARK    1  A    between atoms: C_7  and  C_8 
REMARK    2  A    between atoms: C_8  and  O_9 
REMARK    3  A    between atoms: N_12  and  C_13 
REMARK    4  A    between atoms: C_13  and  C_14 
REMARK    5  A    between atoms: C_14  and  C_15 
ROOT
HETATM    1  C   UNL     1     -41.517  57.488 -53.256  1.00  0.00     0.199 A 
HETATM    2  C   UNL     1     -41.573  56.302 -54.279  1.00  0.00     0.269 A 
HETATM    3  O   UNL     1     -41.704  56.377 -55.494  1.00  0.00    -0.269 OA
HETATM    4  N   UNL     1     -41.433  55.110 -53.544  1.00  0.00    -0.314 N 
HETATM    5  C   UNL     1     -41.348  55.372 -52.169  1.00  0.00     0.047 A 
HETATM    6  C   UNL     1     -41.402  56.754 -51.940  1.00  0.00     0.017 A 
HETATM    7  C   UNL     1     -41.233  54.478 -51.120  1.00  0.00     0.030 A 
HETATM    8  C   UNL     1     -41.157  54.990 -49.820  1.00  0.00     0.002 A 
HETATM    9  C   UNL     1     -41.192  56.374 -49.588  1.00  0.00     0.001 A 
HETATM   10  C   UNL     1     -41.307  57.268 -50.653  1.00  0.00     0.013 A 
ENDROOT
BRANCH   1  11
HETATM   11  C   UNL     1     -42.816  58.271 -53.305  1.00  0.00     0.025 A 
HETATM   12  C   UNL     1     -44.034  58.036 -52.658  1.00  0.00     0.016 A 
HETATM   13  C   UNL     1     -44.479  56.986 -51.700  1.00  0.00     0.069 C 
HETATM   14  N   UNL     1     -44.928  58.994 -53.072  1.00  0.00    -0.359 N 
HETATM   15  H   UNL     1     -45.887  59.061 -52.764  1.00  0.00     0.166 HD
HETATM   16  C   UNL     1     -44.377  59.797 -54.033  1.00  0.00     0.043 A 
HETATM   17  C   UNL     1     -43.057  59.383 -54.202  1.00  0.00     0.003 A 
HETATM   18  C   UNL     1     -44.954  60.839 -54.771  1.00  0.00     0.030 A 
HETATM   19  C   UNL     1     -42.279  60.054 -55.173  1.00  0.00     0.014 A 
HETATM   20  C   UNL     1     -42.838  61.096 -55.923  1.00  0.00     0.001 A 
HETATM   21  C   UNL     1     -44.159  61.481 -55.723  1.00  0.00     0.002 A 
ENDBRANCH   1  11
BRANCH   1  22
HETATM   22  O   UNL     1     -40.353  58.294 -53.404  1.00  0.00    -0.371 OA
HETATM   23  H   UNL     1     -39.791  58.124 -52.632  1.00  0.00     0.212 HD
ENDBRANCH   1  22
BRANCH   4  24
HETATM   24  C   UNL     1     -41.630  53.806 -54.142  1.00  0.00     0.137 C 
BRANCH  24  25
HETATM   25  C   UNL     1     -40.328  53.140 -54.605  1.00  0.00     0.058 C 
BRANCH  25  26
HETATM   26  C   UNL     1     -40.050  51.886 -53.810  1.00  0.00    -0.057 A 
HETATM   27  C   UNL     1     -39.819  51.970 -52.429  1.00  0.00     0.007 A 
HETATM   28  C   UNL     1     -39.521  50.824 -51.690  1.00  0.00     0.001 A 
HETATM   29  C   UNL     1     -39.459  49.585 -52.323  1.00  0.00     0.000 A 
HETATM   30  C   UNL     1     -39.697  49.491 -53.694  1.00  0.00     0.001 A 
HETATM   31  C   UNL     1     -39.990  50.636 -54.436  1.00  0.00     0.007 A 
ENDBRANCH  25  26
ENDBRANCH  24  25
ENDBRANCH   4  24
TORSDOF 5
ENDMDL
MODEL 8
REMARK VINA RESULT:      -8.0      1.541      6.087
REMARK  5 active torsions:
REMARK  status: ('A' for Active; 'I' for Inactive)
REMARK    1  A    between atoms: C_7  and  C_8 
REMARK    2  A    between atoms: C_8  and  O_9 
REMARK    3  A    between atoms: N_12  and  C_13 
REMARK    4  A    between atoms: C_13  and  C_14 
REMARK    5  A    between atoms: C_14  and  C_15 
ROOT
HETATM    1  C   UNL     1     -43.171  55.801 -53.750  1.00  0.00     0.199 A 
HETATM    2  C   UNL     1     -42.452  56.556 -54.920  1.00  0.00     0.269 A 
HETATM    3  O   UNL     1     -41.755  56.069 -55.801  1.00  0.00    -0.269 OA
HETATM    4  N   UNL     1     -42.760  57.923 -54.784  1.00  0.00    -0.314 N 
HETATM    5  C   UNL     1     -43.543  58.154 -53.644  1.00  0.00     0.047 A 
HETATM    6  C   UNL     1     -43.808  56.942 -52.992  1.00  0.00     0.017 A 
HETATM    7  C   UNL     1     -44.026  59.352 -53.150  1.00  0.00     0.030 A 
HETATM    8  C   UNL     1     -44.801  59.322 -51.985  1.00  0.00     0.002 A 
HETATM    9  C   UNL     1     -45.084  58.109 -51.339  1.00  0.00     0.001 A 
HETATM   10  C   UNL     1     -44.593  56.904 -51.846  1.00  0.00     0.013 A 
ENDROOT
BRANCH   1  11
HETATM   11  C   UNL     1     -42.143  55.103 -52.878  1.00  0.00     0.025 A 
HETATM   12  C   UNL     1     -41.496  55.545 -51.719  1.00  0.00     0.016 A 
HETATM   13  C   UNL     1     -41.596  56.804 -50.930  1.00  0.00     0.069 C 
HETATM   14  N   UNL     1     -40.606  54.575 -51.332  1.00  0.00    -0.359 N 
HETATM   15  H   UNL     1     -40.003  54.633 -50.524  1.00  0.00     0.166 HD
HETATM   16  C   UNL     1     -40.572  53.549 -52.237  1.00  0.00     0.043 A 
HETATM   17  C   UNL     1     -41.522  53.838 -53.214  1.00  0.00     0.003 A 
HETATM   18  C   UNL     1     -39.762  52.406 -52.269  1.00  0.00     0.030 A 
HETATM   19  C   UNL     1     -41.659  52.925 -54.285  1.00  0.00     0.014 A 
HETATM   20  C   UNL     1     -40.857  51.778 -54.337  1.00  0.00     0.001 A 
HETATM   21  C   UNL     1     -39.921  51.525 -53.341  1.00  0.00     0.002 A 
ENDBRANCH   1  11
BRANCH   1  22
HETATM   22  O   UNL     1     -44.216  54.946 -54.203  1.00  0.00    -0.371 OA
HETATM   23  H   UNL     1     -44.649  55.397 -54.944  1.00  0.00     0.212 HD
ENDBRANCH   1  22
BRANCH   4  24
HETATM   24  C   UNL     1     -42.109  58.944 -55.579  1.00  0.00     0.137 C 
BRANCH  24  25
HETATM   25  C   UNL     1     -42.985  59.487 -56.716  1.00  0.00     0.058 C 
BRANCH  25  26
HETATM   26  C   UNL     1     -43.087  58.489 -57.844  1.00  0.00    -0.057 A 
HETATM   27  C   UNL     1     -42.012  58.320 -58.730  1.00  0.00     0.007 A 
HETATM   28  C   UNL     1     -42.110  57.431 -59.801  1.00  0.00     0.001 A 
HETATM   29  C   UNL     1     -43.278  56.698 -59.992  1.00  0.00     0.000 A 
HETATM   30  C   UNL     1     -44.349  56.852 -59.111  1.00  0.00     0.001 A 
HETATM   31  C   UNL     1     -44.256  57.744 -58.042  1.00  0.00     0.007 A 
ENDBRANCH  25  26
ENDBRANCH  24  25
ENDBRANCH   4  24
TORSDOF 5
ENDMDL
MODEL 9
REMARK VINA RESULT:      -8.0      2.401      6.676
REMARK  5 active torsions:
REMARK  status: ('A' for Active; 'I' for Inactive)
REMARK    1  A    between atoms: C_7  and  C_8 
REMARK    2  A    between atoms: C_8  and  O_9 
REMARK    3  A    between atoms: N_12  and  C_13 
REMARK    4  A    between atoms: C_13  and  C_14 
REMARK    5  A    between atoms: C_14  and  C_15 
ROOT
HETATM    1  C   UNL     1     -42.338  55.617 -51.612  1.00  0.00     0.199 A 
HETATM    2  C   UNL     1     -42.928  55.451 -53.054  1.00  0.00     0.269 A 
HETATM    3  O   UNL     1     -43.674  54.566 -53.453  1.00  0.00    -0.269 OA
HETATM    4  N   UNL     1     -42.449  56.525 -53.828  1.00  0.00    -0.314 N 
HETATM    5  C   UNL     1     -41.580  57.335 -53.082  1.00  0.00     0.047 A 
HETATM    6  C   UNL     1     -41.470  56.843 -51.774  1.00  0.00     0.017 A 
HETATM    7  C   UNL     1     -40.886  58.463 -53.483  1.00  0.00     0.030 A 
HETATM    8  C   UNL     1     -40.078  59.110 -52.541  1.00  0.00     0.002 A 
HETATM    9  C   UNL     1     -39.979  58.632 -51.226  1.00  0.00     0.001 A 
HETATM   10  C   UNL     1     -40.685  57.494 -50.831  1.00  0.00     0.013 A 
ENDROOT
BRANCH   1  11
HETATM   11  C   UNL     1     -41.481  54.413 -51.265  1.00  0.00     0.025 A 
HETATM   12  C   UNL     1     -40.962  54.003 -50.032  1.00  0.00     0.016 A 
HETATM   13  C   UNL     1     -41.075  54.562 -48.657  1.00  0.00     0.069 C 
HETATM   14  N   UNL     1     -40.198  52.882 -50.244  1.00  0.00    -0.359 N 
HETATM   15  H   UNL     1     -39.701  52.377 -49.525  1.00  0.00     0.166 HD
HETATM   16  C   UNL     1     -40.118  52.586 -51.578  1.00  0.00     0.043 A 
HETATM   17  C   UNL     1     -40.911  53.515 -52.248  1.00  0.00     0.003 A 
HETATM   18  C   UNL     1     -39.391  51.583 -52.233  1.00  0.00     0.030 A 
HETATM   19  C   UNL     1     -40.970  53.429 -53.658  1.00  0.00     0.014 A 
HETATM   20  C   UNL     1     -40.250  52.436 -54.332  1.00  0.00     0.001 A 
HETATM   21  C   UNL     1     -39.470  51.527 -53.626  1.00  0.00     0.002 A 
ENDBRANCH   1  11
BRANCH   1  22
HETATM   22  O   UNL     1     -43.331  55.917 -50.637  1.00  0.00    -0.371 OA
HETATM   23  H   UNL     1     -42.921  55.789 -49.768  1.00  0.00     0.212 HD
ENDBRANCH   1  22
BRANCH   4  24
HETATM   24  C   UNL     1     -42.637  56.589 -55.262  1.00  0.00     0.137 C 
BRANCH  24  25
HETATM   25  C   UNL     1     -43.998  57.163 -55.678  1.00  0.00     0.058 C 
BRANCH  25  26
HETATM   26  C   UNL     1     -44.181  58.562 -55.141  1.00  0.00    -0.057 A 
HETATM   27  C   UNL     1     -43.495  59.635 -55.732  1.00  0.00     0.007 A 
HETATM   28  C   UNL     1     -43.624  60.926 -55.220  1.00  0.00     0.001 A 
HETATM   29  C   UNL     1     -44.445  61.159 -54.119  1.00  0.00     0.000 A 
HETATM   30  C   UNL     1     -45.138  60.101 -53.531  1.00  0.00     0.001 A 
HETATM   31  C   UNL     1     -45.006  58.807 -54.038  1.00  0.00     0.007 A 
ENDBRANCH  25  26
ENDBRANCH  24  25
ENDBRANCH   4  24
TORSDOF 5
ENDMDL
MODEL 10
REMARK VINA RESULT:      -7.9      1.325      2.324
REMARK  5 active torsions:
REMARK  status: ('A' for Active; 'I' for Inactive)
REMARK    1  A    between atoms: C_7  and  C_8 
REMARK    2  A    between atoms: C_8  and  O_9 
REMARK    3  A    between atoms: N_12  and  C_13 
REMARK    4  A    between atoms: C_13  and  C_14 
REMARK    5  A    between atoms: C_14  and  C_15 
ROOT
HETATM    1  C   UNL     1     -41.685  58.018 -54.072  1.00  0.00     0.199 A 
HETATM    2  C   UNL     1     -41.228  56.534 -53.863  1.00  0.00     0.269 A 
HETATM    3  O   UNL     1     -40.317  55.951 -54.436  1.00  0.00    -0.269 OA
HETATM    4  N   UNL     1     -42.060  55.977 -52.873  1.00  0.00    -0.314 N 
HETATM    5  C   UNL     1     -43.031  56.898 -52.454  1.00  0.00     0.047 A 
HETATM    6  C   UNL     1     -42.865  58.113 -53.133  1.00  0.00     0.017 A 
HETATM    7  C   UNL     1     -44.043  56.730 -51.526  1.00  0.00     0.030 A 
HETATM    8  C   UNL     1     -44.892  57.813 -51.271  1.00  0.00     0.002 A 
HETATM    9  C   UNL     1     -44.717  59.037 -51.935  1.00  0.00     0.001 A 
HETATM   10  C   UNL     1     -43.692  59.197 -52.868  1.00  0.00     0.013 A 
ENDROOT
BRANCH   1  11
HETATM   11  C   UNL     1     -42.142  58.219 -55.506  1.00  0.00     0.025 A 
HETATM   12  C   UNL     1     -42.378  59.400 -56.218  1.00  0.00     0.016 A 
HETATM   13  C   UNL     1     -42.248  60.838 -55.854  1.00  0.00     0.069 C 
HETATM   14  N   UNL     1     -42.837  59.059 -57.467  1.00  0.00    -0.359 N 
HETATM   15  H   UNL     1     -43.089  59.717 -58.190  1.00  0.00     0.166 HD
HETATM   16  C   UNL     1     -42.999  57.704 -57.578  1.00  0.00     0.043 A 
HETATM   17  C   UNL     1     -42.570  57.144 -56.377  1.00  0.00     0.003 A 
HETATM   18  C   UNL     1     -43.509  56.945 -58.640  1.00  0.00     0.030 A 
HETATM   19  C   UNL     1     -42.664  55.740 -56.239  1.00  0.00     0.014 A 
HETATM   20  C   UNL     1     -43.172  54.964 -57.287  1.00  0.00     0.001 A 
HETATM   21  C   UNL     1     -43.589  55.562 -58.471  1.00  0.00     0.002 A 
ENDBRANCH   1  11
BRANCH   1  22
HETATM   22  O   UNL     1     -40.712  58.964 -53.640  1.00  0.00    -0.371 OA
HETATM   23  H   UNL     1     -40.709  59.682 -54.292  1.00  0.00     0.212 HD
ENDBRANCH   1  22
BRANCH   4  24
HETATM   24  C   UNL     1     -42.049  54.564 -52.561  1.00  0.00     0.137 C 
BRANCH  24  25
HETATM   25  C   UNL     1     -40.719  54.074 -51.974  1.00  0.00     0.058 C 
BRANCH  25  26
HETATM   26  C   UNL     1     -40.367  52.703 -52.501  1.00  0.00    -0.057 A 
HETATM   27  C   UNL     1     -39.784  51.754 -51.648  1.00  0.00     0.007 A 
HETATM   28  C   UNL     1     -39.417  50.498 -52.133  1.00  0.00     0.001 A 
HETATM   29  C   UNL     1     -39.636  50.177 -53.470  1.00  0.00     0.000 A 
HETATM   30  C   UNL     1     -40.225  51.111 -54.323  1.00  0.00     0.001 A 
HETATM   31  C   UNL     1     -40.588  52.370 -53.842  1.00  0.00     0.007 A 
ENDBRANCH  25  26
ENDBRANCH  24  25
ENDBRANCH   4  24
TORSDOF 5
ENDMDL
