MODEL 1
REMARK VINA RESULT:      -8.6      0.000      0.000
REMARK  10 active torsions:
REMARK  status: ('A' for Active; 'I' for Inactive)
REMARK    1  A    between atoms: O_2  and  C_3 
REMARK    2  A    between atoms: C_4  and  O_5 
REMARK    3  A    between atoms: O_5  and  C_6 
REMARK    4  A    between atoms: C_6  and  C_7 
REMARK    5  A    between atoms: C_16  and  C_17 
REMARK       I    between atoms: C_17  and  N_18 
REMARK    6  A    between atoms: N_18  and  C_19 
REMARK    7  A    between atoms: C_19  and  N_20 
REMARK    8  A    between atoms: N_20  and  C_21 
REMARK    9  A    between atoms: C_24  and  C_25 
REMARK   10  A    between atoms: C_25  and  N_26 
ROOT
HETATM    1  C   UNL     1     -45.403  58.978 -51.090  1.00  0.00     0.257 C 
HETATM    2  N   UNL     1     -45.212  60.233 -51.661  1.00  0.00    -0.299 N 
HETATM    3  O   UNL     1     -46.382  58.647 -50.436  1.00  0.00    -0.267 OA
HETATM    4  H   UNL     1     -44.250  60.482 -51.835  1.00  0.00     0.171 HD
ENDROOT
BRANCH   2   5
HETATM    5  C   UNL     1     -46.070  60.906 -52.504  1.00  0.00     0.179 C 
HETATM    6  S   UNL     1     -47.198  62.056 -52.067  1.00  0.00    -0.040 SA
BRANCH   5   7
HETATM    7  N   UNL     1     -46.074  60.480 -53.812  1.00  0.00    -0.333 N 
HETATM    8  H   UNL     1     -46.828  60.894 -54.356  1.00  0.00     0.168 HD
BRANCH   7   9
HETATM    9  C   UNL     1     -45.151  59.690 -54.524  1.00  0.00     0.034 A 
HETATM   10  C   UNL     1     -44.021  60.324 -55.047  1.00  0.00     0.030 A 
HETATM   11  C   UNL     1     -43.039  59.599 -55.738  1.00  0.00     0.011 A 
HETATM   12  C   UNL     1     -43.146  58.210 -55.888  1.00  0.00    -0.032 A 
HETATM   13  C   UNL     1     -44.276  57.580 -55.334  1.00  0.00     0.011 A 
HETATM   14  C   UNL     1     -45.268  58.310 -54.665  1.00  0.00     0.030 A 
BRANCH  12  15
HETATM   15  C   UNL     1     -42.129  57.330 -56.580  1.00  0.00     0.273 C 
BRANCH  15  16
HETATM   16  N   UNL     1     -42.398  56.955 -58.025  1.00  0.00    -0.067 N 
HETATM   17  H   UNL     1     -41.496  56.668 -58.424  1.00  0.00     0.280 HD
HETATM   18  C   UNL     1     -43.381  55.810 -58.153  1.00  0.00     0.235 C 
HETATM   19  C   UNL     1     -43.486  55.401 -59.615  1.00  0.00     0.028 C 
HETATM   20  C   UNL     1     -43.899  56.574 -60.497  1.00  0.00     0.003 C 
HETATM   21  C   UNL     1     -42.974  57.769 -60.296  1.00  0.00     0.028 C 
HETATM   22  C   UNL     1     -42.855  58.155 -58.829  1.00  0.00     0.235 C 
ENDBRANCH  15  16
ENDBRANCH  12  15
ENDBRANCH   7   9
ENDBRANCH   5   7
ENDBRANCH   2   5
BRANCH   1  23
HETATM   23  C   UNL     1     -44.197  58.106 -51.133  1.00  0.00     0.035 A 
HETATM   24  C   UNL     1     -44.324  56.718 -50.982  1.00  0.00     0.020 A 
HETATM   25  C   UNL     1     -43.206  55.899 -51.137  1.00  0.00     0.040 A 
HETATM   26  C   UNL     1     -41.961  56.462 -51.417  1.00  0.00     0.102 A 
HETATM   27  C   UNL     1     -41.833  57.850 -51.542  1.00  0.00     0.102 A 
HETATM   28  C   UNL     1     -42.944  58.678 -51.368  1.00  0.00     0.056 A 
BRANCH  26  29
HETATM   29  O   UNL     1     -40.957  55.580 -51.691  1.00  0.00    -0.344 OA
BRANCH  29  30
HETATM   30  C   UNL     1     -41.045  54.363 -50.946  1.00  0.00     0.214 C 
BRANCH  30  31
HETATM   31  C   UNL     1     -40.597  53.276 -51.895  1.00  0.00    -0.034 A 
HETATM   32  C   UNL     1     -41.007  53.306 -53.238  1.00  0.00     0.011 A 
HETATM   33  C   UNL     1     -40.674  52.263 -54.105  1.00  0.00     0.024 A 
HETATM   34  C   UNL     1     -39.933  51.183 -53.633  1.00  0.00     0.034 A 
HETATM   35 CL   UNL     1     -39.547  49.884 -54.694  1.00  0.00    -0.084 Cl
HETATM   36  C   UNL     1     -39.515  51.141 -52.306  1.00  0.00     0.024 A 
HETATM   37  C   UNL     1     -39.848  52.183 -51.436  1.00  0.00     0.011 A 
ENDBRANCH  30  31
ENDBRANCH  29  30
ENDBRANCH  26  29
BRANCH  27  38
HETATM   38  O   UNL     1     -40.631  58.443 -51.814  1.00  0.00    -0.353 OA
HETATM   39  C   UNL     1     -40.573  58.854 -53.181  1.00  0.00     0.210 C 
ENDBRANCH  27  38
ENDBRANCH   1  23
TORSDOF 10
ENDMDL
MODEL 2
REMARK VINA RESULT:      -8.5      3.457      7.759
REMARK  10 active torsions:
REMARK  status: ('A' for Active; 'I' for Inactive)
REMARK    1  A    between atoms: O_2  and  C_3 
REMARK    2  A    between atoms: C_4  and  O_5 
REMARK    3  A    between atoms: O_5  and  C_6 
REMARK    4  A    between atoms: C_6  and  C_7 
REMARK    5  A    between atoms: C_16  and  C_17 
REMARK       I    between atoms: C_17  and  N_18 
REMARK    6  A    between atoms: N_18  and  C_19 
REMARK    7  A    between atoms: C_19  and  N_20 
REMARK    8  A    between atoms: N_20  and  C_21 
REMARK    9  A    between atoms: C_24  and  C_25 
REMARK   10  A    between atoms: C_25  and  N_26 
ROOT
HETATM    1  C   UNL     1     -41.555  58.865 -53.584  1.00  0.00     0.257 C 
HETATM    2  N   UNL     1     -42.598  59.246 -52.746  1.00  0.00    -0.299 N 
HETATM    3  O   UNL     1     -40.396  59.239 -53.476  1.00  0.00    -0.267 OA
HETATM    4  H   UNL     1     -43.520  59.178 -53.150  1.00  0.00     0.171 HD
ENDROOT
BRANCH   2   5
HETATM    5  C   UNL     1     -42.641  59.155 -51.371  1.00  0.00     0.179 C 
HETATM    6  S   UNL     1     -42.092  60.292 -50.280  1.00  0.00    -0.040 SA
BRANCH   5   7
HETATM    7  N   UNL     1     -43.058  57.944 -50.869  1.00  0.00    -0.333 N 
HETATM    8  H   UNL     1     -44.029  57.960 -50.565  1.00  0.00     0.168 HD
BRANCH   7   9
HETATM    9  C   UNL     1     -42.413  56.692 -50.834  1.00  0.00     0.034 A 
HETATM   10  C   UNL     1     -41.060  56.667 -50.491  1.00  0.00     0.030 A 
HETATM   11  C   UNL     1     -40.358  55.456 -50.401  1.00  0.00     0.011 A 
HETATM   12  C   UNL     1     -41.008  54.233 -50.615  1.00  0.00    -0.032 A 
HETATM   13  C   UNL     1     -42.378  54.271 -50.935  1.00  0.00     0.011 A 
HETATM   14  C   UNL     1     -43.072  55.483 -51.048  1.00  0.00     0.030 A 
BRANCH  12  15
HETATM   15  C   UNL     1     -40.357  52.872 -50.507  1.00  0.00     0.273 C 
BRANCH  15  16
HETATM   16  N   UNL     1     -40.423  51.967 -51.723  1.00  0.00    -0.067 N 
HETATM   17  H   UNL     1     -41.380  51.595 -51.757  1.00  0.00     0.280 HD
HETATM   18  C   UNL     1     -40.135  52.708 -53.012  1.00  0.00     0.235 C 
HETATM   19  C   UNL     1     -40.361  51.770 -54.189  1.00  0.00     0.028 C 
HETATM   20  C   UNL     1     -39.502  50.515 -54.079  1.00  0.00     0.003 C 
HETATM   21  C   UNL     1     -39.710  49.820 -52.739  1.00  0.00     0.028 C 
HETATM   22  C   UNL     1     -39.506  50.771 -51.568  1.00  0.00     0.235 C 
ENDBRANCH  15  16
ENDBRANCH  12  15
ENDBRANCH   7   9
ENDBRANCH   5   7
ENDBRANCH   2   5
BRANCH   1  23
HETATM   23  C   UNL     1     -41.998  58.129 -54.801  1.00  0.00     0.035 A 
HETATM   24  C   UNL     1     -42.220  58.819 -56.002  1.00  0.00     0.020 A 
HETATM   25  C   UNL     1     -42.523  58.109 -57.163  1.00  0.00     0.040 A 
HETATM   26  C   UNL     1     -42.627  56.719 -57.124  1.00  0.00     0.102 A 
HETATM   27  C   UNL     1     -42.429  56.035 -55.920  1.00  0.00     0.102 A 
HETATM   28  C   UNL     1     -42.146  56.740 -54.748  1.00  0.00     0.056 A 
BRANCH  26  29
HETATM   29  O   UNL     1     -42.785  56.100 -58.330  1.00  0.00    -0.344 OA
BRANCH  29  30
HETATM   30  C   UNL     1     -42.882  57.008 -59.430  1.00  0.00     0.214 C 
BRANCH  30  31
HETATM   31  C   UNL     1     -44.305  56.892 -59.924  1.00  0.00    -0.034 A 
HETATM   32  C   UNL     1     -44.725  55.725 -60.583  1.00  0.00     0.011 A 
HETATM   33  C   UNL     1     -46.011  55.638 -61.122  1.00  0.00     0.024 A 
HETATM   34  C   UNL     1     -46.882  56.718 -61.007  1.00  0.00     0.034 A 
HETATM   35 CL   UNL     1     -48.455  56.622 -61.696  1.00  0.00    -0.084 Cl
HETATM   36  C   UNL     1     -46.482  57.881 -60.352  1.00  0.00     0.024 A 
HETATM   37  C   UNL     1     -45.196  57.970 -59.814  1.00  0.00     0.011 A 
ENDBRANCH  30  31
ENDBRANCH  29  30
ENDBRANCH  26  29
BRANCH  27  38
HETATM   38  O   UNL     1     -42.524  54.673 -55.837  1.00  0.00    -0.353 OA
HETATM   39  C   UNL     1     -43.172  54.288 -54.624  1.00  0.00     0.210 C 
ENDBRANCH  27  38
ENDBRANCH   1  23
TORSDOF 10
ENDMDL
MODEL 3
REMARK VINA RESULT:      -8.5      1.287      2.098
REMARK  10 active torsions:
REMARK  status: ('A' for Active; 'I' for Inactive)
REMARK    1  A    between atoms: O_2  and  C_3 
REMARK    2  A    between atoms: C_4  and  O_5 
REMARK    3  A    between atoms: O_5  and  C_6 
REMARK    4  A    between atoms: C_6  and  C_7 
REMARK    5  A    between atoms: C_16  and  C_17 
REMARK       I    between atoms: C_17  and  N_18 
REMARK    6  A    between atoms: N_18  and  C_19 
REMARK    7  A    between atoms: C_19  and  N_20 
REMARK    8  A    between atoms: N_20  and  C_21 
REMARK    9  A    between atoms: C_24  and  C_25 
REMARK   10  A    between atoms: C_25  and  N_26 
ROOT
HETATM    1  C   UNL     1     -45.322  59.357 -50.692  1.00  0.00     0.257 C 
HETATM    2  N   UNL     1     -44.890  60.651 -50.413  1.00  0.00    -0.299 N 
HETATM    3  O   UNL     1     -46.462  58.948 -50.527  1.00  0.00    -0.267 OA
HETATM    4  H   UNL     1     -43.902  60.745 -50.239  1.00  0.00     0.171 HD
ENDROOT
BRANCH   2   5
HETATM    5  C   UNL     1     -45.438  61.830 -50.873  1.00  0.00     0.179 C 
HETATM    6  S   UNL     1     -46.736  62.648 -50.217  1.00  0.00    -0.040 SA
BRANCH   5   7
HETATM    7  N   UNL     1     -44.935  62.293 -52.067  1.00  0.00    -0.333 N 
HETATM    8  H   UNL     1     -44.748  63.293 -52.052  1.00  0.00     0.168 HD
BRANCH   7   9
HETATM    9  C   UNL     1     -44.526  61.599 -53.222  1.00  0.00     0.034 A 
HETATM   10  C   UNL     1     -43.166  61.616 -53.543  1.00  0.00     0.030 A 
HETATM   11  C   UNL     1     -42.678  60.920 -54.659  1.00  0.00     0.011 A 
HETATM   12  C   UNL     1     -43.536  60.156 -55.460  1.00  0.00    -0.032 A 
HETATM   13  C   UNL     1     -44.899  60.126 -55.110  1.00  0.00     0.011 A 
HETATM   14  C   UNL     1     -45.390  60.842 -54.010  1.00  0.00     0.030 A 
BRANCH  12  15
HETATM   15  C   UNL     1     -43.109  59.339 -56.659  1.00  0.00     0.273 C 
BRANCH  15  16
HETATM   16  N   UNL     1     -43.350  57.842 -56.608  1.00  0.00    -0.067 N 
HETATM   17  H   UNL     1     -44.368  57.710 -56.635  1.00  0.00     0.280 HD
HETATM   18  C   UNL     1     -42.726  57.115 -57.780  1.00  0.00     0.235 C 
HETATM   19  C   UNL     1     -43.132  55.649 -57.733  1.00  0.00     0.028 C 
HETATM   20  C   UNL     1     -42.731  54.998 -56.413  1.00  0.00     0.003 C 
HETATM   21  C   UNL     1     -43.269  55.785 -55.224  1.00  0.00     0.028 C 
HETATM   22  C   UNL     1     -42.880  57.255 -55.293  1.00  0.00     0.235 C 
ENDBRANCH  15  16
ENDBRANCH  12  15
ENDBRANCH   7   9
ENDBRANCH   5   7
ENDBRANCH   2   5
BRANCH   1  23
HETATM   23  C   UNL     1     -44.218  58.406 -50.995  1.00  0.00     0.035 A 
HETATM   24  C   UNL     1     -44.465  57.026 -51.034  1.00  0.00     0.020 A 
HETATM   25  C   UNL     1     -43.454  56.151 -51.430  1.00  0.00     0.040 A 
HETATM   26  C   UNL     1     -42.194  56.647 -51.764  1.00  0.00     0.102 A 
HETATM   27  C   UNL     1     -41.942  58.021 -51.700  1.00  0.00     0.102 A 
HETATM   28  C   UNL     1     -42.943  58.901 -51.284  1.00  0.00     0.056 A 
BRANCH  26  29
HETATM   29  O   UNL     1     -41.313  55.737 -52.274  1.00  0.00    -0.344 OA
BRANCH  29  30
HETATM   30  C   UNL     1     -40.889  54.756 -51.324  1.00  0.00     0.214 C 
BRANCH  30  31
HETATM   31  C   UNL     1     -40.606  53.510 -52.131  1.00  0.00    -0.034 A 
HETATM   32  C   UNL     1     -39.883  52.453 -51.555  1.00  0.00     0.011 A 
HETATM   33  C   UNL     1     -39.539  51.332 -52.314  1.00  0.00     0.024 A 
HETATM   34  C   UNL     1     -39.914  51.265 -53.654  1.00  0.00     0.034 A 
HETATM   35 CL   UNL     1     -39.464  49.898 -54.598  1.00  0.00    -0.084 Cl
HETATM   36  C   UNL     1     -40.635  52.303 -54.238  1.00  0.00     0.024 A 
HETATM   37  C   UNL     1     -40.979  53.426 -53.480  1.00  0.00     0.011 A 
ENDBRANCH  30  31
ENDBRANCH  29  30
ENDBRANCH  26  29
BRANCH  27  38
HETATM   38  O   UNL     1     -40.720  58.548 -52.016  1.00  0.00    -0.353 OA
HETATM   39  C   UNL     1     -40.088  59.083 -50.852  1.00  0.00     0.210 C 
ENDBRANCH  27  38
ENDBRANCH   1  23
TORSDOF 10
ENDMDL
MODEL 4
REMARK VINA RESULT:      -7.8      3.403      7.350
REMARK  10 active torsions:
REMARK  status: ('A' for Active; 'I' for Inactive)
REMARK    1  A    between atoms: O_2  and  C_3 
REMARK    2  A    between atoms: C_4  and  O_5 
REMARK    3  A    between atoms: O_5  and  C_6 
REMARK    4  A    between atoms: C_6  and  C_7 
REMARK    5  A    between atoms: C_16  and  C_17 
REMARK       I    between atoms: C_17  and  N_18 
REMARK    6  A    between atoms: N_18  and  C_19 
REMARK    7  A    between atoms: C_19  and  N_20 
REMARK    8  A    between atoms: N_20  and  C_21 
REMARK    9  A    between atoms: C_24  and  C_25 
REMARK   10  A    between atoms: C_25  and  N_26 
ROOT
HETATM    1  C   UNL     1     -43.135  58.949 -53.154  1.00  0.00     0.257 C 
HETATM    2  N   UNL     1     -44.447  58.706 -52.760  1.00  0.00    -0.299 N 
HETATM    3  O   UNL     1     -42.330  59.626 -52.531  1.00  0.00    -0.267 OA
HETATM    4  H   UNL     1     -45.082  58.469 -53.506  1.00  0.00     0.171 HD
ENDROOT
BRANCH   2   5
HETATM    5  C   UNL     1     -44.875  58.199 -51.551  1.00  0.00     0.179 C 
HETATM    6  S   UNL     1     -45.439  59.075 -50.247  1.00  0.00    -0.040 SA
BRANCH   5   7
HETATM    7  N   UNL     1     -44.687  56.848 -51.373  1.00  0.00    -0.333 N 
HETATM    8  H   UNL     1     -45.559  56.350 -51.206  1.00  0.00     0.168 HD
BRANCH   7   9
HETATM    9  C   UNL     1     -43.532  56.055 -51.513  1.00  0.00     0.034 A 
HETATM   10  C   UNL     1     -42.450  56.326 -50.672  1.00  0.00     0.030 A 
HETATM   11  C   UNL     1     -41.279  55.557 -50.728  1.00  0.00     0.011 A 
HETATM   12  C   UNL     1     -41.177  54.469 -51.604  1.00  0.00    -0.032 A 
HETATM   13  C   UNL     1     -42.283  54.190 -52.428  1.00  0.00     0.011 A 
HETATM   14  C   UNL     1     -43.443  54.974 -52.388  1.00  0.00     0.030 A 
BRANCH  12  15
HETATM   15  C   UNL     1     -39.977  53.554 -51.718  1.00  0.00     0.273 C 
BRANCH  15  16
HETATM   16  N   UNL     1     -40.198  52.186 -52.334  1.00  0.00    -0.067 N 
HETATM   17  H   UNL     1     -41.189  51.958 -52.189  1.00  0.00     0.280 HD
HETATM   18  C   UNL     1     -39.898  52.164 -53.818  1.00  0.00     0.235 C 
HETATM   19  C   UNL     1     -40.280  50.804 -54.386  1.00  0.00     0.028 C 
HETATM   20  C   UNL     1     -39.553  49.672 -53.667  1.00  0.00     0.003 C 
HETATM   21  C   UNL     1     -39.766  49.749 -52.160  1.00  0.00     0.028 C 
HETATM   22  C   UNL     1     -39.406  51.120 -51.605  1.00  0.00     0.235 C 
ENDBRANCH  15  16
ENDBRANCH  12  15
ENDBRANCH   7   9
ENDBRANCH   5   7
ENDBRANCH   2   5
BRANCH   1  23
HETATM   23  C   UNL     1     -42.831  58.510 -54.543  1.00  0.00     0.035 A 
HETATM   24  C   UNL     1     -42.352  57.213 -54.785  1.00  0.00     0.020 A 
HETATM   25  C   UNL     1     -42.180  56.772 -56.096  1.00  0.00     0.040 A 
HETATM   26  C   UNL     1     -42.461  57.626 -57.163  1.00  0.00     0.102 A 
HETATM   27  C   UNL     1     -42.914  58.926 -56.919  1.00  0.00     0.102 A 
HETATM   28  C   UNL     1     -43.070  59.383 -55.608  1.00  0.00     0.056 A 
BRANCH  26  29
HETATM   29  O   UNL     1     -42.399  57.065 -58.406  1.00  0.00    -0.344 OA
BRANCH  29  30
HETATM   30  C   UNL     1     -43.048  55.794 -58.493  1.00  0.00     0.214 C 
BRANCH  30  31
HETATM   31  C   UNL     1     -44.271  56.023 -59.350  1.00  0.00    -0.034 A 
HETATM   32  C   UNL     1     -45.258  56.930 -58.932  1.00  0.00     0.011 A 
HETATM   33  C   UNL     1     -46.434  57.088 -59.669  1.00  0.00     0.024 A 
HETATM   34  C   UNL     1     -46.630  56.337 -60.825  1.00  0.00     0.034 A 
HETATM   35 CL   UNL     1     -48.091  56.510 -61.717  1.00  0.00    -0.084 Cl
HETATM   36  C   UNL     1     -45.658  55.437 -61.255  1.00  0.00     0.024 A 
HETATM   37  C   UNL     1     -44.481  55.277 -60.519  1.00  0.00     0.011 A 
ENDBRANCH  30  31
ENDBRANCH  29  30
ENDBRANCH  26  29
BRANCH  27  38
HETATM   38  O   UNL     1     -43.199  59.796 -57.936  1.00  0.00    -0.353 OA
HETATM   39  C   UNL     1     -44.161  60.763 -57.513  1.00  0.00     0.210 C 
ENDBRANCH  27  38
ENDBRANCH   1  23
TORSDOF 10
ENDMDL
MODEL 5
REMARK VINA RESULT:      -7.8      4.515      8.315
REMARK  10 active torsions:
REMARK  status: ('A' for Active; 'I' for Inactive)
REMARK    1  A    between atoms: O_2  and  C_3 
REMARK    2  A    between atoms: C_4  and  O_5 
REMARK    3  A    between atoms: O_5  and  C_6 
REMARK    4  A    between atoms: C_6  and  C_7 
REMARK    5  A    between atoms: C_16  and  C_17 
REMARK       I    between atoms: C_17  and  N_18 
REMARK    6  A    between atoms: N_18  and  C_19 
REMARK    7  A    between atoms: C_19  and  N_20 
REMARK    8  A    between atoms: N_20  and  C_21 
REMARK    9  A    between atoms: C_24  and  C_25 
REMARK   10  A    between atoms: C_25  and  N_26 
ROOT
HETATM    1  C   UNL     1     -44.923  58.110 -55.498  1.00  0.00     0.257 C 
HETATM    2  N   UNL     1     -43.855  58.087 -56.389  1.00  0.00    -0.299 N 
HETATM    3  O   UNL     1     -46.057  57.731 -55.754  1.00  0.00    -0.267 OA
HETATM    4  H   UNL     1     -43.117  58.745 -56.190  1.00  0.00     0.171 HD
ENDROOT
BRANCH   2   5
HETATM    5  C   UNL     1     -43.389  57.005 -57.107  1.00  0.00     0.179 C 
HETATM    6  S   UNL     1     -42.858  57.014 -58.689  1.00  0.00    -0.040 SA
BRANCH   5   7
HETATM    7  N   UNL     1     -43.505  55.785 -56.483  1.00  0.00    -0.333 N 
HETATM    8  H   UNL     1     -44.182  55.175 -56.938  1.00  0.00     0.168 HD
BRANCH   7   9
HETATM    9  C   UNL     1     -42.763  55.216 -55.430  1.00  0.00     0.034 A 
HETATM   10  C   UNL     1     -41.380  55.411 -55.430  1.00  0.00     0.030 A 
HETATM   11  C   UNL     1     -40.578  54.905 -54.396  1.00  0.00     0.011 A 
HETATM   12  C   UNL     1     -41.149  54.224 -53.314  1.00  0.00    -0.032 A 
HETATM   13  C   UNL     1     -42.546  54.057 -53.313  1.00  0.00     0.011 A 
HETATM   14  C   UNL     1     -43.343  54.541 -54.358  1.00  0.00     0.030 A 
BRANCH  12  15
HETATM   15  C   UNL     1     -40.383  53.672 -52.132  1.00  0.00     0.273 C 
BRANCH  15  16
HETATM   16  N   UNL     1     -39.780  52.288 -52.274  1.00  0.00    -0.067 N 
HETATM   17  H   UNL     1     -38.762  52.417 -52.326  1.00  0.00     0.280 HD
HETATM   18  C   UNL     1     -40.105  51.392 -51.097  1.00  0.00     0.235 C 
HETATM   19  C   UNL     1     -39.350  50.078 -51.245  1.00  0.00     0.028 C 
HETATM   20  C   UNL     1     -39.681  49.386 -52.563  1.00  0.00     0.003 C 
HETATM   21  C   UNL     1     -39.456  50.319 -53.748  1.00  0.00     0.028 C 
HETATM   22  C   UNL     1     -40.194  51.639 -53.579  1.00  0.00     0.235 C 
ENDBRANCH  15  16
ENDBRANCH  12  15
ENDBRANCH   7   9
ENDBRANCH   5   7
ENDBRANCH   2   5
BRANCH   1  23
HETATM   23  C   UNL     1     -44.648  58.865 -54.245  1.00  0.00     0.035 A 
HETATM   24  C   UNL     1     -45.318  60.069 -53.984  1.00  0.00     0.020 A 
HETATM   25  C   UNL     1     -45.139  60.710 -52.759  1.00  0.00     0.040 A 
HETATM   26  C   UNL     1     -44.279  60.166 -51.805  1.00  0.00     0.102 A 
HETATM   27  C   UNL     1     -43.592  58.978 -52.078  1.00  0.00     0.102 A 
HETATM   28  C   UNL     1     -43.750  58.341 -53.311  1.00  0.00     0.056 A 
BRANCH  26  29
HETATM   29  O   UNL     1     -44.275  60.781 -50.587  1.00  0.00    -0.344 OA
BRANCH  29  30
HETATM   30  C   UNL     1     -45.461  60.546 -49.824  1.00  0.00     0.214 C 
BRANCH  30  31
HETATM   31  C   UNL     1     -45.289  61.348 -48.555  1.00  0.00    -0.034 A 
HETATM   32  C   UNL     1     -45.521  60.745 -47.308  1.00  0.00     0.011 A 
HETATM   33  C   UNL     1     -45.452  61.495 -46.132  1.00  0.00     0.024 A 
HETATM   34  C   UNL     1     -45.153  62.854 -46.198  1.00  0.00     0.034 A 
HETATM   35 CL   UNL     1     -45.097  63.785 -44.752  1.00  0.00    -0.084 Cl
HETATM   36  C   UNL     1     -44.915  63.466 -47.426  1.00  0.00     0.024 A 
HETATM   37  C   UNL     1     -44.986  62.716 -48.604  1.00  0.00     0.011 A 
ENDBRANCH  30  31
ENDBRANCH  29  30
ENDBRANCH  26  29
BRANCH  27  38
HETATM   38  O   UNL     1     -42.737  58.411 -51.172  1.00  0.00    -0.353 OA
HETATM   39  C   UNL     1     -42.822  56.987 -51.226  1.00  0.00     0.210 C 
ENDBRANCH  27  38
ENDBRANCH   1  23
TORSDOF 10
ENDMDL
MODEL 6
REMARK VINA RESULT:      -7.7      1.776      2.229
REMARK  10 active torsions:
REMARK  status: ('A' for Active; 'I' for Inactive)
REMARK    1  A    between atoms: O_2  and  C_3 
REMARK    2  A    between atoms: C_4  and  O_5 
REMARK    3  A    between atoms: O_5  and  C_6 
REMARK    4  A    between atoms: C_6  and  C_7 
REMARK    5  A    between atoms: C_16  and  C_17 
REMARK       I    between atoms: C_17  and  N_18 
REMARK    6  A    between atoms: N_18  and  C_19 
REMARK    7  A    between atoms: C_19  and  N_20 
REMARK    8  A    between atoms: N_20  and  C_21 
REMARK    9  A    between atoms: C_24  and  C_25 
REMARK   10  A    between atoms: C_25  and  N_26 
ROOT
HETATM    1  C   UNL     1     -45.188  58.844 -51.133  1.00  0.00     0.257 C 
HETATM    2  N   UNL     1     -44.476  60.029 -50.974  1.00  0.00    -0.299 N 
HETATM    3  O   UNL     1     -46.285  58.614 -50.645  1.00  0.00    -0.267 OA
HETATM    4  H   UNL     1     -43.479  59.950 -51.099  1.00  0.00     0.171 HD
ENDROOT
BRANCH   2   5
HETATM    5  C   UNL     1     -44.919  61.310 -51.230  1.00  0.00     0.179 C 
HETATM    6  S   UNL     1     -46.049  62.168 -50.352  1.00  0.00    -0.040 SA
BRANCH   5   7
HETATM    7  N   UNL     1     -44.472  61.869 -52.405  1.00  0.00    -0.333 N 
HETATM    8  H   UNL     1     -43.895  62.693 -52.252  1.00  0.00     0.168 HD
BRANCH   7   9
HETATM    9  C   UNL     1     -44.573  61.416 -53.735  1.00  0.00     0.034 A 
HETATM   10  C   UNL     1     -43.389  61.247 -54.456  1.00  0.00     0.030 A 
HETATM   11  C   UNL     1     -43.406  60.767 -55.774  1.00  0.00     0.011 A 
HETATM   12  C   UNL     1     -44.612  60.407 -56.390  1.00  0.00    -0.032 A 
HETATM   13  C   UNL     1     -45.796  60.558 -55.644  1.00  0.00     0.011 A 
HETATM   14  C   UNL     1     -45.778  61.060 -54.336  1.00  0.00     0.030 A 
BRANCH  12  15
HETATM   15  C   UNL     1     -44.740  59.845 -57.789  1.00  0.00     0.273 C 
BRANCH  15  16
HETATM   16  N   UNL     1     -43.859  58.665 -58.151  1.00  0.00    -0.067 N 
HETATM   17  H   UNL     1     -43.308  58.444 -57.312  1.00  0.00     0.280 HD
HETATM   18  C   UNL     1     -44.661  57.444 -58.550  1.00  0.00     0.235 C 
HETATM   19  C   UNL     1     -43.715  56.269 -58.757  1.00  0.00     0.028 C 
HETATM   20  C   UNL     1     -42.650  56.584 -59.801  1.00  0.00     0.003 C 
HETATM   21  C   UNL     1     -41.907  57.871 -59.460  1.00  0.00     0.028 C 
HETATM   22  C   UNL     1     -42.861  59.034 -59.230  1.00  0.00     0.235 C 
ENDBRANCH  15  16
ENDBRANCH  12  15
ENDBRANCH   7   9
ENDBRANCH   5   7
ENDBRANCH   2   5
BRANCH   1  23
HETATM   23  C   UNL     1     -44.402  57.750 -51.767  1.00  0.00     0.035 A 
HETATM   24  C   UNL     1     -43.892  56.703 -50.985  1.00  0.00     0.020 A 
HETATM   25  C   UNL     1     -43.257  55.624 -51.599  1.00  0.00     0.040 A 
HETATM   26  C   UNL     1     -43.109  55.600 -52.986  1.00  0.00     0.102 A 
HETATM   27  C   UNL     1     -43.596  56.657 -53.762  1.00  0.00     0.102 A 
HETATM   28  C   UNL     1     -44.215  57.750 -53.151  1.00  0.00     0.056 A 
BRANCH  26  29
HETATM   29  O   UNL     1     -42.604  54.445 -53.510  1.00  0.00    -0.344 OA
BRANCH  29  30
HETATM   30  C   UNL     1     -41.198  54.499 -53.765  1.00  0.00     0.214 C 
BRANCH  30  31
HETATM   31  C   UNL     1     -40.608  53.322 -53.022  1.00  0.00    -0.034 A 
HETATM   32  C   UNL     1     -40.198  52.182 -53.731  1.00  0.00     0.011 A 
HETATM   33  C   UNL     1     -39.733  51.053 -53.053  1.00  0.00     0.024 A 
HETATM   34  C   UNL     1     -39.678  51.060 -51.661  1.00  0.00     0.034 A 
HETATM   35 CL   UNL     1     -39.133  49.659 -50.823  1.00  0.00    -0.084 Cl
HETATM   36  C   UNL     1     -40.076  52.185 -50.944  1.00  0.00     0.024 A 
HETATM   37  C   UNL     1     -40.544  53.314 -51.622  1.00  0.00     0.011 A 
ENDBRANCH  30  31
ENDBRANCH  29  30
ENDBRANCH  26  29
BRANCH  27  38
HETATM   38  O   UNL     1     -43.470  56.674 -55.124  1.00  0.00    -0.353 OA
HETATM   39  C   UNL     1     -42.274  57.354 -55.508  1.00  0.00     0.210 C 
ENDBRANCH  27  38
ENDBRANCH   1  23
TORSDOF 10
ENDMDL
MODEL 7
REMARK VINA RESULT:      -7.7      3.617      6.679
REMARK  10 active torsions:
REMARK  status: ('A' for Active; 'I' for Inactive)
REMARK    1  A    between atoms: O_2  and  C_3 
REMARK    2  A    between atoms: C_4  and  O_5 
REMARK    3  A    between atoms: O_5  and  C_6 
REMARK    4  A    between atoms: C_6  and  C_7 
REMARK    5  A    between atoms: C_16  and  C_17 
REMARK       I    between atoms: C_17  and  N_18 
REMARK    6  A    between atoms: N_18  and  C_19 
REMARK    7  A    between atoms: C_19  and  N_20 
REMARK    8  A    between atoms: N_20  and  C_21 
REMARK    9  A    between atoms: C_24  and  C_25 
REMARK   10  A    between atoms: C_25  and  N_26 
ROOT
HETATM    1  C   UNL     1     -42.785  58.990 -60.597  1.00  0.00     0.257 C 
HETATM    2  N   UNL     1     -44.054  59.414 -60.979  1.00  0.00    -0.299 N 
HETATM    3  O   UNL     1     -41.741  59.333 -61.133  1.00  0.00    -0.267 OA
HETATM    4  H   UNL     1     -44.808  58.797 -60.722  1.00  0.00     0.171 HD
ENDROOT
BRANCH   2   5
HETATM    5  C   UNL     1     -44.492  60.714 -61.124  1.00  0.00     0.179 C 
HETATM    6  S   UNL     1     -44.321  61.678 -62.476  1.00  0.00    -0.040 SA
BRANCH   5   7
HETATM    7  N   UNL     1     -44.997  61.301 -59.987  1.00  0.00    -0.333 N 
HETATM    8  H   UNL     1     -45.901  61.741 -60.142  1.00  0.00     0.168 HD
BRANCH   7   9
HETATM    9  C   UNL     1     -44.538  61.272 -58.656  1.00  0.00     0.034 A 
HETATM   10  C   UNL     1     -45.241  60.484 -57.742  1.00  0.00     0.030 A 
HETATM   11  C   UNL     1     -44.824  60.377 -56.407  1.00  0.00     0.011 A 
HETATM   12  C   UNL     1     -43.666  61.029 -55.963  1.00  0.00    -0.032 A 
HETATM   13  C   UNL     1     -42.952  61.799 -56.900  1.00  0.00     0.011 A 
HETATM   14  C   UNL     1     -43.383  61.924 -58.228  1.00  0.00     0.030 A 
BRANCH  12  15
HETATM   15  C   UNL     1     -43.108  60.951 -54.559  1.00  0.00     0.273 C 
BRANCH  15  16
HETATM   16  N   UNL     1     -42.748  59.578 -54.026  1.00  0.00    -0.067 N 
HETATM   17  H   UNL     1     -43.148  58.896 -54.682  1.00  0.00     0.280 HD
HETATM   18  C   UNL     1     -41.251  59.364 -53.943  1.00  0.00     0.235 C 
HETATM   19  C   UNL     1     -40.973  57.923 -53.539  1.00  0.00     0.028 C 
HETATM   20  C   UNL     1     -41.647  57.570 -52.217  1.00  0.00     0.003 C 
HETATM   21  C   UNL     1     -43.138  57.882 -52.258  1.00  0.00     0.028 C 
HETATM   22  C   UNL     1     -43.407  59.317 -52.687  1.00  0.00     0.235 C 
ENDBRANCH  15  16
ENDBRANCH  12  15
ENDBRANCH   7   9
ENDBRANCH   5   7
ENDBRANCH   2   5
BRANCH   1  23
HETATM   23  C   UNL     1     -42.794  57.876 -59.610  1.00  0.00     0.035 A 
HETATM   24  C   UNL     1     -42.331  58.088 -58.302  1.00  0.00     0.020 A 
HETATM   25  C   UNL     1     -42.449  57.074 -57.353  1.00  0.00     0.040 A 
HETATM   26  C   UNL     1     -43.004  55.845 -57.710  1.00  0.00     0.102 A 
HETATM   27  C   UNL     1     -43.441  55.627 -59.020  1.00  0.00     0.102 A 
HETATM   28  C   UNL     1     -43.308  56.631 -59.982  1.00  0.00     0.056 A 
BRANCH  26  29
HETATM   29  O   UNL     1     -43.208  54.965 -56.686  1.00  0.00    -0.344 OA
BRANCH  29  30
HETATM   30  C   UNL     1     -43.146  55.569 -55.392  1.00  0.00     0.214 C 
BRANCH  30  31
HETATM   31  C   UNL     1     -42.297  54.640 -54.554  1.00  0.00    -0.034 A 
HETATM   32  C   UNL     1     -42.678  54.340 -53.237  1.00  0.00     0.011 A 
HETATM   33  C   UNL     1     -41.860  53.555 -52.422  1.00  0.00     0.024 A 
HETATM   34  C   UNL     1     -40.654  53.068 -52.921  1.00  0.00     0.034 A 
HETATM   35 CL   UNL     1     -39.631  52.125 -51.908  1.00  0.00    -0.084 Cl
HETATM   36  C   UNL     1     -40.264  53.353 -54.227  1.00  0.00     0.024 A 
HETATM   37  C   UNL     1     -41.081  54.140 -55.043  1.00  0.00     0.011 A 
ENDBRANCH  30  31
ENDBRANCH  29  30
ENDBRANCH  26  29
BRANCH  27  38
HETATM   38  O   UNL     1     -43.989  54.437 -59.413  1.00  0.00    -0.353 OA
HETATM   39  C   UNL     1     -45.089  54.658 -60.296  1.00  0.00     0.210 C 
ENDBRANCH  27  38
ENDBRANCH   1  23
TORSDOF 10
ENDMDL
MODEL 8
REMARK VINA RESULT:      -7.7      1.882      2.701
REMARK  10 active torsions:
REMARK  status: ('A' for Active; 'I' for Inactive)
REMARK    1  A    between atoms: O_2  and  C_3 
REMARK    2  A    between atoms: C_4  and  O_5 
REMARK    3  A    between atoms: O_5  and  C_6 
REMARK    4  A    between atoms: C_6  and  C_7 
REMARK    5  A    between atoms: C_16  and  C_17 
REMARK       I    between atoms: C_17  and  N_18 
REMARK    6  A    between atoms: N_18  and  C_19 
REMARK    7  A    between atoms: C_19  and  N_20 
REMARK    8  A    between atoms: N_20  and  C_21 
REMARK    9  A    between atoms: C_24  and  C_25 
REMARK   10  A    between atoms: C_25  and  N_26 
ROOT
HETATM    1  C   UNL     1     -44.648  60.248 -53.232  1.00  0.00     0.257 C 
HETATM    2  N   UNL     1     -43.724  61.276 -53.385  1.00  0.00    -0.299 N 
HETATM    3  O   UNL     1     -45.856  60.402 -53.116  1.00  0.00    -0.267 OA
HETATM    4  H   UNL     1     -42.783  61.053 -53.099  1.00  0.00     0.171 HD
ENDROOT
BRANCH   2   5
HETATM    5  C   UNL     1     -43.741  62.280 -54.331  1.00  0.00     0.179 C 
HETATM    6  S   UNL     1     -44.789  63.577 -54.389  1.00  0.00    -0.040 SA
BRANCH   5   7
HETATM    7  N   UNL     1     -42.889  62.105 -55.397  1.00  0.00    -0.333 N 
HETATM    8  H   UNL     1     -42.034  62.650 -55.309  1.00  0.00     0.168 HD
BRANCH   7   9
HETATM    9  C   UNL     1     -42.953  61.219 -56.490  1.00  0.00     0.034 A 
HETATM   10  C   UNL     1     -41.761  60.914 -57.151  1.00  0.00     0.030 A 
HETATM   11  C   UNL     1     -41.739  60.013 -58.225  1.00  0.00     0.011 A 
HETATM   12  C   UNL     1     -42.909  59.363 -58.640  1.00  0.00    -0.032 A 
HETATM   13  C   UNL     1     -44.099  59.660 -57.949  1.00  0.00     0.011 A 
HETATM   14  C   UNL     1     -44.123  60.578 -56.892  1.00  0.00     0.030 A 
BRANCH  12  15
HETATM   15  C   UNL     1     -42.990  58.349 -59.759  1.00  0.00     0.273 C 
BRANCH  15  16
HETATM   16  N   UNL     1     -43.853  57.123 -59.530  1.00  0.00    -0.067 N 
HETATM   17  H   UNL     1     -44.198  57.185 -58.565  1.00  0.00     0.280 HD
HETATM   18  C   UNL     1     -45.036  57.064 -60.474  1.00  0.00     0.235 C 
HETATM   19  C   UNL     1     -45.926  55.891 -60.087  1.00  0.00     0.028 C 
HETATM   20  C   UNL     1     -45.156  54.575 -60.098  1.00  0.00     0.003 C 
HETATM   21  C   UNL     1     -43.905  54.661 -59.232  1.00  0.00     0.028 C 
HETATM   22  C   UNL     1     -43.034  55.851 -59.609  1.00  0.00     0.235 C 
ENDBRANCH  15  16
ENDBRANCH  12  15
ENDBRANCH   7   9
ENDBRANCH   5   7
ENDBRANCH   2   5
BRANCH   1  23
HETATM   23  C   UNL     1     -44.033  58.917 -52.977  1.00  0.00     0.035 A 
HETATM   24  C   UNL     1     -44.387  58.181 -51.837  1.00  0.00     0.020 A 
HETATM   25  C   UNL     1     -43.893  56.888 -51.664  1.00  0.00     0.040 A 
HETATM   26  C   UNL     1     -43.031  56.339 -52.613  1.00  0.00     0.102 A 
HETATM   27  C   UNL     1     -42.659  57.084 -53.737  1.00  0.00     0.102 A 
HETATM   28  C   UNL     1     -43.133  58.387 -53.905  1.00  0.00     0.056 A 
BRANCH  26  29
HETATM   29  O   UNL     1     -42.712  55.023 -52.436  1.00  0.00    -0.344 OA
BRANCH  29  30
HETATM   30  C   UNL     1     -41.412  54.820 -51.876  1.00  0.00     0.214 C 
BRANCH  30  31
HETATM   31  C   UNL     1     -40.916  53.522 -52.470  1.00  0.00    -0.034 A 
HETATM   32  C   UNL     1     -40.044  52.703 -51.734  1.00  0.00     0.011 A 
HETATM   33  C   UNL     1     -39.508  51.546 -52.302  1.00  0.00     0.024 A 
HETATM   34  C   UNL     1     -39.840  51.202 -53.610  1.00  0.00     0.034 A 
HETATM   35 CL   UNL     1     -39.157  49.791 -54.321  1.00  0.00    -0.084 Cl
HETATM   36  C   UNL     1     -40.707  52.001 -54.352  1.00  0.00     0.024 A 
HETATM   37  C   UNL     1     -41.243  53.161 -53.785  1.00  0.00     0.011 A 
ENDBRANCH  30  31
ENDBRANCH  29  30
ENDBRANCH  26  29
BRANCH  27  38
HETATM   38  O   UNL     1     -41.814  56.584 -54.689  1.00  0.00    -0.353 OA
HETATM   39  C   UNL     1     -42.474  56.507 -55.954  1.00  0.00     0.210 C 
ENDBRANCH  27  38
ENDBRANCH   1  23
TORSDOF 10
ENDMDL
MODEL 9
REMARK VINA RESULT:      -7.6      2.813      5.895
REMARK  10 active torsions:
REMARK  status: ('A' for Active; 'I' for Inactive)
REMARK    1  A    between atoms: O_2  and  C_3 
REMARK    2  A    between atoms: C_4  and  O_5 
REMARK    3  A    between atoms: O_5  and  C_6 
REMARK    4  A    between atoms: C_6  and  C_7 
REMARK    5  A    between atoms: C_16  and  C_17 
REMARK       I    between atoms: C_17  and  N_18 
REMARK    6  A    between atoms: N_18  and  C_19 
REMARK    7  A    between atoms: C_19  and  N_20 
REMARK    8  A    between atoms: N_20  and  C_21 
REMARK    9  A    between atoms: C_24  and  C_25 
REMARK   10  A    between atoms: C_25  and  N_26 
ROOT
HETATM    1  C   UNL     1     -42.170  60.240 -57.393  1.00  0.00     0.257 C 
HETATM    2  N   UNL     1     -43.333  60.807 -57.906  1.00  0.00    -0.299 N 
HETATM    3  O   UNL     1     -41.058  60.745 -57.454  1.00  0.00    -0.267 OA
HETATM    4  H   UNL     1     -44.071  60.153 -58.118  1.00  0.00     0.171 HD
ENDROOT
BRANCH   2   5
HETATM    5  C   UNL     1     -43.831  62.067 -57.649  1.00  0.00     0.179 C 
HETATM    6  S   UNL     1     -43.382  63.487 -58.402  1.00  0.00    -0.040 SA
BRANCH   5   7
HETATM    7  N   UNL     1     -44.684  62.161 -56.574  1.00  0.00    -0.333 N 
HETATM    8  H   UNL     1     -45.555  62.633 -56.806  1.00  0.00     0.168 HD
BRANCH   7   9
HETATM    9  C   UNL     1     -44.598  61.607 -55.282  1.00  0.00     0.034 A 
HETATM   10  C   UNL     1     -43.730  62.213 -54.371  1.00  0.00     0.030 A 
HETATM   11  C   UNL     1     -43.617  61.741 -53.055  1.00  0.00     0.011 A 
HETATM   12  C   UNL     1     -44.402  60.670 -52.608  1.00  0.00    -0.032 A 
HETATM   13  C   UNL     1     -45.291  60.085 -53.528  1.00  0.00     0.011 A 
HETATM   14  C   UNL     1     -45.386  60.543 -54.849  1.00  0.00     0.030 A 
BRANCH  12  15
HETATM   15  C   UNL     1     -44.386  60.108 -51.204  1.00  0.00     0.273 C 
BRANCH  15  16
HETATM   16  N   UNL     1     -43.148  59.347 -50.770  1.00  0.00    -0.067 N 
HETATM   17  H   UNL     1     -43.374  58.912 -49.867  1.00  0.00     0.280 HD
HETATM   18  C   UNL     1     -42.759  58.265 -51.755  1.00  0.00     0.235 C 
HETATM   19  C   UNL     1     -41.602  57.458 -51.182  1.00  0.00     0.028 C 
HETATM   20  C   UNL     1     -40.408  58.347 -50.851  1.00  0.00     0.003 C 
HETATM   21  C   UNL     1     -40.815  59.500 -49.941  1.00  0.00     0.028 C 
HETATM   22  C   UNL     1     -41.988  60.286 -50.510  1.00  0.00     0.235 C 
ENDBRANCH  15  16
ENDBRANCH  12  15
ENDBRANCH   7   9
ENDBRANCH   5   7
ENDBRANCH   2   5
BRANCH   1  23
HETATM   23  C   UNL     1     -42.332  58.827 -56.952  1.00  0.00     0.035 A 
HETATM   24  C   UNL     1     -42.350  58.511 -55.586  1.00  0.00     0.020 A 
HETATM   25  C   UNL     1     -42.615  57.204 -55.180  1.00  0.00     0.040 A 
HETATM   26  C   UNL     1     -42.839  56.210 -56.132  1.00  0.00     0.102 A 
HETATM   27  C   UNL     1     -42.796  56.522 -57.495  1.00  0.00     0.102 A 
HETATM   28  C   UNL     1     -42.510  57.825 -57.909  1.00  0.00     0.056 A 
BRANCH  26  29
HETATM   29  O   UNL     1     -43.230  54.996 -55.644  1.00  0.00    -0.344 OA
BRANCH  29  30
HETATM   30  C   UNL     1     -43.466  54.996 -54.234  1.00  0.00     0.214 C 
BRANCH  30  31
HETATM   31  C   UNL     1     -42.412  54.084 -53.649  1.00  0.00    -0.034 A 
HETATM   32  C   UNL     1     -42.147  54.114 -52.270  1.00  0.00     0.011 A 
HETATM   33  C   UNL     1     -41.117  53.343 -51.729  1.00  0.00     0.024 A 
HETATM   34  C   UNL     1     -40.345  52.538 -52.563  1.00  0.00     0.034 A 
HETATM   35 CL   UNL     1     -39.057  51.610 -51.901  1.00  0.00    -0.084 Cl
HETATM   36  C   UNL     1     -40.599  52.494 -53.932  1.00  0.00     0.024 A 
HETATM   37  C   UNL     1     -41.628  53.267 -54.476  1.00  0.00     0.011 A 
ENDBRANCH  30  31
ENDBRANCH  29  30
ENDBRANCH  26  29
BRANCH  27  38
HETATM   38  O   UNL     1     -43.008  55.577 -58.461  1.00  0.00    -0.353 OA
HETATM   39  C   UNL     1     -43.203  56.196 -59.733  1.00  0.00     0.210 C 
ENDBRANCH  27  38
ENDBRANCH   1  23
TORSDOF 10
ENDMDL
MODEL 10
REMARK VINA RESULT:      -7.6      4.507      7.386
REMARK  10 active torsions:
REMARK  status: ('A' for Active; 'I' for Inactive)
REMARK    1  A    between atoms: O_2  and  C_3 
REMARK    2  A    between atoms: C_4  and  O_5 
REMARK    3  A    between atoms: O_5  and  C_6 
REMARK    4  A    between atoms: C_6  and  C_7 
REMARK    5  A    between atoms: C_16  and  C_17 
REMARK       I    between atoms: C_17  and  N_18 
REMARK    6  A    between atoms: N_18  and  C_19 
REMARK    7  A    between atoms: C_19  and  N_20 
REMARK    8  A    between atoms: N_20  and  C_21 
REMARK    9  A    between atoms: C_24  and  C_25 
REMARK   10  A    between atoms: C_25  and  N_26 
ROOT
HETATM    1  C   UNL     1     -40.638  54.909 -50.530  1.00  0.00     0.257 C 
HETATM    2  N   UNL     1     -41.190  53.864 -51.265  1.00  0.00    -0.299 N 
HETATM    3  O   UNL     1     -39.782  54.783 -49.667  1.00  0.00    -0.267 OA
HETATM    4  H   UNL     1     -42.105  54.046 -51.648  1.00  0.00     0.171 HD
ENDROOT
BRANCH   2   5
HETATM    5  C   UNL     1     -40.514  52.912 -51.998  1.00  0.00     0.179 C 
HETATM    6  S   UNL     1     -39.741  51.558 -51.401  1.00  0.00    -0.040 SA
BRANCH   5   7
HETATM    7  N   UNL     1     -40.360  53.191 -53.336  1.00  0.00    -0.333 N 
HETATM    8  H   UNL     1     -39.698  52.567 -53.793  1.00  0.00     0.168 HD
BRANCH   7   9
HETATM    9  C   UNL     1     -41.051  54.089 -54.173  1.00  0.00     0.034 A 
HETATM   10  C   UNL     1     -42.274  53.673 -54.703  1.00  0.00     0.030 A 
HETATM   11  C   UNL     1     -43.037  54.524 -55.516  1.00  0.00     0.011 A 
HETATM   12  C   UNL     1     -42.609  55.830 -55.788  1.00  0.00    -0.032 A 
HETATM   13  C   UNL     1     -41.387  56.245 -55.227  1.00  0.00     0.011 A 
HETATM   14  C   UNL     1     -40.615  55.386 -54.435  1.00  0.00     0.030 A 
BRANCH  12  15
HETATM   15  C   UNL     1     -43.371  56.839 -56.619  1.00  0.00     0.273 C 
BRANCH  15  16
HETATM   16  N   UNL     1     -44.140  56.319 -57.818  1.00  0.00    -0.067 N 
HETATM   17  H   UNL     1     -44.744  55.564 -57.471  1.00  0.00     0.280 HD
HETATM   18  C   UNL     1     -45.002  57.386 -58.460  1.00  0.00     0.235 C 
HETATM   19  C   UNL     1     -45.846  56.754 -59.558  1.00  0.00     0.028 C 
HETATM   20  C   UNL     1     -44.979  56.055 -60.599  1.00  0.00     0.003 C 
HETATM   21  C   UNL     1     -44.033  55.053 -59.948  1.00  0.00     0.028 C 
HETATM   22  C   UNL     1     -43.212  55.688 -58.835  1.00  0.00     0.235 C 
ENDBRANCH  15  16
ENDBRANCH  12  15
ENDBRANCH   7   9
ENDBRANCH   5   7
ENDBRANCH   2   5
BRANCH   1  23
HETATM   23  C   UNL     1     -41.345  56.208 -50.704  1.00  0.00     0.035 A 
HETATM   24  C   UNL     1     -40.663  57.416 -50.498  1.00  0.00     0.020 A 
HETATM   25  C   UNL     1     -41.299  58.626 -50.773  1.00  0.00     0.040 A 
HETATM   26  C   UNL     1     -42.616  58.634 -51.231  1.00  0.00     0.102 A 
HETATM   27  C   UNL     1     -43.302  57.429 -51.412  1.00  0.00     0.102 A 
HETATM   28  C   UNL     1     -42.680  56.214 -51.118  1.00  0.00     0.056 A 
BRANCH  26  29
HETATM   29  O   UNL     1     -43.108  59.850 -51.608  1.00  0.00    -0.344 OA
BRANCH  29  30
HETATM   30  C   UNL     1     -42.411  60.955 -51.026  1.00  0.00     0.214 C 
BRANCH  30  31
HETATM   31  C   UNL     1     -43.429  61.664 -50.163  1.00  0.00    -0.034 A 
HETATM   32  C   UNL     1     -43.258  63.023 -49.852  1.00  0.00     0.011 A 
HETATM   33  C   UNL     1     -44.142  63.669 -48.985  1.00  0.00     0.024 A 
HETATM   34  C   UNL     1     -45.199  62.958 -48.422  1.00  0.00     0.034 A 
HETATM   35 CL   UNL     1     -46.271  63.746 -47.331  1.00  0.00    -0.084 Cl
HETATM   36  C   UNL     1     -45.385  61.611 -48.724  1.00  0.00     0.024 A 
HETATM   37  C   UNL     1     -44.500  60.963 -49.590  1.00  0.00     0.011 A 
ENDBRANCH  30  31
ENDBRANCH  29  30
ENDBRANCH  26  29
BRANCH  27  38
HETATM   38  O   UNL     1     -44.596  57.392 -51.857  1.00  0.00    -0.353 OA
HETATM   39  C   UNL     1     -44.644  57.572 -53.273  1.00  0.00     0.210 C 
ENDBRANCH  27  38
ENDBRANCH   1  23
TORSDOF 10
ENDMDL
