MODEL 1
REMARK VINA RESULT:      -8.1      0.000      0.000
REMARK  8 active torsions:
REMARK  status: ('A' for Active; 'I' for Inactive)
REMARK    1  A    between atoms: O_2  and  C_3 
REMARK    2  A    between atoms: C_5  and  O_6 
REMARK    3  A    between atoms: C_9  and  C_10 
REMARK    4  A    between atoms: C_10  and  N_11 
REMARK    5  A    between atoms: C_20  and  C_21 
REMARK    6  A    between atoms: C_21  and  N_22 
REMARK    7  A    between atoms: C_26  and  O_27 
REMARK    8  A    between atoms: C_26  and  C_28 
ROOT
HETATM    1  N   UNL     1     -44.235  61.555 -55.124  1.00  0.00    -0.061 N 
HETATM    2  H   UNL     1     -44.386  61.851 -56.095  1.00  0.00     0.280 HD
HETATM    3  C   UNL     1     -45.319  60.535 -54.845  1.00  0.00     0.276 C 
HETATM    4  C   UNL     1     -45.128  59.802 -53.544  1.00  0.00     0.002 A 
HETATM    5  C   UNL     1     -45.248  60.502 -52.344  1.00  0.00     0.076 A 
HETATM    6  O   UNL     1     -45.538  61.838 -52.357  1.00  0.00    -0.349 OA
HETATM    7  C   UNL     1     -44.402  62.606 -52.787  1.00  0.00     0.203 C 
HETATM    8  C   UNL     1     -44.400  62.831 -54.307  1.00  0.00     0.262 C 
HETATM    9  C   UNL     1     -44.748  58.448 -53.497  1.00  0.00     0.020 A 
HETATM   10  C   UNL     1     -44.493  57.805 -52.268  1.00  0.00    -0.032 A 
HETATM   11  C   UNL     1     -44.676  58.530 -51.078  1.00  0.00     0.011 A 
HETATM   12  C   UNL     1     -45.069  59.870 -51.118  1.00  0.00     0.038 A 
ENDROOT
BRANCH  10  13
HETATM   13  C   UNL     1     -43.931  56.403 -52.246  1.00  0.00     0.273 C 
BRANCH  13  14
HETATM   14  N   UNL     1     -43.024  56.020 -53.396  1.00  0.00    -0.067 N 
HETATM   15  H   UNL     1     -43.209  56.681 -54.164  1.00  0.00     0.280 HD
HETATM   16  C   UNL     1     -41.558  56.135 -53.047  1.00  0.00     0.238 C 
HETATM   17  C   UNL     1     -40.714  55.724 -54.239  1.00  0.00     0.071 C 
HETATM   18  C   UNL     1     -40.992  54.268 -54.667  1.00  0.00     0.089 C 
HETATM   19  C   UNL     1     -42.488  54.196 -55.030  1.00  0.00     0.071 C 
HETATM   20  C   UNL     1     -43.399  54.640 -53.897  1.00  0.00     0.238 C 
BRANCH  18  21
HETATM   21  O   UNL     1     -40.281  54.063 -55.888  1.00  0.00    -0.385 OA
HETATM   22  H   UNL     1     -40.618  53.268 -56.345  1.00  0.00     0.211 HD
ENDBRANCH  18  21
BRANCH  18  23
HETATM   23  C   UNL     1     -40.493  53.253 -53.647  1.00  0.00    -0.006 A 
HETATM   24  C   UNL     1     -40.414  53.508 -52.279  1.00  0.00     0.126 A 
HETATM   25  N   UNL     1     -39.899  52.658 -51.365  1.00  0.00    -0.272 NA
HETATM   26  C   UNL     1     -39.515  51.441 -51.798  1.00  0.00     0.116 A 
HETATM   27  C   UNL     1     -39.609  51.047 -53.117  1.00  0.00     0.020 A 
HETATM   28  C   UNL     1     -40.105  51.962 -54.045  1.00  0.00     0.013 A 
ENDBRANCH  18  23
ENDBRANCH  13  14
ENDBRANCH  10  13
BRANCH   1  29
HETATM   29  C   UNL     1     -42.856  60.941 -55.085  1.00  0.00     0.274 C 
BRANCH  29  30
HETATM   30  C   UNL     1     -42.441  60.164 -56.297  1.00  0.00    -0.027 A 
HETATM   31  C   UNL     1     -42.517  58.765 -56.283  1.00  0.00     0.045 A 
HETATM   32  C   UNL     1     -42.287  58.018 -57.442  1.00  0.00     0.071 A 
HETATM   33  C   UNL     1     -41.941  58.665 -58.628  1.00  0.00     0.073 A 
HETATM   34  C   UNL     1     -41.858  60.058 -58.660  1.00  0.00     0.071 A 
HETATM   35  C   UNL     1     -42.110  60.800 -57.500  1.00  0.00     0.045 A 
BRANCH  32  36
HETATM   36  O   UNL     1     -42.444  56.670 -57.276  1.00  0.00    -0.356 OA
HETATM   37  C   UNL     1     -43.261  55.997 -58.231  1.00  0.00     0.210 C 
ENDBRANCH  32  36
BRANCH  34  38
HETATM   38  O   UNL     1     -41.557  60.824 -59.751  1.00  0.00    -0.356 OA
HETATM   39  C   UNL     1     -41.931  60.308 -61.027  1.00  0.00     0.210 C 
ENDBRANCH  34  38
ENDBRANCH  29  30
ENDBRANCH   1  29
TORSDOF 8
ENDMDL
MODEL 2
REMARK VINA RESULT:      -8.1      2.765      7.696
REMARK  8 active torsions:
REMARK  status: ('A' for Active; 'I' for Inactive)
REMARK    1  A    between atoms: O_2  and  C_3 
REMARK    2  A    between atoms: C_5  and  O_6 
REMARK    3  A    between atoms: C_9  and  C_10 
REMARK    4  A    between atoms: C_10  and  N_11 
REMARK    5  A    between atoms: C_20  and  C_21 
REMARK    6  A    between atoms: C_21  and  N_22 
REMARK    7  A    between atoms: C_26  and  O_27 
REMARK    8  A    between atoms: C_26  and  C_28 
ROOT
HETATM    1  N   UNL     1     -41.805  56.828 -51.652  1.00  0.00    -0.061 N 
HETATM    2  H   UNL     1     -41.053  56.529 -51.021  1.00  0.00     0.280 HD
HETATM    3  C   UNL     1     -41.458  58.251 -52.040  1.00  0.00     0.276 C 
HETATM    4  C   UNL     1     -42.317  58.792 -53.152  1.00  0.00     0.002 A 
HETATM    5  C   UNL     1     -43.674  59.011 -52.919  1.00  0.00     0.076 A 
HETATM    6  O   UNL     1     -44.211  58.737 -51.692  1.00  0.00    -0.349 OA
HETATM    7  C   UNL     1     -44.320  57.318 -51.484  1.00  0.00     0.203 C 
HETATM    8  C   UNL     1     -43.069  56.737 -50.807  1.00  0.00     0.262 C 
HETATM    9  C   UNL     1     -41.814  59.007 -54.448  1.00  0.00     0.020 A 
HETATM   10  C   UNL     1     -42.657  59.435 -55.494  1.00  0.00    -0.032 A 
HETATM   11  C   UNL     1     -44.007  59.696 -55.208  1.00  0.00     0.011 A 
HETATM   12  C   UNL     1     -44.508  59.500 -53.919  1.00  0.00     0.038 A 
ENDROOT
BRANCH  10  13
HETATM   13  C   UNL     1     -42.135  59.504 -56.911  1.00  0.00     0.273 C 
BRANCH  13  14
HETATM   14  N   UNL     1     -42.189  58.222 -57.714  1.00  0.00    -0.067 N 
HETATM   15  H   UNL     1     -41.332  57.692 -57.501  1.00  0.00     0.280 HD
HETATM   16  C   UNL     1     -43.364  57.348 -57.340  1.00  0.00     0.238 C 
HETATM   17  C   UNL     1     -43.360  56.092 -58.192  1.00  0.00     0.071 C 
HETATM   18  C   UNL     1     -43.464  56.417 -59.697  1.00  0.00     0.089 C 
HETATM   19  C   UNL     1     -42.244  57.293 -60.041  1.00  0.00     0.071 C 
HETATM   20  C   UNL     1     -42.153  58.550 -59.193  1.00  0.00     0.238 C 
BRANCH  18  21
HETATM   21  O   UNL     1     -43.272  55.184 -60.391  1.00  0.00    -0.385 OA
HETATM   22  H   UNL     1     -42.972  54.492 -59.770  1.00  0.00     0.211 HD
ENDBRANCH  18  21
BRANCH  18  23
HETATM   23  C   UNL     1     -44.829  56.975 -60.081  1.00  0.00    -0.006 A 
HETATM   24  C   UNL     1     -45.081  58.331 -60.280  1.00  0.00     0.126 A 
HETATM   25  N   UNL     1     -46.295  58.859 -60.539  1.00  0.00    -0.272 NA
HETATM   26  C   UNL     1     -47.321  58.002 -60.706  1.00  0.00     0.116 A 
HETATM   27  C   UNL     1     -47.182  56.633 -60.603  1.00  0.00     0.020 A 
HETATM   28  C   UNL     1     -45.924  56.119 -60.291  1.00  0.00     0.013 A 
ENDBRANCH  18  23
ENDBRANCH  13  14
ENDBRANCH  10  13
BRANCH   1  29
HETATM   29  C   UNL     1     -41.755  55.891 -52.835  1.00  0.00     0.274 C 
BRANCH  29  30
HETATM   30  C   UNL     1     -41.078  54.573 -52.609  1.00  0.00    -0.027 A 
HETATM   31  C   UNL     1     -40.823  54.140 -51.301  1.00  0.00     0.045 A 
HETATM   32  C   UNL     1     -40.338  52.854 -51.048  1.00  0.00     0.071 A 
HETATM   33  C   UNL     1     -40.065  51.993 -52.111  1.00  0.00     0.073 A 
HETATM   34  C   UNL     1     -40.310  52.409 -53.421  1.00  0.00     0.071 A 
HETATM   35  C   UNL     1     -40.817  53.691 -53.664  1.00  0.00     0.045 A 
BRANCH  32  36
HETATM   36  O   UNL     1     -40.184  52.568 -49.720  1.00  0.00    -0.356 OA
HETATM   37  C   UNL     1     -40.536  53.596 -48.797  1.00  0.00     0.210 C 
ENDBRANCH  32  36
BRANCH  34  38
HETATM   38  O   UNL     1     -40.116  51.667 -54.553  1.00  0.00    -0.356 OA
HETATM   39  C   UNL     1     -39.906  50.268 -54.381  1.00  0.00     0.210 C 
ENDBRANCH  34  38
ENDBRANCH  29  30
ENDBRANCH   1  29
TORSDOF 8
ENDMDL
MODEL 3
REMARK VINA RESULT:      -8.0      3.351      8.895
REMARK  8 active torsions:
REMARK  status: ('A' for Active; 'I' for Inactive)
REMARK    1  A    between atoms: O_2  and  C_3 
REMARK    2  A    between atoms: C_5  and  O_6 
REMARK    3  A    between atoms: C_9  and  C_10 
REMARK    4  A    between atoms: C_10  and  N_11 
REMARK    5  A    between atoms: C_20  and  C_21 
REMARK    6  A    between atoms: C_21  and  N_22 
REMARK    7  A    between atoms: C_26  and  O_27 
REMARK    8  A    between atoms: C_26  and  C_28 
ROOT
HETATM    1  N   UNL     1     -42.662  54.723 -54.843  1.00  0.00    -0.061 N 
HETATM    2  H   UNL     1     -42.683  53.698 -54.807  1.00  0.00     0.280 HD
HETATM    3  C   UNL     1     -44.016  55.169 -54.331  1.00  0.00     0.276 C 
HETATM    4  C   UNL     1     -44.101  56.651 -54.082  1.00  0.00     0.002 A 
HETATM    5  C   UNL     1     -44.037  57.528 -55.165  1.00  0.00     0.076 A 
HETATM    6  O   UNL     1     -43.902  57.040 -56.434  1.00  0.00    -0.349 OA
HETATM    7  C   UNL     1     -42.571  56.542 -56.653  1.00  0.00     0.203 C 
HETATM    8  C   UNL     1     -42.451  55.048 -56.317  1.00  0.00     0.262 C 
HETATM    9  C   UNL     1     -44.158  57.190 -52.784  1.00  0.00     0.020 A 
HETATM   10  C   UNL     1     -44.153  58.584 -52.572  1.00  0.00    -0.032 A 
HETATM   11  C   UNL     1     -44.142  59.435 -53.690  1.00  0.00     0.011 A 
HETATM   12  C   UNL     1     -44.101  58.906 -54.982  1.00  0.00     0.038 A 
ENDROOT
BRANCH  10  13
HETATM   13  C   UNL     1     -44.051  59.140 -51.171  1.00  0.00     0.273 C 
BRANCH  13  14
HETATM   14  N   UNL     1     -44.377  60.609 -51.001  1.00  0.00    -0.067 N 
HETATM   15  H   UNL     1     -44.439  61.019 -51.944  1.00  0.00     0.280 HD
HETATM   16  C   UNL     1     -45.708  60.837 -50.323  1.00  0.00     0.238 C 
HETATM   17  C   UNL     1     -45.960  62.326 -50.175  1.00  0.00     0.071 C 
HETATM   18  C   UNL     1     -44.867  63.014 -49.331  1.00  0.00     0.089 C 
HETATM   19  C   UNL     1     -43.533  62.774 -50.062  1.00  0.00     0.071 C 
HETATM   20  C   UNL     1     -43.233  61.301 -50.289  1.00  0.00     0.238 C 
BRANCH  18  21
HETATM   21  O   UNL     1     -45.116  64.417 -49.415  1.00  0.00    -0.385 OA
HETATM   22  H   UNL     1     -44.879  64.852 -48.573  1.00  0.00     0.211 HD
ENDBRANCH  18  21
BRANCH  18  23
HETATM   23  C   UNL     1     -44.919  62.606 -47.864  1.00  0.00    -0.006 A 
HETATM   24  C   UNL     1     -44.744  61.297 -47.419  1.00  0.00     0.126 A 
HETATM   25  N   UNL     1     -44.867  60.896 -46.136  1.00  0.00    -0.272 NA
HETATM   26  C   UNL     1     -45.088  61.848 -45.208  1.00  0.00     0.116 A 
HETATM   27  C   UNL     1     -45.211  63.187 -45.518  1.00  0.00     0.020 A 
HETATM   28  C   UNL     1     -45.122  63.565 -46.856  1.00  0.00     0.013 A 
ENDBRANCH  18  23
ENDBRANCH  13  14
ENDBRANCH  10  13
BRANCH   1  29
HETATM   29  C   UNL     1     -41.541  55.150 -53.925  1.00  0.00     0.274 C 
BRANCH  29  30
HETATM   30  C   UNL     1     -40.998  54.097 -53.007  1.00  0.00    -0.027 A 
HETATM   31  C   UNL     1     -40.489  52.906 -53.543  1.00  0.00     0.045 A 
HETATM   32  C   UNL     1     -39.836  51.973 -52.734  1.00  0.00     0.071 A 
HETATM   33  C   UNL     1     -39.715  52.204 -51.363  1.00  0.00     0.073 A 
HETATM   34  C   UNL     1     -40.219  53.384 -50.813  1.00  0.00     0.071 A 
HETATM   35  C   UNL     1     -40.853  54.324 -51.633  1.00  0.00     0.045 A 
BRANCH  32  36
HETATM   36  O   UNL     1     -39.357  50.886 -53.412  1.00  0.00    -0.356 OA
HETATM   37  C   UNL     1     -40.260  50.240 -54.307  1.00  0.00     0.210 C 
ENDBRANCH  32  36
BRANCH  34  38
HETATM   38  O   UNL     1     -40.150  53.754 -49.499  1.00  0.00    -0.356 OA
HETATM   39  C   UNL     1     -41.041  54.780 -49.068  1.00  0.00     0.210 C 
ENDBRANCH  34  38
ENDBRANCH  29  30
ENDBRANCH   1  29
TORSDOF 8
ENDMDL
MODEL 4
REMARK VINA RESULT:      -8.0      2.665      7.401
REMARK  8 active torsions:
REMARK  status: ('A' for Active; 'I' for Inactive)
REMARK    1  A    between atoms: O_2  and  C_3 
REMARK    2  A    between atoms: C_5  and  O_6 
REMARK    3  A    between atoms: C_9  and  C_10 
REMARK    4  A    between atoms: C_10  and  N_11 
REMARK    5  A    between atoms: C_20  and  C_21 
REMARK    6  A    between atoms: C_21  and  N_22 
REMARK    7  A    between atoms: C_26  and  O_27 
REMARK    8  A    between atoms: C_26  and  C_28 
ROOT
HETATM    1  N   UNL     1     -42.024  56.616 -50.449  1.00  0.00    -0.061 N 
HETATM    2  H   UNL     1     -42.491  57.300 -49.842  1.00  0.00     0.280 HD
HETATM    3  C   UNL     1     -43.118  56.058 -51.336  1.00  0.00     0.276 C 
HETATM    4  C   UNL     1     -42.596  55.206 -52.462  1.00  0.00     0.002 A 
HETATM    5  C   UNL     1     -41.985  53.987 -52.167  1.00  0.00     0.076 A 
HETATM    6  O   UNL     1     -41.868  53.577 -50.868  1.00  0.00    -0.349 OA
HETATM    7  C   UNL     1     -40.865  54.341 -50.177  1.00  0.00     0.203 C 
HETATM    8  C   UNL     1     -41.458  55.579 -49.487  1.00  0.00     0.262 C 
HETATM    9  C   UNL     1     -42.627  55.635 -53.801  1.00  0.00     0.020 A 
HETATM   10  C   UNL     1     -42.056  54.856 -54.829  1.00  0.00    -0.032 A 
HETATM   11  C   UNL     1     -41.498  53.610 -54.499  1.00  0.00     0.011 A 
HETATM   12  C   UNL     1     -41.479  53.171 -53.173  1.00  0.00     0.038 A 
ENDROOT
BRANCH  10  13
HETATM   13  C   UNL     1     -41.955  55.407 -56.233  1.00  0.00     0.273 C 
BRANCH  13  14
HETATM   14  N   UNL     1     -43.243  55.892 -56.863  1.00  0.00    -0.067 N 
HETATM   15  H   UNL     1     -44.014  55.370 -56.423  1.00  0.00     0.280 HD
HETATM   16  C   UNL     1     -43.496  57.361 -56.616  1.00  0.00     0.238 C 
HETATM   17  C   UNL     1     -44.793  57.778 -57.286  1.00  0.00     0.071 C 
HETATM   18  C   UNL     1     -44.752  57.548 -58.810  1.00  0.00     0.089 C 
HETATM   19  C   UNL     1     -44.510  56.041 -59.020  1.00  0.00     0.071 C 
HETATM   20  C   UNL     1     -43.249  55.538 -58.336  1.00  0.00     0.238 C 
BRANCH  18  21
HETATM   21  O   UNL     1     -46.072  57.806 -59.293  1.00  0.00    -0.385 OA
HETATM   22  H   UNL     1     -46.704  57.824 -58.548  1.00  0.00     0.211 HD
ENDBRANCH  18  21
BRANCH  18  23
HETATM   23  C   UNL     1     -43.791  58.494 -59.519  1.00  0.00    -0.006 A 
HETATM   24  C   UNL     1     -42.735  58.064 -60.321  1.00  0.00     0.126 A 
HETATM   25  N   UNL     1     -41.821  58.877 -60.892  1.00  0.00    -0.272 NA
HETATM   26  C   UNL     1     -41.997  60.205 -60.748  1.00  0.00     0.116 A 
HETATM   27  C   UNL     1     -43.044  60.753 -60.035  1.00  0.00     0.020 A 
HETATM   28  C   UNL     1     -43.947  59.887 -59.420  1.00  0.00     0.013 A 
ENDBRANCH  18  23
ENDBRANCH  13  14
ENDBRANCH  10  13
BRANCH   1  29
HETATM   29  C   UNL     1     -40.996  57.390 -51.237  1.00  0.00     0.274 C 
BRANCH  29  30
HETATM   30  C   UNL     1     -41.474  58.648 -51.896  1.00  0.00    -0.027 A 
HETATM   31  C   UNL     1     -41.241  58.846 -53.264  1.00  0.00     0.045 A 
HETATM   32  C   UNL     1     -41.805  59.929 -53.943  1.00  0.00     0.071 A 
HETATM   33  C   UNL     1     -42.584  60.855 -53.249  1.00  0.00     0.073 A 
HETATM   34  C   UNL     1     -42.824  60.676 -51.885  1.00  0.00     0.071 A 
HETATM   35  C   UNL     1     -42.273  59.576 -51.217  1.00  0.00     0.045 A 
BRANCH  32  36
HETATM   36  O   UNL     1     -41.522  59.957 -55.280  1.00  0.00    -0.356 OA
HETATM   37  C   UNL     1     -42.380  60.746 -56.101  1.00  0.00     0.210 C 
ENDBRANCH  32  36
BRANCH  34  38
HETATM   38  O   UNL     1     -43.585  61.483 -51.087  1.00  0.00    -0.356 OA
HETATM   39  C   UNL     1     -43.638  61.158 -49.700  1.00  0.00     0.210 C 
ENDBRANCH  34  38
ENDBRANCH  29  30
ENDBRANCH   1  29
TORSDOF 8
ENDMDL
MODEL 5
REMARK VINA RESULT:      -8.0      2.633      7.535
REMARK  8 active torsions:
REMARK  status: ('A' for Active; 'I' for Inactive)
REMARK    1  A    between atoms: O_2  and  C_3 
REMARK    2  A    between atoms: C_5  and  O_6 
REMARK    3  A    between atoms: C_9  and  C_10 
REMARK    4  A    between atoms: C_10  and  N_11 
REMARK    5  A    between atoms: C_20  and  C_21 
REMARK    6  A    between atoms: C_21  and  N_22 
REMARK    7  A    between atoms: C_26  and  O_27 
REMARK    8  A    between atoms: C_26  and  C_28 
ROOT
HETATM    1  N   UNL     1     -41.059  55.259 -55.435  1.00  0.00    -0.061 N 
HETATM    2  H   UNL     1     -40.467  55.561 -56.216  1.00  0.00     0.280 HD
HETATM    3  C   UNL     1     -40.826  56.279 -54.339  1.00  0.00     0.276 C 
HETATM    4  C   UNL     1     -41.786  56.148 -53.187  1.00  0.00     0.002 A 
HETATM    5  C   UNL     1     -41.723  55.016 -52.374  1.00  0.00     0.076 A 
HETATM    6  O   UNL     1     -40.795  54.043 -52.626  1.00  0.00    -0.349 OA
HETATM    7  C   UNL     1     -41.151  53.286 -53.795  1.00  0.00     0.203 C 
HETATM    8  C   UNL     1     -40.536  53.875 -55.074  1.00  0.00     0.262 C 
HETATM    9  C   UNL     1     -42.804  57.089 -52.950  1.00  0.00     0.020 A 
HETATM   10  C   UNL     1     -43.744  56.901 -51.916  1.00  0.00    -0.032 A 
HETATM   11  C   UNL     1     -43.615  55.776 -51.085  1.00  0.00     0.011 A 
HETATM   12  C   UNL     1     -42.596  54.846 -51.305  1.00  0.00     0.038 A 
ENDROOT
BRANCH  10  13
HETATM   13  C   UNL     1     -44.923  57.837 -51.780  1.00  0.00     0.273 C 
BRANCH  13  14
HETATM   14  N   UNL     1     -44.613  59.319 -51.783  1.00  0.00    -0.067 N 
HETATM   15  H   UNL     1     -44.148  59.532 -52.677  1.00  0.00     0.280 HD
HETATM   16  C   UNL     1     -45.856  60.174 -51.707  1.00  0.00     0.238 C 
HETATM   17  C   UNL     1     -45.468  61.642 -51.701  1.00  0.00     0.071 C 
HETATM   18  C   UNL     1     -44.569  61.994 -50.498  1.00  0.00     0.089 C 
HETATM   19  C   UNL     1     -43.309  61.116 -50.621  1.00  0.00     0.071 C 
HETATM   20  C   UNL     1     -43.621  59.630 -50.680  1.00  0.00     0.238 C 
BRANCH  18  21
HETATM   21  O   UNL     1     -44.133  63.339 -50.701  1.00  0.00    -0.385 OA
HETATM   22  H   UNL     1     -44.409  63.654 -51.583  1.00  0.00     0.211 HD
ENDBRANCH  18  21
BRANCH  18  23
HETATM   23  C   UNL     1     -45.315  61.929 -49.171  1.00  0.00    -0.006 A 
HETATM   24  C   UNL     1     -46.625  62.371 -49.000  1.00  0.00     0.126 A 
HETATM   25  N   UNL     1     -47.280  62.402 -47.820  1.00  0.00    -0.272 NA
HETATM   26  C   UNL     1     -46.649  61.883 -46.748  1.00  0.00     0.116 A 
HETATM   27  C   UNL     1     -45.377  61.352 -46.807  1.00  0.00     0.020 A 
HETATM   28  C   UNL     1     -44.709  61.374 -48.031  1.00  0.00     0.013 A 
ENDBRANCH  18  23
ENDBRANCH  13  14
ENDBRANCH  10  13
BRANCH   1  29
HETATM   29  C   UNL     1     -42.478  55.295 -55.949  1.00  0.00     0.274 C 
BRANCH  29  30
HETATM   30  C   UNL     1     -42.724  56.144 -57.159  1.00  0.00    -0.027 A 
HETATM   31  C   UNL     1     -42.301  57.481 -57.165  1.00  0.00     0.045 A 
HETATM   32  C   UNL     1     -42.373  58.255 -58.326  1.00  0.00     0.071 A 
HETATM   33  C   UNL     1     -42.908  57.709 -59.494  1.00  0.00     0.073 A 
HETATM   34  C   UNL     1     -43.337  56.380 -59.504  1.00  0.00     0.071 A 
HETATM   35  C   UNL     1     -43.241  55.605 -58.343  1.00  0.00     0.045 A 
BRANCH  32  36
HETATM   36  O   UNL     1     -41.880  59.522 -58.183  1.00  0.00    -0.356 OA
HETATM   37  C   UNL     1     -42.104  60.159 -56.927  1.00  0.00     0.210 C 
ENDBRANCH  32  36
BRANCH  34  38
HETATM   38  O   UNL     1     -43.854  55.708 -60.576  1.00  0.00    -0.356 OA
HETATM   39  C   UNL     1     -44.793  54.672 -60.299  1.00  0.00     0.210 C 
ENDBRANCH  34  38
ENDBRANCH  29  30
ENDBRANCH   1  29
TORSDOF 8
ENDMDL
MODEL 6
REMARK VINA RESULT:      -7.9      3.024      8.701
REMARK  8 active torsions:
REMARK  status: ('A' for Active; 'I' for Inactive)
REMARK    1  A    between atoms: O_2  and  C_3 
REMARK    2  A    between atoms: C_5  and  O_6 
REMARK    3  A    between atoms: C_9  and  C_10 
REMARK    4  A    between atoms: C_10  and  N_11 
REMARK    5  A    between atoms: C_20  and  C_21 
REMARK    6  A    between atoms: C_21  and  N_22 
REMARK    7  A    between atoms: C_26  and  O_27 
REMARK    8  A    between atoms: C_26  and  C_28 
ROOT
HETATM    1  N   UNL     1     -42.690  54.810 -55.440  1.00  0.00    -0.061 N 
HETATM    2  H   UNL     1     -42.733  53.788 -55.363  1.00  0.00     0.280 HD
HETATM    3  C   UNL     1     -43.912  55.318 -54.703  1.00  0.00     0.276 C 
HETATM    4  C   UNL     1     -43.909  56.809 -54.496  1.00  0.00     0.002 A 
HETATM    5  C   UNL     1     -44.023  57.650 -55.602  1.00  0.00     0.076 A 
HETATM    6  O   UNL     1     -44.140  57.119 -56.857  1.00  0.00    -0.349 OA
HETATM    7  C   UNL     1     -42.887  56.570 -57.300  1.00  0.00     0.203 C 
HETATM    8  C   UNL     1     -42.749  55.083 -56.938  1.00  0.00     0.262 C 
HETATM    9  C   UNL     1     -43.708  57.388 -53.230  1.00  0.00     0.020 A 
HETATM   10  C   UNL     1     -43.625  58.787 -53.073  1.00  0.00    -0.032 A 
HETATM   11  C   UNL     1     -43.798  59.602 -54.204  1.00  0.00     0.011 A 
HETATM   12  C   UNL     1     -44.014  59.033 -55.461  1.00  0.00     0.038 A 
ENDROOT
BRANCH  10  13
HETATM   13  C   UNL     1     -43.249  59.381 -51.736  1.00  0.00     0.273 C 
BRANCH  13  14
HETATM   14  N   UNL     1     -43.674  60.813 -51.489  1.00  0.00    -0.067 N 
HETATM   15  H   UNL     1     -43.384  61.363 -52.309  1.00  0.00     0.280 HD
HETATM   16  C   UNL     1     -45.172  60.962 -51.354  1.00  0.00     0.238 C 
HETATM   17  C   UNL     1     -45.521  62.416 -51.095  1.00  0.00     0.071 C 
HETATM   18  C   UNL     1     -44.868  62.943 -49.801  1.00  0.00     0.089 C 
HETATM   19  C   UNL     1     -43.346  62.790 -49.984  1.00  0.00     0.071 C 
HETATM   20  C   UNL     1     -42.922  61.364 -50.294  1.00  0.00     0.238 C 
BRANCH  18  21
HETATM   21  O   UNL     1     -45.121  64.348 -49.764  1.00  0.00    -0.385 OA
HETATM   22  H   UNL     1     -44.335  64.840 -50.072  1.00  0.00     0.211 HD
ENDBRANCH  18  21
BRANCH  18  23
HETATM   23  C   UNL     1     -45.466  62.317 -48.547  1.00  0.00    -0.006 A 
HETATM   24  C   UNL     1     -46.817  62.397 -48.213  1.00  0.00     0.126 A 
HETATM   25  N   UNL     1     -47.357  61.925 -47.070  1.00  0.00    -0.272 NA
HETATM   26  C   UNL     1     -46.546  61.249 -46.234  1.00  0.00     0.116 A 
HETATM   27  C   UNL     1     -45.205  61.044 -46.489  1.00  0.00     0.020 A 
HETATM   28  C   UNL     1     -44.666  61.581 -47.657  1.00  0.00     0.013 A 
ENDBRANCH  18  23
ENDBRANCH  13  14
ENDBRANCH  10  13
BRANCH   1  29
HETATM   29  C   UNL     1     -41.407  55.226 -54.761  1.00  0.00     0.274 C 
BRANCH  29  30
HETATM   30  C   UNL     1     -40.813  54.239 -53.803  1.00  0.00    -0.027 A 
HETATM   31  C   UNL     1     -40.957  54.441 -52.423  1.00  0.00     0.045 A 
HETATM   32  C   UNL     1     -40.555  53.466 -51.506  1.00  0.00     0.071 A 
HETATM   33  C   UNL     1     -39.965  52.286 -51.959  1.00  0.00     0.073 A 
HETATM   34  C   UNL     1     -39.811  52.070 -53.330  1.00  0.00     0.071 A 
HETATM   35  C   UNL     1     -40.237  53.042 -54.243  1.00  0.00     0.045 A 
BRANCH  32  36
HETATM   36  O   UNL     1     -40.803  53.792 -50.202  1.00  0.00    -0.356 OA
HETATM   37  C   UNL     1     -39.712  54.327 -49.455  1.00  0.00     0.210 C 
ENDBRANCH  32  36
BRANCH  34  38
HETATM   38  O   UNL     1     -39.277  50.957 -53.917  1.00  0.00    -0.356 OA
HETATM   39  C   UNL     1     -40.193  49.960 -54.365  1.00  0.00     0.210 C 
ENDBRANCH  34  38
ENDBRANCH  29  30
ENDBRANCH   1  29
TORSDOF 8
ENDMDL
MODEL 7
REMARK VINA RESULT:      -7.9      2.589      8.540
REMARK  8 active torsions:
REMARK  status: ('A' for Active; 'I' for Inactive)
REMARK    1  A    between atoms: O_2  and  C_3 
REMARK    2  A    between atoms: C_5  and  O_6 
REMARK    3  A    between atoms: C_9  and  C_10 
REMARK    4  A    between atoms: C_10  and  N_11 
REMARK    5  A    between atoms: C_20  and  C_21 
REMARK    6  A    between atoms: C_21  and  N_22 
REMARK    7  A    between atoms: C_26  and  O_27 
REMARK    8  A    between atoms: C_26  and  C_28 
ROOT
HETATM    1  N   UNL     1     -42.714  54.760 -55.344  1.00  0.00    -0.061 N 
HETATM    2  H   UNL     1     -42.892  53.750 -55.315  1.00  0.00     0.280 HD
HETATM    3  C   UNL     1     -43.793  55.381 -54.481  1.00  0.00     0.276 C 
HETATM    4  C   UNL     1     -43.566  56.842 -54.201  1.00  0.00     0.002 A 
HETATM    5  C   UNL     1     -43.647  57.758 -55.250  1.00  0.00     0.076 A 
HETATM    6  O   UNL     1     -43.933  57.325 -56.515  1.00  0.00    -0.349 OA
HETATM    7  C   UNL     1     -42.807  56.640 -57.090  1.00  0.00     0.203 C 
HETATM    8  C   UNL     1     -42.849  55.129 -56.816  1.00  0.00     0.262 C 
HETATM    9  C   UNL     1     -43.190  57.311 -52.929  1.00  0.00     0.020 A 
HETATM   10  C   UNL     1     -42.900  58.674 -52.710  1.00  0.00    -0.032 A 
HETATM   11  C   UNL     1     -43.045  59.573 -53.779  1.00  0.00     0.011 A 
HETATM   12  C   UNL     1     -43.434  59.116 -55.041  1.00  0.00     0.038 A 
ENDROOT
BRANCH  10  13
HETATM   13  C   UNL     1     -42.343  59.129 -51.381  1.00  0.00     0.273 C 
BRANCH  13  14
HETATM   14  N   UNL     1     -43.330  59.737 -50.407  1.00  0.00    -0.067 N 
HETATM   15  H   UNL     1     -43.089  59.386 -49.469  1.00  0.00     0.280 HD
HETATM   16  C   UNL     1     -43.248  61.245 -50.358  1.00  0.00     0.238 C 
HETATM   17  C   UNL     1     -44.271  61.782 -49.375  1.00  0.00     0.071 C 
HETATM   18  C   UNL     1     -45.710  61.392 -49.771  1.00  0.00     0.089 C 
HETATM   19  C   UNL     1     -45.757  59.852 -49.793  1.00  0.00     0.071 C 
HETATM   20  C   UNL     1     -44.725  59.237 -50.724  1.00  0.00     0.238 C 
BRANCH  18  21
HETATM   21  O   UNL     1     -46.551  61.796 -48.689  1.00  0.00    -0.385 OA
HETATM   22  H   UNL     1     -46.475  61.162 -47.949  1.00  0.00     0.211 HD
ENDBRANCH  18  21
BRANCH  18  23
HETATM   23  C   UNL     1     -46.182  62.103 -51.033  1.00  0.00    -0.006 A 
HETATM   24  C   UNL     1     -45.951  63.453 -51.291  1.00  0.00     0.126 A 
HETATM   25  N   UNL     1     -46.428  64.125 -52.360  1.00  0.00    -0.272 NA
HETATM   26  C   UNL     1     -47.102  63.418 -53.287  1.00  0.00     0.116 A 
HETATM   27  C   UNL     1     -47.335  62.062 -53.177  1.00  0.00     0.020 A 
HETATM   28  C   UNL     1     -46.867  61.403 -52.041  1.00  0.00     0.013 A 
ENDBRANCH  18  23
ENDBRANCH  13  14
ENDBRANCH  10  13
BRANCH   1  29
HETATM   29  C   UNL     1     -41.337  54.957 -54.756  1.00  0.00     0.274 C 
BRANCH  29  30
HETATM   30  C   UNL     1     -40.901  53.950 -53.735  1.00  0.00    -0.027 A 
HETATM   31  C   UNL     1     -40.336  52.738 -54.155  1.00  0.00     0.045 A 
HETATM   32  C   UNL     1     -39.778  51.846 -53.235  1.00  0.00     0.071 A 
HETATM   33  C   UNL     1     -39.811  52.141 -51.872  1.00  0.00     0.073 A 
HETATM   34  C   UNL     1     -40.372  53.343 -51.437  1.00  0.00     0.071 A 
HETATM   35  C   UNL     1     -40.910  54.241 -52.366  1.00  0.00     0.045 A 
BRANCH  32  36
HETATM   36  O   UNL     1     -39.228  50.731 -53.804  1.00  0.00    -0.356 OA
HETATM   37  C   UNL     1     -40.119  49.854 -54.489  1.00  0.00     0.210 C 
ENDBRANCH  32  36
BRANCH  34  38
HETATM   38  O   UNL     1     -40.450  53.775 -50.142  1.00  0.00    -0.356 OA
HETATM   39  C   UNL     1     -41.471  54.720 -49.835  1.00  0.00     0.210 C 
ENDBRANCH  34  38
ENDBRANCH  29  30
ENDBRANCH   1  29
TORSDOF 8
ENDMDL
MODEL 8
REMARK VINA RESULT:      -7.9      2.593      7.275
REMARK  8 active torsions:
REMARK  status: ('A' for Active; 'I' for Inactive)
REMARK    1  A    between atoms: O_2  and  C_3 
REMARK    2  A    between atoms: C_5  and  O_6 
REMARK    3  A    between atoms: C_9  and  C_10 
REMARK    4  A    between atoms: C_10  and  N_11 
REMARK    5  A    between atoms: C_20  and  C_21 
REMARK    6  A    between atoms: C_21  and  N_22 
REMARK    7  A    between atoms: C_26  and  O_27 
REMARK    8  A    between atoms: C_26  and  C_28 
ROOT
HETATM    1  N   UNL     1     -42.091  56.552 -50.440  1.00  0.00    -0.061 N 
HETATM    2  H   UNL     1     -42.609  57.197 -49.833  1.00  0.00     0.280 HD
HETATM    3  C   UNL     1     -43.137  55.919 -51.334  1.00  0.00     0.276 C 
HETATM    4  C   UNL     1     -42.549  55.113 -52.461  1.00  0.00     0.002 A 
HETATM    5  C   UNL     1     -41.851  53.941 -52.169  1.00  0.00     0.076 A 
HETATM    6  O   UNL     1     -41.708  53.535 -50.872  1.00  0.00    -0.349 OA
HETATM    7  C   UNL     1     -40.768  54.368 -50.173  1.00  0.00     0.203 C 
HETATM    8  C   UNL     1     -41.453  55.556 -49.480  1.00  0.00     0.262 C 
HETATM    9  C   UNL     1     -42.607  55.544 -53.799  1.00  0.00     0.020 A 
HETATM   10  C   UNL     1     -41.976  54.815 -54.828  1.00  0.00    -0.032 A 
HETATM   11  C   UNL     1     -41.328  53.612 -54.501  1.00  0.00     0.011 A 
HETATM   12  C   UNL     1     -41.281  53.170 -53.177  1.00  0.00     0.038 A 
ENDROOT
BRANCH  10  13
HETATM   13  C   UNL     1     -41.911  55.377 -56.229  1.00  0.00     0.273 C 
BRANCH  13  14
HETATM   14  N   UNL     1     -43.213  55.875 -56.819  1.00  0.00    -0.067 N 
HETATM   15  H   UNL     1     -43.974  55.347 -56.368  1.00  0.00     0.280 HD
HETATM   16  C   UNL     1     -43.457  57.340 -56.543  1.00  0.00     0.238 C 
HETATM   17  C   UNL     1     -44.769  57.769 -57.174  1.00  0.00     0.071 C 
HETATM   18  C   UNL     1     -44.768  57.562 -58.702  1.00  0.00     0.089 C 
HETATM   19  C   UNL     1     -44.534  56.059 -58.941  1.00  0.00     0.071 C 
HETATM   20  C   UNL     1     -43.258  55.543 -58.297  1.00  0.00     0.238 C 
BRANCH  18  21
HETATM   21  O   UNL     1     -46.098  57.829 -59.147  1.00  0.00    -0.385 OA
HETATM   22  H   UNL     1     -46.589  56.993 -59.263  1.00  0.00     0.211 HD
ENDBRANCH  18  21
BRANCH  18  23
HETATM   23  C   UNL     1     -43.823  58.518 -59.421  1.00  0.00    -0.006 A 
HETATM   24  C   UNL     1     -43.949  59.905 -59.378  1.00  0.00     0.126 A 
HETATM   25  N   UNL     1     -43.178  60.770 -60.070  1.00  0.00    -0.272 NA
HETATM   26  C   UNL     1     -42.157  60.256 -60.784  1.00  0.00     0.116 A 
HETATM   27  C   UNL     1     -41.890  58.904 -60.848  1.00  0.00     0.020 A 
HETATM   28  C   UNL     1     -42.729  58.032 -60.158  1.00  0.00     0.013 A 
ENDBRANCH  18  23
ENDBRANCH  13  14
ENDBRANCH  10  13
BRANCH   1  29
HETATM   29  C   UNL     1     -41.120  57.404 -51.221  1.00  0.00     0.274 C 
BRANCH  29  30
HETATM   30  C   UNL     1     -41.706  58.564 -51.967  1.00  0.00    -0.027 A 
HETATM   31  C   UNL     1     -42.429  59.543 -51.270  1.00  0.00     0.045 A 
HETATM   32  C   UNL     1     -42.854  60.713 -51.903  1.00  0.00     0.071 A 
HETATM   33  C   UNL     1     -42.593  60.904 -53.260  1.00  0.00     0.073 A 
HETATM   34  C   UNL     1     -41.877  59.938 -53.971  1.00  0.00     0.071 A 
HETATM   35  C   UNL     1     -41.435  58.779 -53.324  1.00  0.00     0.045 A 
BRANCH  32  36
HETATM   36  O   UNL     1     -43.505  61.588 -51.078  1.00  0.00    -0.356 OA
HETATM   37  C   UNL     1     -43.651  61.196 -49.715  1.00  0.00     0.210 C 
ENDBRANCH  32  36
BRANCH  34  38
HETATM   38  O   UNL     1     -41.527  60.003 -55.290  1.00  0.00    -0.356 OA
HETATM   39  C   UNL     1     -42.369  60.770 -56.147  1.00  0.00     0.210 C 
ENDBRANCH  34  38
ENDBRANCH  29  30
ENDBRANCH   1  29
TORSDOF 8
ENDMDL
MODEL 9
REMARK VINA RESULT:      -7.8      2.679      8.704
REMARK  8 active torsions:
REMARK  status: ('A' for Active; 'I' for Inactive)
REMARK    1  A    between atoms: O_2  and  C_3 
REMARK    2  A    between atoms: C_5  and  O_6 
REMARK    3  A    between atoms: C_9  and  C_10 
REMARK    4  A    between atoms: C_10  and  N_11 
REMARK    5  A    between atoms: C_20  and  C_21 
REMARK    6  A    between atoms: C_21  and  N_22 
REMARK    7  A    between atoms: C_26  and  O_27 
REMARK    8  A    between atoms: C_26  and  C_28 
ROOT
HETATM    1  N   UNL     1     -42.529  54.530 -54.903  1.00  0.00    -0.061 N 
HETATM    2  H   UNL     1     -42.669  53.519 -54.798  1.00  0.00     0.280 HD
HETATM    3  C   UNL     1     -43.622  55.173 -54.074  1.00  0.00     0.276 C 
HETATM    4  C   UNL     1     -43.447  56.659 -53.905  1.00  0.00     0.002 A 
HETATM    5  C   UNL     1     -43.574  57.490 -55.018  1.00  0.00     0.076 A 
HETATM    6  O   UNL     1     -43.856  56.955 -56.243  1.00  0.00    -0.349 OA
HETATM    7  C   UNL     1     -42.711  56.272 -56.781  1.00  0.00     0.203 C 
HETATM    8  C   UNL     1     -42.693  54.784 -56.396  1.00  0.00     0.262 C 
HETATM    9  C   UNL     1     -43.076  57.233 -52.676  1.00  0.00     0.020 A 
HETATM   10  C   UNL     1     -42.836  58.618 -52.562  1.00  0.00    -0.032 A 
HETATM   11  C   UNL     1     -43.026  59.430 -53.692  1.00  0.00     0.011 A 
HETATM   12  C   UNL     1     -43.411  58.867 -54.912  1.00  0.00     0.038 A 
ENDROOT
BRANCH  10  13
HETATM   13  C   UNL     1     -42.283  59.190 -51.277  1.00  0.00     0.273 C 
BRANCH  13  14
HETATM   14  N   UNL     1     -43.285  59.811 -50.327  1.00  0.00    -0.067 N 
HETATM   15  H   UNL     1     -43.045  59.490 -49.378  1.00  0.00     0.280 HD
HETATM   16  C   UNL     1     -43.225  61.321 -50.320  1.00  0.00     0.238 C 
HETATM   17  C   UNL     1     -44.263  61.870 -49.358  1.00  0.00     0.071 C 
HETATM   18  C   UNL     1     -45.693  61.448 -49.752  1.00  0.00     0.089 C 
HETATM   19  C   UNL     1     -45.717  59.908 -49.731  1.00  0.00     0.071 C 
HETATM   20  C   UNL     1     -44.670  59.282 -50.638  1.00  0.00     0.238 C 
BRANCH  18  21
HETATM   21  O   UNL     1     -46.546  61.870 -48.687  1.00  0.00    -0.385 OA
HETATM   22  H   UNL     1     -46.441  62.829 -48.531  1.00  0.00     0.211 HD
ENDBRANCH  18  21
BRANCH  18  23
HETATM   23  C   UNL     1     -46.167  62.116 -51.037  1.00  0.00    -0.006 A 
HETATM   24  C   UNL     1     -45.967  63.465 -51.325  1.00  0.00     0.126 A 
HETATM   25  N   UNL     1     -46.447  64.100 -52.415  1.00  0.00    -0.272 NA
HETATM   26  C   UNL     1     -47.091  63.353 -53.333  1.00  0.00     0.116 A 
HETATM   27  C   UNL     1     -47.291  61.995 -53.193  1.00  0.00     0.020 A 
HETATM   28  C   UNL     1     -46.821  61.375 -52.036  1.00  0.00     0.013 A 
ENDBRANCH  18  23
ENDBRANCH  13  14
ENDBRANCH  10  13
BRANCH   1  29
HETATM   29  C   UNL     1     -41.155  54.821 -54.350  1.00  0.00     0.274 C 
BRANCH  29  30
HETATM   30  C   UNL     1     -40.638  53.864 -53.319  1.00  0.00    -0.027 A 
HETATM   31  C   UNL     1     -40.722  54.198 -51.960  1.00  0.00     0.045 A 
HETATM   32  C   UNL     1     -40.396  53.270 -50.968  1.00  0.00     0.071 A 
HETATM   33  C   UNL     1     -39.943  51.999 -51.326  1.00  0.00     0.073 A 
HETATM   34  C   UNL     1     -39.851  51.651 -52.675  1.00  0.00     0.071 A 
HETATM   35  C   UNL     1     -40.200  52.579 -53.662  1.00  0.00     0.045 A 
BRANCH  32  36
HETATM   36  O   UNL     1     -40.572  53.732 -49.693  1.00  0.00    -0.356 OA
HETATM   37  C   UNL     1     -41.368  54.905 -49.541  1.00  0.00     0.210 C 
ENDBRANCH  32  36
BRANCH  34  38
HETATM   38  O   UNL     1     -39.451  50.441 -53.169  1.00  0.00    -0.356 OA
HETATM   39  C   UNL     1     -39.870  50.112 -54.491  1.00  0.00     0.210 C 
ENDBRANCH  34  38
ENDBRANCH  29  30
ENDBRANCH   1  29
TORSDOF 8
ENDMDL
MODEL 10
REMARK VINA RESULT:      -7.7      3.042      7.457
REMARK  8 active torsions:
REMARK  status: ('A' for Active; 'I' for Inactive)
REMARK    1  A    between atoms: O_2  and  C_3 
REMARK    2  A    between atoms: C_5  and  O_6 
REMARK    3  A    between atoms: C_9  and  C_10 
REMARK    4  A    between atoms: C_10  and  N_11 
REMARK    5  A    between atoms: C_20  and  C_21 
REMARK    6  A    between atoms: C_21  and  N_22 
REMARK    7  A    between atoms: C_26  and  O_27 
REMARK    8  A    between atoms: C_26  and  C_28 
ROOT
HETATM    1  N   UNL     1     -40.780  58.200 -51.235  1.00  0.00    -0.061 N 
HETATM    2  H   UNL     1     -39.919  57.665 -51.073  1.00  0.00     0.280 HD
HETATM    3  C   UNL     1     -40.504  59.035 -52.468  1.00  0.00     0.276 C 
HETATM    4  C   UNL     1     -41.730  59.718 -53.013  1.00  0.00     0.002 A 
HETATM    5  C   UNL     1     -42.338  60.726 -52.264  1.00  0.00     0.076 A 
HETATM    6  O   UNL     1     -41.819  61.085 -51.052  1.00  0.00    -0.349 OA
HETATM    7  C   UNL     1     -42.082  60.076 -50.062  1.00  0.00     0.203 C 
HETATM    8  C   UNL     1     -40.949  59.042 -49.977  1.00  0.00     0.262 C 
HETATM    9  C   UNL     1     -42.336  59.318 -54.218  1.00  0.00     0.020 A 
HETATM   10  C   UNL     1     -43.532  59.917 -54.666  1.00  0.00    -0.032 A 
HETATM   11  C   UNL     1     -44.085  60.964 -53.911  1.00  0.00     0.011 A 
HETATM   12  C   UNL     1     -43.478  61.377 -52.722  1.00  0.00     0.038 A 
ENDROOT
BRANCH  10  13
HETATM   13  C   UNL     1     -44.253  59.364 -55.874  1.00  0.00     0.273 C 
BRANCH  13  14
HETATM   14  N   UNL     1     -43.384  58.842 -56.999  1.00  0.00    -0.067 N 
HETATM   15  H   UNL     1     -42.407  59.054 -56.754  1.00  0.00     0.280 HD
HETATM   16  C   UNL     1     -43.490  57.345 -57.172  1.00  0.00     0.238 C 
HETATM   17  C   UNL     1     -42.606  56.898 -58.322  1.00  0.00     0.071 C 
HETATM   18  C   UNL     1     -43.013  57.565 -59.652  1.00  0.00     0.089 C 
HETATM   19  C   UNL     1     -42.876  59.084 -59.441  1.00  0.00     0.071 C 
HETATM   20  C   UNL     1     -43.699  59.601 -58.272  1.00  0.00     0.238 C 
BRANCH  18  21
HETATM   21  O   UNL     1     -42.010  57.208 -60.605  1.00  0.00    -0.385 OA
HETATM   22  H   UNL     1     -42.105  57.750 -61.413  1.00  0.00     0.211 HD
ENDBRANCH  18  21
BRANCH  18  23
HETATM   23  C   UNL     1     -44.359  57.070 -60.167  1.00  0.00    -0.006 A 
HETATM   24  C   UNL     1     -45.466  57.897 -60.349  1.00  0.00     0.126 A 
HETATM   25  N   UNL     1     -46.691  57.471 -60.724  1.00  0.00    -0.272 NA
HETATM   26  C   UNL     1     -46.828  56.166 -61.029  1.00  0.00     0.116 A 
HETATM   27  C   UNL     1     -45.787  55.263 -60.954  1.00  0.00     0.020 A 
HETATM   28  C   UNL     1     -44.544  55.723 -60.523  1.00  0.00     0.013 A 
ENDBRANCH  18  23
ENDBRANCH  13  14
ENDBRANCH  10  13
BRANCH   1  29
HETATM   29  C   UNL     1     -41.866  57.179 -51.475  1.00  0.00     0.274 C 
BRANCH  29  30
HETATM   30  C   UNL     1     -41.433  55.745 -51.507  1.00  0.00    -0.027 A 
HETATM   31  C   UNL     1     -41.109  55.145 -52.732  1.00  0.00     0.045 A 
HETATM   32  C   UNL     1     -40.555  53.864 -52.784  1.00  0.00     0.071 A 
HETATM   33  C   UNL     1     -40.352  53.146 -51.605  1.00  0.00     0.073 A 
HETATM   34  C   UNL     1     -40.672  53.726 -50.376  1.00  0.00     0.071 A 
HETATM   35  C   UNL     1     -41.206  55.019 -50.331  1.00  0.00     0.045 A 
BRANCH  32  36
HETATM   36  O   UNL     1     -40.253  53.438 -54.047  1.00  0.00    -0.356 OA
HETATM   37  C   UNL     1     -40.261  54.426 -55.076  1.00  0.00     0.210 C 
ENDBRANCH  32  36
BRANCH  34  38
HETATM   38  O   UNL     1     -40.503  53.155 -49.146  1.00  0.00    -0.356 OA
HETATM   39  C   UNL     1     -40.290  54.037 -48.046  1.00  0.00     0.210 C 
ENDBRANCH  34  38
ENDBRANCH  29  30
ENDBRANCH   1  29
TORSDOF 8
ENDMDL
