MODEL 1
REMARK VINA RESULT:      -7.8      0.000      0.000
REMARK  3 active torsions:
REMARK  status: ('A' for Active; 'I' for Inactive)
REMARK    1  A    between atoms: C_2  and  N_3 
REMARK       I    between atoms: N_3  and  C_4 
REMARK    2  A    between atoms: C_4  and  C_5 
REMARK    3  A    between atoms: C_5  and  C_6 
ROOT
HETATM    1  C   UNL     1     -43.239  55.705 -50.951  1.00  0.00     0.286 C 
HETATM    2  N   UNL     1     -42.376  56.926 -50.603  1.00  0.00    -0.056 N 
HETATM    3  H   UNL     1     -42.452  57.126 -49.591  1.00  0.00     0.278 HD
HETATM    4  H   UNL     1     -41.383  56.691 -50.745  1.00  0.00     0.278 HD
HETATM    5  C   UNL     1     -42.767  58.109 -51.438  1.00  0.00     0.209 C 
HETATM    6  C   UNL     1     -42.480  57.752 -52.913  1.00  0.00     0.115 C 
HETATM    7  N   UNL     1     -43.160  56.520 -53.308  1.00  0.00    -0.353 N 
HETATM    8  C   UNL     1     -43.275  55.426 -52.472  1.00  0.00     0.249 C 
HETATM    9  O   UNL     1     -43.488  54.314 -52.938  1.00  0.00    -0.271 OA
HETATM   10  C   UNL     1     -42.002  59.347 -50.997  1.00  0.00     0.035 C 
HETATM   11  C   UNL     1     -42.368  60.526 -51.898  1.00  0.00     0.002 C 
HETATM   12  C   UNL     1     -42.129  60.209 -53.375  1.00  0.00     0.002 C 
HETATM   13  C   UNL     1     -42.836  58.926 -53.823  1.00  0.00     0.027 C 
HETATM   14  H   UNL     1     -43.155  56.262 -54.295  1.00  0.00     0.163 HD
ENDROOT
BRANCH   1  15
HETATM   15  C   UNL     1     -42.744  54.490 -50.175  1.00  0.00     0.146 C 
BRANCH  15  16
HETATM   16  C   UNL     1     -41.302  54.723 -49.836  1.00  0.00     0.224 C 
HETATM   17  N   UNL     1     -40.257  54.099 -50.427  1.00  0.00    -0.327 N 
HETATM   18  H   UNL     1     -39.393  54.299 -49.927  1.00  0.00     0.169 HD
HETATM   19  O   UNL     1     -41.072  55.356 -48.795  1.00  0.00    -0.273 OA
BRANCH  17  20
HETATM   20  C   UNL     1     -40.117  53.191 -51.491  1.00  0.00     0.034 A 
HETATM   21  C   UNL     1     -40.294  53.482 -52.843  1.00  0.00     0.031 A 
HETATM   22  C   UNL     1     -40.153  52.475 -53.809  1.00  0.00     0.026 A 
HETATM   23  C   UNL     1     -39.825  51.177 -53.431  1.00  0.00     0.034 A 
HETATM   24  C   UNL     1     -39.616  50.879 -52.091  1.00  0.00     0.026 A 
HETATM   25 CL   UNL     1     -39.668  49.948 -54.620  1.00  0.00    -0.084 Cl
HETATM   26  C   UNL     1     -39.749  51.885 -51.130  1.00  0.00     0.031 A 
ENDBRANCH  17  20
ENDBRANCH  15  16
ENDBRANCH   1  15
TORSDOF 3
ENDMDL
MODEL 2
REMARK VINA RESULT:      -7.8      1.989      2.640
REMARK  3 active torsions:
REMARK  status: ('A' for Active; 'I' for Inactive)
REMARK    1  A    between atoms: C_2  and  N_3 
REMARK       I    between atoms: N_3  and  C_4 
REMARK    2  A    between atoms: C_4  and  C_5 
REMARK    3  A    between atoms: C_5  and  C_6 
ROOT
HETATM    1  C   UNL     1     -43.082  56.112 -52.004  1.00  0.00     0.286 C 
HETATM    2  N   UNL     1     -43.025  55.638 -53.462  1.00  0.00    -0.056 N 
HETATM    3  H   UNL     1     -42.105  55.202 -53.649  1.00  0.00     0.278 HD
HETATM    4  H   UNL     1     -43.704  54.874 -53.597  1.00  0.00     0.278 HD
HETATM    5  C   UNL     1     -43.308  56.771 -54.402  1.00  0.00     0.209 C 
HETATM    6  C   UNL     1     -44.752  57.248 -54.133  1.00  0.00     0.115 C 
HETATM    7  N   UNL     1     -44.945  57.605 -52.729  1.00  0.00    -0.353 N 
HETATM    8  C   UNL     1     -44.382  56.890 -51.690  1.00  0.00     0.249 C 
HETATM    9  O   UNL     1     -44.857  56.961 -50.564  1.00  0.00    -0.271 OA
HETATM   10  C   UNL     1     -43.120  56.325 -55.844  1.00  0.00     0.035 C 
HETATM   11  C   UNL     1     -43.472  57.475 -56.788  1.00  0.00     0.002 C 
HETATM   12  C   UNL     1     -44.886  58.004 -56.539  1.00  0.00     0.002 C 
HETATM   13  C   UNL     1     -45.118  58.393 -55.076  1.00  0.00     0.027 C 
HETATM   14  H   UNL     1     -45.818  58.062 -52.464  1.00  0.00     0.163 HD
ENDROOT
BRANCH   1  15
HETATM   15  C   UNL     1     -42.908  54.921 -51.070  1.00  0.00     0.146 C 
BRANCH  15  16
HETATM   16  C   UNL     1     -41.532  55.005 -50.478  1.00  0.00     0.224 C 
HETATM   17  N   UNL     1     -40.483  54.232 -50.843  1.00  0.00    -0.327 N 
HETATM   18  H   UNL     1     -39.706  54.359 -50.199  1.00  0.00     0.169 HD
HETATM   19  O   UNL     1     -41.416  55.666 -49.436  1.00  0.00    -0.273 OA
BRANCH  17  20
HETATM   20  C   UNL     1     -40.269  53.254 -51.830  1.00  0.00     0.034 A 
HETATM   21  C   UNL     1     -40.451  53.423 -53.202  1.00  0.00     0.031 A 
HETATM   22  C   UNL     1     -40.229  52.355 -54.084  1.00  0.00     0.026 A 
HETATM   23  C   UNL     1     -39.815  51.118 -53.601  1.00  0.00     0.034 A 
HETATM   24  C   UNL     1     -39.598  50.943 -52.241  1.00  0.00     0.026 A 
HETATM   25 CL   UNL     1     -39.558  49.813 -54.688  1.00  0.00    -0.084 Cl
HETATM   26  C   UNL     1     -39.812  52.011 -51.364  1.00  0.00     0.031 A 
ENDBRANCH  17  20
ENDBRANCH  15  16
ENDBRANCH   1  15
TORSDOF 3
ENDMDL
MODEL 3
REMARK VINA RESULT:      -7.7      3.438      4.751
REMARK  3 active torsions:
REMARK  status: ('A' for Active; 'I' for Inactive)
REMARK    1  A    between atoms: C_2  and  N_3 
REMARK       I    between atoms: N_3  and  C_4 
REMARK    2  A    between atoms: C_4  and  C_5 
REMARK    3  A    between atoms: C_5  and  C_6 
ROOT
HETATM    1  C   UNL     1     -43.551  57.369 -54.934  1.00  0.00     0.286 C 
HETATM    2  N   UNL     1     -42.571  58.060 -55.892  1.00  0.00    -0.056 N 
HETATM    3  H   UNL     1     -42.558  59.077 -55.701  1.00  0.00     0.278 HD
HETATM    4  H   UNL     1     -41.613  57.747 -55.682  1.00  0.00     0.278 HD
HETATM    5  C   UNL     1     -42.925  57.763 -57.319  1.00  0.00     0.209 C 
HETATM    6  C   UNL     1     -42.773  56.241 -57.529  1.00  0.00     0.115 C 
HETATM    7  N   UNL     1     -43.576  55.485 -56.569  1.00  0.00    -0.353 N 
HETATM    8  C   UNL     1     -43.718  55.864 -55.248  1.00  0.00     0.249 C 
HETATM    9  O   UNL     1     -44.051  55.042 -54.403  1.00  0.00    -0.271 OA
HETATM   10  C   UNL     1     -42.034  58.556 -58.263  1.00  0.00     0.035 C 
HETATM   11  C   UNL     1     -42.369  58.194 -59.710  1.00  0.00     0.002 C 
HETATM   12  C   UNL     1     -42.261  56.689 -59.960  1.00  0.00     0.002 C 
HETATM   13  C   UNL     1     -43.098  55.869 -58.974  1.00  0.00     0.027 C 
HETATM   14  H   UNL     1     -43.661  54.477 -56.700  1.00  0.00     0.163 HD
ENDROOT
BRANCH   1  15
HETATM   15  C   UNL     1     -43.101  57.590 -53.495  1.00  0.00     0.146 C 
BRANCH  15  16
HETATM   16  C   UNL     1     -41.626  57.862 -53.516  1.00  0.00     0.224 C 
HETATM   17  N   UNL     1     -40.663  56.911 -53.539  1.00  0.00    -0.327 N 
HETATM   18  H   UNL     1     -39.747  57.329 -53.390  1.00  0.00     0.169 HD
HETATM   19  O   UNL     1     -41.273  59.024 -53.266  1.00  0.00    -0.273 OA
BRANCH  17  20
HETATM   20  C   UNL     1     -40.658  55.508 -53.629  1.00  0.00     0.034 A 
HETATM   21  C   UNL     1     -41.004  54.622 -52.611  1.00  0.00     0.031 A 
HETATM   22  C   UNL     1     -40.929  53.237 -52.819  1.00  0.00     0.026 A 
HETATM   23  C   UNL     1     -40.517  52.732 -54.049  1.00  0.00     0.034 A 
HETATM   24  C   UNL     1     -40.199  53.602 -55.083  1.00  0.00     0.026 A 
HETATM   25 CL   UNL     1     -40.415  51.035 -54.291  1.00  0.00    -0.084 Cl
HETATM   26  C   UNL     1     -40.282  54.982 -54.875  1.00  0.00     0.031 A 
ENDBRANCH  17  20
ENDBRANCH  15  16
ENDBRANCH   1  15
TORSDOF 3
ENDMDL
MODEL 4
REMARK VINA RESULT:      -7.5      2.229      3.287
REMARK  3 active torsions:
REMARK  status: ('A' for Active; 'I' for Inactive)
REMARK    1  A    between atoms: C_2  and  N_3 
REMARK       I    between atoms: N_3  and  C_4 
REMARK    2  A    between atoms: C_4  and  C_5 
REMARK    3  A    between atoms: C_5  and  C_6 
ROOT
HETATM    1  C   UNL     1     -43.204  56.152 -52.805  1.00  0.00     0.286 C 
HETATM    2  N   UNL     1     -44.177  57.081 -53.544  1.00  0.00    -0.056 N 
HETATM    3  H   UNL     1     -43.811  57.285 -54.490  1.00  0.00     0.278 HD
HETATM    4  H   UNL     1     -45.061  56.579 -53.713  1.00  0.00     0.278 HD
HETATM    5  C   UNL     1     -44.421  58.333 -52.755  1.00  0.00     0.209 C 
HETATM    6  C   UNL     1     -45.097  57.922 -51.429  1.00  0.00     0.115 C 
HETATM    7  N   UNL     1     -44.302  56.933 -50.705  1.00  0.00    -0.353 N 
HETATM    8  C   UNL     1     -43.625  55.909 -51.336  1.00  0.00     0.249 C 
HETATM    9  O   UNL     1     -43.306  54.904 -50.713  1.00  0.00    -0.271 OA
HETATM   10  C   UNL     1     -45.279  59.303 -53.551  1.00  0.00     0.035 C 
HETATM   11  C   UNL     1     -45.568  60.545 -52.709  1.00  0.00     0.002 C 
HETATM   12  C   UNL     1     -46.212  60.187 -51.368  1.00  0.00     0.002 C 
HETATM   13  C   UNL     1     -45.397  59.158 -50.581  1.00  0.00     0.027 C 
HETATM   14  H   UNL     1     -44.581  56.693 -49.754  1.00  0.00     0.163 HD
ENDROOT
BRANCH   1  15
HETATM   15  C   UNL     1     -43.065  54.842 -53.569  1.00  0.00     0.146 C 
BRANCH  15  16
HETATM   16  C   UNL     1     -41.876  54.966 -54.474  1.00  0.00     0.224 C 
HETATM   17  N   UNL     1     -40.765  54.196 -54.403  1.00  0.00    -0.327 N 
HETATM   18  H   UNL     1     -40.036  54.566 -55.009  1.00  0.00     0.169 HD
HETATM   19  O   UNL     1     -41.817  55.985 -55.176  1.00  0.00    -0.273 OA
BRANCH  17  20
HETATM   20  C   UNL     1     -40.376  53.085 -53.633  1.00  0.00     0.034 A 
HETATM   21  C   UNL     1     -40.059  51.820 -54.125  1.00  0.00     0.031 A 
HETATM   22  C   UNL     1     -39.712  50.784 -53.246  1.00  0.00     0.026 A 
HETATM   23  C   UNL     1     -39.670  51.009 -51.873  1.00  0.00     0.034 A 
HETATM   24  C   UNL     1     -39.953  52.272 -51.371  1.00  0.00     0.026 A 
HETATM   25 CL   UNL     1     -39.257  49.730 -50.804  1.00  0.00    -0.084 Cl
HETATM   26  C   UNL     1     -40.291  53.306 -52.249  1.00  0.00     0.031 A 
ENDBRANCH  17  20
ENDBRANCH  15  16
ENDBRANCH   1  15
TORSDOF 3
ENDMDL
MODEL 5
REMARK VINA RESULT:      -7.5      2.695      6.511
REMARK  3 active torsions:
REMARK  status: ('A' for Active; 'I' for Inactive)
REMARK    1  A    between atoms: C_2  and  N_3 
REMARK       I    between atoms: N_3  and  C_4 
REMARK    2  A    between atoms: C_4  and  C_5 
REMARK    3  A    between atoms: C_5  and  C_6 
ROOT
HETATM    1  C   UNL     1     -41.279  54.067 -51.879  1.00  0.00     0.286 C 
HETATM    2  N   UNL     1     -40.641  53.505 -53.157  1.00  0.00    -0.056 N 
HETATM    3  H   UNL     1     -41.154  53.857 -53.984  1.00  0.00     0.278 HD
HETATM    4  H   UNL     1     -39.691  53.892 -53.260  1.00  0.00     0.278 HD
HETATM    5  C   UNL     1     -40.602  52.007 -53.119  1.00  0.00     0.209 C 
HETATM    6  C   UNL     1     -39.697  51.595 -51.937  1.00  0.00     0.115 C 
HETATM    7  N   UNL     1     -40.151  52.191 -50.682  1.00  0.00    -0.353 N 
HETATM    8  C   UNL     1     -40.641  53.479 -50.598  1.00  0.00     0.249 C 
HETATM    9  O   UNL     1     -40.643  54.069 -49.525  1.00  0.00    -0.271 OA
HETATM   10  C   UNL     1     -40.092  51.454 -54.441  1.00  0.00     0.035 C 
HETATM   11  C   UNL     1     -40.002  49.930 -54.360  1.00  0.00     0.002 C 
HETATM   12  C   UNL     1     -39.138  49.472 -53.184  1.00  0.00     0.002 C 
HETATM   13  C   UNL     1     -39.593  50.073 -51.852  1.00  0.00     0.027 C 
HETATM   14  H   UNL     1     -39.712  51.880 -49.815  1.00  0.00     0.163 HD
ENDROOT
BRANCH   1  15
HETATM   15  C   UNL     1     -41.199  55.588 -51.892  1.00  0.00     0.146 C 
BRANCH  15  16
HETATM   16  C   UNL     1     -42.601  56.117 -51.831  1.00  0.00     0.224 C 
HETATM   17  N   UNL     1     -43.347  56.461 -52.908  1.00  0.00    -0.327 N 
HETATM   18  H   UNL     1     -44.196  56.938 -52.614  1.00  0.00     0.169 HD
HETATM   19  O   UNL     1     -43.011  56.475 -50.718  1.00  0.00    -0.273 OA
BRANCH  17  20
HETATM   20  C   UNL     1     -43.170  56.387 -54.300  1.00  0.00     0.034 A 
HETATM   21  C   UNL     1     -42.883  57.456 -55.147  1.00  0.00     0.031 A 
HETATM   22  C   UNL     1     -42.758  57.254 -56.529  1.00  0.00     0.026 A 
HETATM   23  C   UNL     1     -42.909  55.981 -57.070  1.00  0.00     0.034 A 
HETATM   24  C   UNL     1     -43.164  54.901 -56.237  1.00  0.00     0.026 A 
HETATM   25 CL   UNL     1     -42.768  55.746 -58.766  1.00  0.00    -0.084 Cl
HETATM   26  C   UNL     1     -43.280  55.103 -54.858  1.00  0.00     0.031 A 
ENDBRANCH  17  20
ENDBRANCH  15  16
ENDBRANCH   1  15
TORSDOF 3
ENDMDL
MODEL 6
REMARK VINA RESULT:      -7.4      2.373      2.939
REMARK  3 active torsions:
REMARK  status: ('A' for Active; 'I' for Inactive)
REMARK    1  A    between atoms: C_2  and  N_3 
REMARK       I    between atoms: N_3  and  C_4 
REMARK    2  A    between atoms: C_4  and  C_5 
REMARK    3  A    between atoms: C_5  and  C_6 
ROOT
HETATM    1  C   UNL     1     -43.309  55.906 -53.022  1.00  0.00     0.286 C 
HETATM    2  N   UNL     1     -41.956  56.415 -52.507  1.00  0.00    -0.056 N 
HETATM    3  H   UNL     1     -41.429  55.632 -52.084  1.00  0.00     0.278 HD
HETATM    4  H   UNL     1     -41.378  56.710 -53.308  1.00  0.00     0.278 HD
HETATM    5  C   UNL     1     -42.145  57.548 -51.543  1.00  0.00     0.209 C 
HETATM    6  C   UNL     1     -42.808  58.710 -52.315  1.00  0.00     0.115 C 
HETATM    7  N   UNL     1     -44.051  58.287 -52.957  1.00  0.00    -0.353 N 
HETATM    8  C   UNL     1     -44.204  57.051 -53.553  1.00  0.00     0.249 C 
HETATM    9  O   UNL     1     -45.078  56.876 -54.393  1.00  0.00    -0.271 OA
HETATM   10  C   UNL     1     -40.812  57.959 -50.937  1.00  0.00     0.035 C 
HETATM   11  C   UNL     1     -41.017  59.153 -50.005  1.00  0.00     0.002 C 
HETATM   12  C   UNL     1     -41.699  60.321 -50.719  1.00  0.00     0.002 C 
HETATM   13  C   UNL     1     -43.010  59.912 -51.395  1.00  0.00     0.027 C 
HETATM   14  H   UNL     1     -44.643  59.003 -53.378  1.00  0.00     0.163 HD
ENDROOT
BRANCH   1  15
HETATM   15  C   UNL     1     -43.085  54.838 -54.085  1.00  0.00     0.146 C 
BRANCH  15  16
HETATM   16  C   UNL     1     -41.760  55.112 -54.732  1.00  0.00     0.224 C 
HETATM   17  N   UNL     1     -40.627  54.408 -54.505  1.00  0.00    -0.327 N 
HETATM   18  H   UNL     1     -39.827  54.872 -54.931  1.00  0.00     0.169 HD
HETATM   19  O   UNL     1     -41.649  56.189 -55.335  1.00  0.00    -0.273 OA
BRANCH  17  20
HETATM   20  C   UNL     1     -40.305  53.261 -53.758  1.00  0.00     0.034 A 
HETATM   21  C   UNL     1     -40.058  51.990 -54.276  1.00  0.00     0.031 A 
HETATM   22  C   UNL     1     -39.774  50.918 -53.418  1.00  0.00     0.026 A 
HETATM   23  C   UNL     1     -39.726  51.112 -52.041  1.00  0.00     0.034 A 
HETATM   24  C   UNL     1     -39.938  52.377 -51.513  1.00  0.00     0.026 A 
HETATM   25 CL   UNL     1     -39.391  49.789 -50.998  1.00  0.00    -0.084 Cl
HETATM   26  C   UNL     1     -40.213  53.447 -52.370  1.00  0.00     0.031 A 
ENDBRANCH  17  20
ENDBRANCH  15  16
ENDBRANCH   1  15
TORSDOF 3
ENDMDL
MODEL 7
REMARK VINA RESULT:      -7.4      2.635      6.294
REMARK  3 active torsions:
REMARK  status: ('A' for Active; 'I' for Inactive)
REMARK    1  A    between atoms: C_2  and  N_3 
REMARK       I    between atoms: N_3  and  C_4 
REMARK    2  A    between atoms: C_4  and  C_5 
REMARK    3  A    between atoms: C_5  and  C_6 
ROOT
HETATM    1  C   UNL     1     -42.382  54.935 -51.260  1.00  0.00     0.286 C 
HETATM    2  N   UNL     1     -41.684  54.746 -52.613  1.00  0.00    -0.056 N 
HETATM    3  H   UNL     1     -42.306  55.074 -53.373  1.00  0.00     0.278 HD
HETATM    4  H   UNL     1     -40.866  55.371 -52.663  1.00  0.00     0.278 HD
HETATM    5  C   UNL     1     -41.272  53.317 -52.805  1.00  0.00     0.209 C 
HETATM    6  C   UNL     1     -40.240  52.980 -51.707  1.00  0.00     0.115 C 
HETATM    7  N   UNL     1     -40.770  53.251 -50.372  1.00  0.00    -0.353 N 
HETATM    8  C   UNL     1     -41.561  54.346 -50.088  1.00  0.00     0.249 C 
HETATM    9  O   UNL     1     -41.661  54.754 -48.938  1.00  0.00    -0.271 OA
HETATM   10  C   UNL     1     -40.702  53.111 -54.200  1.00  0.00     0.035 C 
HETATM   11  C   UNL     1     -40.232  51.665 -54.354  1.00  0.00     0.002 C 
HETATM   12  C   UNL     1     -39.228  51.273 -53.268  1.00  0.00     0.002 C 
HETATM   13  C   UNL     1     -39.757  51.538 -51.856  1.00  0.00     0.027 C 
HETATM   14  H   UNL     1     -40.229  52.938 -49.566  1.00  0.00     0.163 HD
ENDROOT
BRANCH   1  15
HETATM   15  C   UNL     1     -42.685  56.412 -51.040  1.00  0.00     0.146 C 
BRANCH  15  16
HETATM   16  C   UNL     1     -44.131  56.634 -51.367  1.00  0.00     0.224 C 
HETATM   17  N   UNL     1     -44.607  56.970 -52.589  1.00  0.00    -0.327 N 
HETATM   18  H   UNL     1     -45.592  57.220 -52.532  1.00  0.00     0.169 HD
HETATM   19  O   UNL     1     -44.908  56.739 -50.407  1.00  0.00    -0.273 OA
BRANCH  17  20
HETATM   20  C   UNL     1     -44.037  57.132 -53.864  1.00  0.00     0.034 A 
HETATM   21  C   UNL     1     -43.810  56.119 -54.794  1.00  0.00     0.031 A 
HETATM   22  C   UNL     1     -43.205  56.409 -56.026  1.00  0.00     0.026 A 
HETATM   23  C   UNL     1     -42.834  57.713 -56.338  1.00  0.00     0.034 A 
HETATM   24  C   UNL     1     -43.081  58.738 -55.435  1.00  0.00     0.026 A 
HETATM   25 CL   UNL     1     -42.081  58.056 -57.843  1.00  0.00    -0.084 Cl
HETATM   26  C   UNL     1     -43.692  58.449 -54.211  1.00  0.00     0.031 A 
ENDBRANCH  17  20
ENDBRANCH  15  16
ENDBRANCH   1  15
TORSDOF 3
ENDMDL
MODEL 8
REMARK VINA RESULT:      -7.3      3.977      6.908
REMARK  3 active torsions:
REMARK  status: ('A' for Active; 'I' for Inactive)
REMARK    1  A    between atoms: C_2  and  N_3 
REMARK       I    between atoms: N_3  and  C_4 
REMARK    2  A    between atoms: C_4  and  C_5 
REMARK    3  A    between atoms: C_5  and  C_6 
ROOT
HETATM    1  C   UNL     1     -43.348  55.007 -53.537  1.00  0.00     0.286 C 
HETATM    2  N   UNL     1     -42.193  54.420 -54.360  1.00  0.00    -0.056 N 
HETATM    3  H   UNL     1     -42.529  54.185 -55.310  1.00  0.00     0.278 HD
HETATM    4  H   UNL     1     -41.481  55.149 -54.512  1.00  0.00     0.278 HD
HETATM    5  C   UNL     1     -41.597  53.232 -53.667  1.00  0.00     0.209 C 
HETATM    6  C   UNL     1     -41.002  53.723 -52.330  1.00  0.00     0.115 C 
HETATM    7  N   UNL     1     -42.002  54.417 -51.521  1.00  0.00    -0.353 N 
HETATM    8  C   UNL     1     -42.950  55.262 -52.064  1.00  0.00     0.249 C 
HETATM    9  O   UNL     1     -43.498  56.104 -51.364  1.00  0.00    -0.271 OA
HETATM   10  C   UNL     1     -40.544  52.577 -54.548  1.00  0.00     0.035 C 
HETATM   11  C   UNL     1     -39.905  51.406 -53.801  1.00  0.00     0.002 C 
HETATM   12  C   UNL     1     -39.326  51.838 -52.453  1.00  0.00     0.002 C 
HETATM   13  C   UNL     1     -40.353  52.562 -51.578  1.00  0.00     0.027 C 
HETATM   14  H   UNL     1     -41.759  54.664 -50.561  1.00  0.00     0.163 HD
ENDROOT
BRANCH   1  15
HETATM   15  C   UNL     1     -43.858  56.279 -54.203  1.00  0.00     0.146 C 
BRANCH  15  16
HETATM   16  C   UNL     1     -42.686  56.957 -54.847  1.00  0.00     0.224 C 
HETATM   17  N   UNL     1     -42.526  57.128 -56.180  1.00  0.00    -0.327 N 
HETATM   18  H   UNL     1     -41.589  57.468 -56.386  1.00  0.00     0.169 HD
HETATM   19  O   UNL     1     -41.700  57.165 -54.125  1.00  0.00    -0.273 OA
BRANCH  17  20
HETATM   20  C   UNL     1     -43.313  56.864 -57.315  1.00  0.00     0.034 A 
HETATM   21  C   UNL     1     -44.319  57.685 -57.823  1.00  0.00     0.031 A 
HETATM   22  C   UNL     1     -45.054  57.292 -58.950  1.00  0.00     0.026 A 
HETATM   23  C   UNL     1     -44.781  56.081 -59.581  1.00  0.00     0.034 A 
HETATM   24  C   UNL     1     -43.762  55.268 -59.106  1.00  0.00     0.026 A 
HETATM   25 CL   UNL     1     -45.696  55.602 -60.954  1.00  0.00    -0.084 Cl
HETATM   26  C   UNL     1     -43.025  55.665 -57.986  1.00  0.00     0.031 A 
ENDBRANCH  17  20
ENDBRANCH  15  16
ENDBRANCH   1  15
TORSDOF 3
ENDMDL
MODEL 9
REMARK VINA RESULT:      -7.2      1.768      2.091
REMARK  3 active torsions:
REMARK  status: ('A' for Active; 'I' for Inactive)
REMARK    1  A    between atoms: C_2  and  N_3 
REMARK       I    between atoms: N_3  and  C_4 
REMARK    2  A    between atoms: C_4  and  C_5 
REMARK    3  A    between atoms: C_5  and  C_6 
ROOT
HETATM    1  C   UNL     1     -44.026  55.786 -51.548  1.00  0.00     0.286 C 
HETATM    2  N   UNL     1     -44.233  57.051 -50.703  1.00  0.00    -0.056 N 
HETATM    3  H   UNL     1     -44.626  56.792 -49.782  1.00  0.00     0.278 HD
HETATM    4  H   UNL     1     -43.315  57.466 -50.484  1.00  0.00     0.278 HD
HETATM    5  C   UNL     1     -45.102  58.037 -51.425  1.00  0.00     0.209 C 
HETATM    6  C   UNL     1     -44.357  58.461 -52.709  1.00  0.00     0.115 C 
HETATM    7  N   UNL     1     -43.998  57.305 -53.527  1.00  0.00    -0.353 N 
HETATM    8  C   UNL     1     -43.562  56.111 -52.987  1.00  0.00     0.249 C 
HETATM    9  O   UNL     1     -42.916  55.325 -53.669  1.00  0.00    -0.271 OA
HETATM   10  C   UNL     1     -45.411  59.228 -50.531  1.00  0.00     0.035 C 
HETATM   11  C   UNL     1     -46.246  60.248 -51.304  1.00  0.00     0.002 C 
HETATM   12  C   UNL     1     -45.562  60.678 -52.603  1.00  0.00     0.002 C 
HETATM   13  C   UNL     1     -45.180  59.487 -53.487  1.00  0.00     0.027 C 
HETATM   14  H   UNL     1     -43.626  57.472 -54.462  1.00  0.00     0.163 HD
ENDROOT
BRANCH   1  15
HETATM   15  C   UNL     1     -43.047  54.855 -50.844  1.00  0.00     0.146 C 
BRANCH  15  16
HETATM   16  C   UNL     1     -41.688  55.484 -50.916  1.00  0.00     0.224 C 
HETATM   17  N   UNL     1     -40.579  54.880 -51.402  1.00  0.00    -0.327 N 
HETATM   18  H   UNL     1     -39.752  55.439 -51.203  1.00  0.00     0.169 HD
HETATM   19  O   UNL     1     -41.530  56.537 -50.280  1.00  0.00    -0.273 OA
BRANCH  17  20
HETATM   20  C   UNL     1     -40.314  53.646 -52.021  1.00  0.00     0.034 A 
HETATM   21  C   UNL     1     -39.899  52.480 -51.379  1.00  0.00     0.031 A 
HETATM   22  C   UNL     1     -39.639  51.317 -52.117  1.00  0.00     0.026 A 
HETATM   23  C   UNL     1     -39.801  51.310 -53.500  1.00  0.00     0.034 A 
HETATM   24  C   UNL     1     -40.244  52.453 -54.150  1.00  0.00     0.026 A 
HETATM   25 CL   UNL     1     -39.467  49.884 -54.397  1.00  0.00    -0.084 Cl
HETATM   26  C   UNL     1     -40.510  53.610 -53.411  1.00  0.00     0.031 A 
ENDBRANCH  17  20
ENDBRANCH  15  16
ENDBRANCH   1  15
TORSDOF 3
ENDMDL
MODEL 10
REMARK VINA RESULT:      -7.1      3.125      6.895
REMARK  3 active torsions:
REMARK  status: ('A' for Active; 'I' for Inactive)
REMARK    1  A    between atoms: C_2  and  N_3 
REMARK       I    between atoms: N_3  and  C_4 
REMARK    2  A    between atoms: C_4  and  C_5 
REMARK    3  A    between atoms: C_5  and  C_6 
ROOT
HETATM    1  C   UNL     1     -43.278  54.551 -53.840  1.00  0.00     0.286 C 
HETATM    2  N   UNL     1     -42.059  53.908 -54.516  1.00  0.00    -0.056 N 
HETATM    3  H   UNL     1     -42.339  53.510 -55.429  1.00  0.00     0.278 HD
HETATM    4  H   UNL     1     -41.377  54.642 -54.753  1.00  0.00     0.278 HD
HETATM    5  C   UNL     1     -41.438  52.876 -53.623  1.00  0.00     0.209 C 
HETATM    6  C   UNL     1     -40.930  53.601 -52.357  1.00  0.00     0.115 C 
HETATM    7  N   UNL     1     -41.998  54.356 -51.707  1.00  0.00    -0.353 N 
HETATM    8  C   UNL     1     -42.960  55.053 -52.411  1.00  0.00     0.249 C 
HETATM    9  O   UNL     1     -43.581  55.962 -51.874  1.00  0.00    -0.271 OA
HETATM   10  C   UNL     1     -40.315  52.151 -54.348  1.00  0.00     0.035 C 
HETATM   11  C   UNL     1     -39.656  51.147 -53.403  1.00  0.00     0.002 C 
HETATM   12  C   UNL     1     -39.161  51.815 -52.119  1.00  0.00     0.002 C 
HETATM   13  C   UNL     1     -40.261  52.608 -51.408  1.00  0.00     0.027 C 
HETATM   14  H   UNL     1     -41.812  54.761 -50.789  1.00  0.00     0.163 HD
ENDROOT
BRANCH   1  15
HETATM   15  C   UNL     1     -43.817  55.674 -54.717  1.00  0.00     0.146 C 
BRANCH  15  16
HETATM   16  C   UNL     1     -42.654  56.287 -55.438  1.00  0.00     0.224 C 
HETATM   17  N   UNL     1     -42.017  57.419 -55.058  1.00  0.00    -0.327 N 
HETATM   18  H   UNL     1     -41.370  57.724 -55.782  1.00  0.00     0.169 HD
HETATM   19  O   UNL     1     -42.413  55.853 -56.573  1.00  0.00    -0.273 OA
BRANCH  17  20
HETATM   20  C   UNL     1     -42.115  58.291 -53.959  1.00  0.00     0.034 A 
HETATM   21  C   UNL     1     -43.177  59.154 -53.692  1.00  0.00     0.031 A 
HETATM   22  C   UNL     1     -43.140  59.998 -52.572  1.00  0.00     0.026 A 
HETATM   23  C   UNL     1     -42.048  59.976 -51.710  1.00  0.00     0.034 A 
HETATM   24  C   UNL     1     -40.998  59.100 -51.945  1.00  0.00     0.026 A 
HETATM   25 CL   UNL     1     -42.007  61.023 -50.349  1.00  0.00    -0.084 Cl
HETATM   26  C   UNL     1     -41.040  58.253 -53.058  1.00  0.00     0.031 A 
ENDBRANCH  17  20
ENDBRANCH  15  16
ENDBRANCH   1  15
TORSDOF 3
ENDMDL
