MODEL 1
REMARK VINA RESULT:      -8.6      0.000      0.000
REMARK  9 active torsions:
REMARK  status: ('A' for Active; 'I' for Inactive)
REMARK    1  A    between atoms: N_2  and  C_4 
REMARK    2  A    between atoms: C_4  and  C_5 
REMARK    3  A    between atoms: N_6  and  C_7 
REMARK    4  A    between atoms: C_11  and  N_12 
REMARK    5  A    between atoms: C_15  and  C_16 
REMARK       I    between atoms: C_16  and  N_17 
REMARK    6  A    between atoms: N_17  and  N_18 
REMARK    7  A    between atoms: C_19  and  C_20 
REMARK    8  A    between atoms: C_21  and  C_22 
REMARK    9  A    between atoms: N_29  and  C_30 
ROOT
HETATM    1  C   UNL     1     -43.558  56.684 -58.188  1.00  0.00     0.293 C 
HETATM    2  N   UNL     1     -43.789  56.843 -56.834  1.00  0.00    -0.242 N 
HETATM    3  O   UNL     1     -42.920  55.776 -58.712  1.00  0.00    -0.264 OA
HETATM    4  H   UNL     1     -44.312  57.647 -56.494  1.00  0.00     0.192 HD
ENDROOT
BRANCH   2   5
HETATM    5  N   UNL     1     -43.269  55.938 -55.955  1.00  0.00    -0.183 NA
HETATM    6  C   UNL     1     -42.132  56.252 -55.421  1.00  0.00     0.154 C 
BRANCH   6   7
HETATM    7  C   UNL     1     -41.525  55.332 -54.491  1.00  0.00     0.032 A 
HETATM    8  C   UNL     1     -41.052  55.570 -53.172  1.00  0.00     0.101 A 
HETATM    9  N   UNL     1     -40.605  54.438 -52.612  1.00  0.00    -0.166 NA
HETATM   10  N   UNL     1     -40.729  53.479 -53.560  1.00  0.00    -0.244 N 
HETATM   11  C   UNL     1     -41.282  53.990 -54.711  1.00  0.00     0.134 A 
BRANCH   8  12
HETATM   12  C   UNL     1     -40.994  56.833 -52.435  1.00  0.00    -0.005 A 
HETATM   13  C   UNL     1     -41.310  56.864 -51.070  1.00  0.00     0.014 A 
HETATM   14  C   UNL     1     -41.251  58.063 -50.357  1.00  0.00     0.001 A 
HETATM   15  C   UNL     1     -40.872  59.240 -51.000  1.00  0.00     0.000 A 
HETATM   16  C   UNL     1     -40.541  59.218 -52.353  1.00  0.00     0.001 A 
HETATM   17  C   UNL     1     -40.596  58.020 -53.067  1.00  0.00     0.014 A 
ENDBRANCH   8  12
BRANCH  10  18
HETATM   18  C   UNL     1     -40.318  52.140 -53.305  1.00  0.00     0.058 A 
HETATM   19  C   UNL     1     -39.900  51.783 -52.014  1.00  0.00     0.031 A 
HETATM   20  C   UNL     1     -39.490  50.476 -51.743  1.00  0.00     0.002 A 
HETATM   21  C   UNL     1     -39.495  49.518 -52.754  1.00  0.00     0.000 A 
HETATM   22  C   UNL     1     -39.911  49.864 -54.038  1.00  0.00     0.002 A 
HETATM   23  C   UNL     1     -40.322  51.172 -54.319  1.00  0.00     0.031 A 
ENDBRANCH  10  18
ENDBRANCH   6   7
ENDBRANCH   2   5
BRANCH   1  24
HETATM   24  C   UNL     1     -44.144  57.733 -59.011  1.00  0.00     0.170 A 
HETATM   25  C   UNL     1     -45.475  57.853 -59.384  1.00  0.00     0.096 A 
HETATM   26  N   UNL     1     -45.527  59.053 -60.090  1.00  0.00    -0.215 N 
HETATM   27  N   UNL     1     -44.263  59.534 -60.222  1.00  0.00     0.012 NA
HETATM   28  N   UNL     1     -43.428  58.759 -59.553  1.00  0.00    -0.152 NA
BRANCH  25  29
HETATM   29  C   UNL     1     -46.603  56.908 -59.209  1.00  0.00     0.295 C 
BRANCH  29  30
HETATM   30  N   UNL     1     -46.823  55.949 -60.351  1.00  0.00    -0.073 N 
HETATM   31  C   UNL     1     -45.547  55.480 -60.996  1.00  0.00     0.269 C 
HETATM   32  H   UNL     1     -47.315  55.131 -59.966  1.00  0.00     0.279 HD
HETATM   33  C   UNL     1     -47.753  56.538 -61.379  1.00  0.00     0.269 C 
ENDBRANCH  29  30
ENDBRANCH  25  29
BRANCH  26  34
HETATM   34  C   UNL     1     -46.663  59.747 -60.570  1.00  0.00     0.225 A 
HETATM   35  N   UNL     1     -47.689  59.993 -59.750  1.00  0.00    -0.081 NA
HETATM   36  O   UNL     1     -48.591  60.697 -60.555  1.00  0.00    -0.103 OA
HETATM   37  N   UNL     1     -48.081  60.890 -61.829  1.00  0.00    -0.083 NA
HETATM   38  C   UNL     1     -46.884  60.305 -61.840  1.00  0.00     0.201 A 
BRANCH  38  39
HETATM   39  N   UNL     1     -46.062  60.269 -62.900  1.00  0.00    -0.379 N 
HETATM   40  H   UNL     1     -45.340  59.556 -62.964  1.00  0.00     0.158 HD
HETATM   41  H   UNL     1     -46.226  60.785 -63.763  1.00  0.00     0.158 HD
ENDBRANCH  38  39
ENDBRANCH  26  34
ENDBRANCH   1  24
TORSDOF 9
ENDMDL
MODEL 2
REMARK VINA RESULT:      -8.5      1.320      2.603
REMARK  9 active torsions:
REMARK  status: ('A' for Active; 'I' for Inactive)
REMARK    1  A    between atoms: N_2  and  C_4 
REMARK    2  A    between atoms: C_4  and  C_5 
REMARK    3  A    between atoms: N_6  and  C_7 
REMARK    4  A    between atoms: C_11  and  N_12 
REMARK    5  A    between atoms: C_15  and  C_16 
REMARK       I    between atoms: C_16  and  N_17 
REMARK    6  A    between atoms: N_17  and  N_18 
REMARK    7  A    between atoms: C_19  and  C_20 
REMARK    8  A    between atoms: C_21  and  C_22 
REMARK    9  A    between atoms: N_29  and  C_30 
ROOT
HETATM    1  C   UNL     1     -43.683  56.349 -58.682  1.00  0.00     0.293 C 
HETATM    2  N   UNL     1     -43.804  56.336 -57.304  1.00  0.00    -0.242 N 
HETATM    3  O   UNL     1     -42.842  55.742 -59.340  1.00  0.00    -0.264 OA
HETATM    4  H   UNL     1     -44.523  56.895 -56.849  1.00  0.00     0.192 HD
ENDROOT
BRANCH   2   5
HETATM    5  N   UNL     1     -42.923  55.605 -56.561  1.00  0.00    -0.183 NA
HETATM    6  C   UNL     1     -43.082  55.658 -55.277  1.00  0.00     0.154 C 
BRANCH   6   7
HETATM    7  C   UNL     1     -42.177  54.916 -54.435  1.00  0.00     0.032 A 
HETATM    8  C   UNL     1     -41.414  55.366 -53.323  1.00  0.00     0.101 A 
HETATM    9  N   UNL     1     -40.735  54.353 -52.768  1.00  0.00    -0.166 NA
HETATM   10  N   UNL     1     -41.001  53.264 -53.529  1.00  0.00    -0.244 N 
HETATM   11  C   UNL     1     -41.870  53.575 -54.548  1.00  0.00     0.134 A 
BRANCH   8  12
HETATM   12  C   UNL     1     -41.294  56.720 -52.783  1.00  0.00    -0.005 A 
HETATM   13  C   UNL     1     -40.705  57.734 -53.551  1.00  0.00     0.014 A 
HETATM   14  C   UNL     1     -40.593  59.030 -53.046  1.00  0.00     0.001 A 
HETATM   15  C   UNL     1     -41.073  59.328 -51.771  1.00  0.00     0.000 A 
HETATM   16  C   UNL     1     -41.675  58.332 -51.005  1.00  0.00     0.001 A 
HETATM   17  C   UNL     1     -41.791  57.035 -51.509  1.00  0.00     0.014 A 
ENDBRANCH   8  12
BRANCH  10  18
HETATM   18  C   UNL     1     -40.414  52.002 -53.232  1.00  0.00     0.058 A 
HETATM   19  C   UNL     1     -40.271  51.052 -54.254  1.00  0.00     0.031 A 
HETATM   20  C   UNL     1     -39.700  49.806 -53.984  1.00  0.00     0.002 A 
HETATM   21  C   UNL     1     -39.267  49.502 -52.695  1.00  0.00     0.000 A 
HETATM   22  C   UNL     1     -39.403  50.441 -51.675  1.00  0.00     0.002 A 
HETATM   23  C   UNL     1     -39.976  51.690 -51.937  1.00  0.00     0.031 A 
ENDBRANCH  10  18
ENDBRANCH   6   7
ENDBRANCH   2   5
BRANCH   1  24
HETATM   24  C   UNL     1     -44.666  57.189 -59.351  1.00  0.00     0.170 A 
HETATM   25  C   UNL     1     -44.608  58.564 -59.522  1.00  0.00     0.096 A 
HETATM   26  N   UNL     1     -45.734  58.864 -60.286  1.00  0.00    -0.215 N 
HETATM   27  N   UNL     1     -46.468  57.731 -60.440  1.00  0.00     0.012 NA
HETATM   28  N   UNL     1     -45.819  56.712 -59.902  1.00  0.00    -0.152 NA
BRANCH  25  29
HETATM   29  C   UNL     1     -43.665  59.557 -58.954  1.00  0.00     0.295 C 
BRANCH  29  30
HETATM   30  N   UNL     1     -42.658  60.118 -59.925  1.00  0.00    -0.073 N 
HETATM   31  C   UNL     1     -41.965  59.066 -60.748  1.00  0.00     0.269 C 
HETATM   32  H   UNL     1     -43.171  60.746 -60.560  1.00  0.00     0.279 HD
HETATM   33  C   UNL     1     -41.652  60.986 -59.217  1.00  0.00     0.269 C 
ENDBRANCH  29  30
ENDBRANCH  25  29
BRANCH  26  34
HETATM   34  C   UNL     1     -46.094  60.094 -60.885  1.00  0.00     0.225 A 
HETATM   35  N   UNL     1     -45.253  60.693 -61.734  1.00  0.00    -0.081 NA
HETATM   36  O   UNL     1     -45.947  61.844 -62.125  1.00  0.00    -0.103 OA
HETATM   37  N   UNL     1     -47.199  61.900 -61.533  1.00  0.00    -0.083 NA
HETATM   38  C   UNL     1     -47.294  60.815 -60.765  1.00  0.00     0.201 A 
BRANCH  38  39
HETATM   39  N   UNL     1     -48.363  60.501 -60.019  1.00  0.00    -0.379 N 
HETATM   40  H   UNL     1     -49.301  60.630 -60.389  1.00  0.00     0.158 HD
HETATM   41  H   UNL     1     -48.317  59.948 -59.165  1.00  0.00     0.158 HD
ENDBRANCH  38  39
ENDBRANCH  26  34
ENDBRANCH   1  24
TORSDOF 9
ENDMDL
MODEL 3
REMARK VINA RESULT:      -8.4      1.685      2.349
REMARK  9 active torsions:
REMARK  status: ('A' for Active; 'I' for Inactive)
REMARK    1  A    between atoms: N_2  and  C_4 
REMARK    2  A    between atoms: C_4  and  C_5 
REMARK    3  A    between atoms: N_6  and  C_7 
REMARK    4  A    between atoms: C_11  and  N_12 
REMARK    5  A    between atoms: C_15  and  C_16 
REMARK       I    between atoms: C_16  and  N_17 
REMARK    6  A    between atoms: N_17  and  N_18 
REMARK    7  A    between atoms: C_19  and  C_20 
REMARK    8  A    between atoms: C_21  and  C_22 
REMARK    9  A    between atoms: N_29  and  C_30 
ROOT
HETATM    1  C   UNL     1     -42.917  56.070 -57.937  1.00  0.00     0.293 C 
HETATM    2  N   UNL     1     -42.121  56.517 -56.898  1.00  0.00    -0.242 N 
HETATM    3  O   UNL     1     -43.495  54.988 -57.991  1.00  0.00    -0.264 OA
HETATM    4  H   UNL     1     -41.663  57.425 -56.959  1.00  0.00     0.192 HD
ENDROOT
BRANCH   2   5
HETATM    5  N   UNL     1     -41.918  55.714 -55.815  1.00  0.00    -0.183 NA
HETATM    6  C   UNL     1     -41.415  56.286 -54.768  1.00  0.00     0.154 C 
BRANCH   6   7
HETATM    7  C   UNL     1     -41.165  55.489 -53.594  1.00  0.00     0.032 A 
HETATM    8  C   UNL     1     -41.244  55.860 -52.223  1.00  0.00     0.101 A 
HETATM    9  N   UNL     1     -40.991  54.811 -51.428  1.00  0.00    -0.166 NA
HETATM   10  N   UNL     1     -40.698  53.779 -52.255  1.00  0.00    -0.244 N 
HETATM   11  C   UNL     1     -40.793  54.159 -53.573  1.00  0.00     0.134 A 
BRANCH   8  12
HETATM   12  C   UNL     1     -41.533  57.173 -51.646  1.00  0.00    -0.005 A 
HETATM   13  C   UNL     1     -40.545  57.857 -50.925  1.00  0.00     0.014 A 
HETATM   14  C   UNL     1     -40.810  59.112 -50.376  1.00  0.00     0.001 A 
HETATM   15  C   UNL     1     -42.063  59.699 -50.548  1.00  0.00     0.000 A 
HETATM   16  C   UNL     1     -43.048  59.036 -51.277  1.00  0.00     0.001 A 
HETATM   17  C   UNL     1     -42.784  57.781 -51.829  1.00  0.00     0.014 A 
ENDBRANCH   8  12
BRANCH  10  18
HETATM   18  C   UNL     1     -40.352  52.500 -51.734  1.00  0.00     0.058 A 
HETATM   19  C   UNL     1     -39.789  51.539 -52.588  1.00  0.00     0.031 A 
HETATM   20  C   UNL     1     -39.445  50.277 -52.098  1.00  0.00     0.002 A 
HETATM   21  C   UNL     1     -39.658  49.967 -50.757  1.00  0.00     0.000 A 
HETATM   22  C   UNL     1     -40.214  50.917 -49.902  1.00  0.00     0.002 A 
HETATM   23  C   UNL     1     -40.563  52.182 -50.385  1.00  0.00     0.031 A 
ENDBRANCH  10  18
ENDBRANCH   6   7
ENDBRANCH   2   5
BRANCH   1  24
HETATM   24  C   UNL     1     -43.029  57.012 -59.041  1.00  0.00     0.170 A 
HETATM   25  C   UNL     1     -43.852  58.127 -59.105  1.00  0.00     0.096 A 
HETATM   26  N   UNL     1     -43.525  58.727 -60.319  1.00  0.00    -0.215 N 
HETATM   27  N   UNL     1     -42.647  57.925 -60.977  1.00  0.00     0.012 NA
HETATM   28  N   UNL     1     -42.323  56.904 -60.203  1.00  0.00    -0.152 NA
BRANCH  25  29
HETATM   29  C   UNL     1     -44.931  58.569 -58.190  1.00  0.00     0.295 C 
BRANCH  29  30
HETATM   30  N   UNL     1     -46.131  57.659 -58.121  1.00  0.00    -0.073 N 
HETATM   31  C   UNL     1     -46.362  56.874 -59.383  1.00  0.00     0.269 C 
HETATM   32  H   UNL     1     -45.962  56.998 -57.350  1.00  0.00     0.279 HD
HETATM   33  C   UNL     1     -47.368  58.426 -57.737  1.00  0.00     0.269 C 
ENDBRANCH  29  30
ENDBRANCH  25  29
BRANCH  26  34
HETATM   34  C   UNL     1     -43.946  59.978 -60.829  1.00  0.00     0.225 A 
HETATM   35  N   UNL     1     -43.103  61.015 -60.828  1.00  0.00    -0.081 NA
HETATM   36  O   UNL     1     -43.849  62.045 -61.412  1.00  0.00    -0.103 OA
HETATM   37  N   UNL     1     -45.110  61.603 -61.781  1.00  0.00    -0.083 NA
HETATM   38  C   UNL     1     -45.172  60.321 -61.423  1.00  0.00     0.201 A 
BRANCH  38  39
HETATM   39  N   UNL     1     -46.237  59.528 -61.610  1.00  0.00    -0.379 N 
HETATM   40  H   UNL     1     -47.118  59.738 -61.147  1.00  0.00     0.158 HD
HETATM   41  H   UNL     1     -46.302  58.827 -62.345  1.00  0.00     0.158 HD
ENDBRANCH  38  39
ENDBRANCH  26  34
ENDBRANCH   1  24
TORSDOF 9
ENDMDL
MODEL 4
REMARK VINA RESULT:      -8.4      1.338      1.889
REMARK  9 active torsions:
REMARK  status: ('A' for Active; 'I' for Inactive)
REMARK    1  A    between atoms: N_2  and  C_4 
REMARK    2  A    between atoms: C_4  and  C_5 
REMARK    3  A    between atoms: N_6  and  C_7 
REMARK    4  A    between atoms: C_11  and  N_12 
REMARK    5  A    between atoms: C_15  and  C_16 
REMARK       I    between atoms: C_16  and  N_17 
REMARK    6  A    between atoms: N_17  and  N_18 
REMARK    7  A    between atoms: C_19  and  C_20 
REMARK    8  A    between atoms: C_21  and  C_22 
REMARK    9  A    between atoms: N_29  and  C_30 
ROOT
HETATM    1  C   UNL     1     -43.782  57.938 -57.107  1.00  0.00     0.293 C 
HETATM    2  N   UNL     1     -44.028  56.605 -56.836  1.00  0.00    -0.242 N 
HETATM    3  O   UNL     1     -42.755  58.554 -56.837  1.00  0.00    -0.264 OA
HETATM    4  H   UNL     1     -44.926  56.190 -57.079  1.00  0.00     0.192 HD
ENDROOT
BRANCH   2   5
HETATM    5  N   UNL     1     -43.076  55.863 -56.200  1.00  0.00    -0.183 NA
HETATM    6  C   UNL     1     -43.241  55.697 -54.926  1.00  0.00     0.154 C 
BRANCH   6   7
HETATM    7  C   UNL     1     -42.263  54.932 -54.194  1.00  0.00     0.032 A 
HETATM    8  C   UNL     1     -41.382  55.355 -53.161  1.00  0.00     0.101 A 
HETATM    9  N   UNL     1     -40.663  54.326 -52.694  1.00  0.00    -0.166 NA
HETATM   10  N   UNL     1     -41.020  53.253 -53.440  1.00  0.00    -0.244 N 
HETATM   11  C   UNL     1     -41.987  53.590 -54.358  1.00  0.00     0.134 A 
BRANCH   8  12
HETATM   12  C   UNL     1     -41.190  56.700 -52.616  1.00  0.00    -0.005 A 
HETATM   13  C   UNL     1     -41.343  56.929 -51.242  1.00  0.00     0.014 A 
HETATM   14  C   UNL     1     -41.155  58.207 -50.712  1.00  0.00     0.001 A 
HETATM   15  C   UNL     1     -40.807  59.266 -51.550  1.00  0.00     0.000 A 
HETATM   16  C   UNL     1     -40.637  59.047 -52.915  1.00  0.00     0.001 A 
HETATM   17  C   UNL     1     -40.822  57.768 -53.447  1.00  0.00     0.014 A 
ENDBRANCH   8  12
BRANCH  10  18
HETATM   18  C   UNL     1     -40.421  51.980 -53.224  1.00  0.00     0.058 A 
HETATM   19  C   UNL     1     -39.984  51.635 -51.936  1.00  0.00     0.031 A 
HETATM   20  C   UNL     1     -39.391  50.392 -51.702  1.00  0.00     0.002 A 
HETATM   21  C   UNL     1     -39.232  49.487 -52.749  1.00  0.00     0.000 A 
HETATM   22  C   UNL     1     -39.666  49.821 -54.030  1.00  0.00     0.002 A 
HETATM   23  C   UNL     1     -40.260  51.064 -54.273  1.00  0.00     0.031 A 
ENDBRANCH  10  18
ENDBRANCH   6   7
ENDBRANCH   2   5
BRANCH   1  24
HETATM   24  C   UNL     1     -44.890  58.619 -57.763  1.00  0.00     0.170 A 
HETATM   25  C   UNL     1     -44.949  59.028 -59.088  1.00  0.00     0.096 A 
HETATM   26  N   UNL     1     -46.234  59.547 -59.231  1.00  0.00    -0.215 N 
HETATM   27  N   UNL     1     -46.839  59.549 -58.014  1.00  0.00     0.012 NA
HETATM   28  N   UNL     1     -46.046  58.968 -57.130  1.00  0.00    -0.152 NA
BRANCH  25  29
HETATM   29  C   UNL     1     -43.892  59.048 -60.127  1.00  0.00     0.295 C 
BRANCH  29  30
HETATM   30  N   UNL     1     -43.517  57.700 -60.690  1.00  0.00    -0.073 N 
HETATM   31  C   UNL     1     -44.552  56.637 -60.445  1.00  0.00     0.269 C 
HETATM   32  H   UNL     1     -43.404  57.820 -61.706  1.00  0.00     0.279 HD
HETATM   33  C   UNL     1     -42.170  57.259 -60.179  1.00  0.00     0.269 C 
ENDBRANCH  29  30
ENDBRANCH  25  29
BRANCH  26  34
HETATM   34  C   UNL     1     -46.891  59.967 -60.411  1.00  0.00     0.225 A 
HETATM   35  N   UNL     1     -46.950  61.267 -60.714  1.00  0.00    -0.081 NA
HETATM   36  O   UNL     1     -47.640  61.290 -61.931  1.00  0.00    -0.103 OA
HETATM   37  N   UNL     1     -47.954  60.008 -62.353  1.00  0.00    -0.083 NA
HETATM   38  C   UNL     1     -47.488  59.185 -61.414  1.00  0.00     0.201 A 
BRANCH  38  39
HETATM   39  N   UNL     1     -47.594  57.848 -61.452  1.00  0.00    -0.379 N 
HETATM   40  H   UNL     1     -48.438  57.413 -61.813  1.00  0.00     0.158 HD
HETATM   41  H   UNL     1     -46.808  57.213 -61.329  1.00  0.00     0.158 HD
ENDBRANCH  38  39
ENDBRANCH  26  34
ENDBRANCH   1  24
TORSDOF 9
ENDMDL
MODEL 5
REMARK VINA RESULT:      -8.3      1.733      2.250
REMARK  9 active torsions:
REMARK  status: ('A' for Active; 'I' for Inactive)
REMARK    1  A    between atoms: N_2  and  C_4 
REMARK    2  A    between atoms: C_4  and  C_5 
REMARK    3  A    between atoms: N_6  and  C_7 
REMARK    4  A    between atoms: C_11  and  N_12 
REMARK    5  A    between atoms: C_15  and  C_16 
REMARK       I    between atoms: C_16  and  N_17 
REMARK    6  A    between atoms: N_17  and  N_18 
REMARK    7  A    between atoms: C_19  and  C_20 
REMARK    8  A    between atoms: C_21  and  C_22 
REMARK    9  A    between atoms: N_29  and  C_30 
ROOT
HETATM    1  C   UNL     1     -43.397  57.915 -57.347  1.00  0.00     0.293 C 
HETATM    2  N   UNL     1     -42.235  57.174 -57.238  1.00  0.00    -0.242 N 
HETATM    3  O   UNL     1     -44.394  57.808 -56.638  1.00  0.00    -0.264 OA
HETATM    4  H   UNL     1     -41.470  57.322 -57.893  1.00  0.00     0.192 HD
ENDROOT
BRANCH   2   5
HETATM    5  N   UNL     1     -42.142  56.212 -56.274  1.00  0.00    -0.183 NA
HETATM    6  C   UNL     1     -41.184  56.359 -55.416  1.00  0.00     0.154 C 
BRANCH   6   7
HETATM    7  C   UNL     1     -41.025  55.370 -54.379  1.00  0.00     0.032 A 
HETATM    8  C   UNL     1     -41.316  55.471 -52.991  1.00  0.00     0.101 A 
HETATM    9  N   UNL     1     -41.082  54.308 -52.367  1.00  0.00    -0.166 NA
HETATM   10  N   UNL     1     -40.594  53.470 -53.313  1.00  0.00    -0.244 N 
HETATM   11  C   UNL     1     -40.546  54.086 -54.541  1.00  0.00     0.134 A 
BRANCH   8  12
HETATM   12  C   UNL     1     -41.791  56.631 -52.237  1.00  0.00    -0.005 A 
HETATM   13  C   UNL     1     -40.892  57.389 -51.473  1.00  0.00     0.014 A 
HETATM   14  C   UNL     1     -41.336  58.502 -50.757  1.00  0.00     0.001 A 
HETATM   15  C   UNL     1     -42.679  58.871 -50.801  1.00  0.00     0.000 A 
HETATM   16  C   UNL     1     -43.579  58.135 -51.570  1.00  0.00     0.001 A 
HETATM   17  C   UNL     1     -43.137  57.023 -52.289  1.00  0.00     0.014 A 
ENDBRANCH   8  12
BRANCH  10  18
HETATM   18  C   UNL     1     -40.211  52.139 -52.984  1.00  0.00     0.058 A 
HETATM   19  C   UNL     1     -40.158  51.168 -53.995  1.00  0.00     0.031 A 
HETATM   20  C   UNL     1     -39.788  49.855 -53.694  1.00  0.00     0.002 A 
HETATM   21  C   UNL     1     -39.468  49.503 -52.384  1.00  0.00     0.000 A 
HETATM   22  C   UNL     1     -39.516  50.462 -51.374  1.00  0.00     0.002 A 
HETATM   23  C   UNL     1     -39.887  51.779 -51.668  1.00  0.00     0.031 A 
ENDBRANCH  10  18
ENDBRANCH   6   7
ENDBRANCH   2   5
BRANCH   1  24
HETATM   24  C   UNL     1     -43.376  58.886 -58.433  1.00  0.00     0.170 A 
HETATM   25  C   UNL     1     -43.892  58.719 -59.710  1.00  0.00     0.096 A 
HETATM   26  N   UNL     1     -43.692  59.953 -60.325  1.00  0.00    -0.215 N 
HETATM   27  N   UNL     1     -42.982  60.748 -59.483  1.00  0.00     0.012 NA
HETATM   28  N   UNL     1     -42.811  60.123 -58.331  1.00  0.00    -0.152 NA
BRANCH  25  29
HETATM   29  C   UNL     1     -44.435  57.507 -60.368  1.00  0.00     0.295 C 
BRANCH  29  30
HETATM   30  N   UNL     1     -45.932  57.488 -60.550  1.00  0.00    -0.073 N 
HETATM   31  C   UNL     1     -46.686  58.090 -59.396  1.00  0.00     0.269 C 
HETATM   32  H   UNL     1     -46.137  58.036 -61.398  1.00  0.00     0.279 HD
HETATM   33  C   UNL     1     -46.423  56.094 -60.837  1.00  0.00     0.269 C 
ENDBRANCH  29  30
ENDBRANCH  25  29
BRANCH  26  34
HETATM   34  C   UNL     1     -44.162  60.399 -61.583  1.00  0.00     0.225 A 
HETATM   35  N   UNL     1     -45.476  60.470 -61.816  1.00  0.00    -0.081 NA
HETATM   36  O   UNL     1     -45.552  60.961 -63.124  1.00  0.00    -0.103 OA
HETATM   37  N   UNL     1     -44.289  61.206 -63.641  1.00  0.00    -0.083 NA
HETATM   38  C   UNL     1     -43.426  60.861 -62.687  1.00  0.00     0.201 A 
BRANCH  38  39
HETATM   39  N   UNL     1     -42.092  60.948 -62.798  1.00  0.00    -0.379 N 
HETATM   40  H   UNL     1     -41.676  61.559 -63.495  1.00  0.00     0.158 HD
HETATM   41  H   UNL     1     -41.440  60.597 -62.099  1.00  0.00     0.158 HD
ENDBRANCH  38  39
ENDBRANCH  26  34
ENDBRANCH   1  24
TORSDOF 9
ENDMDL
MODEL 6
REMARK VINA RESULT:      -8.0      2.799     10.553
REMARK  9 active torsions:
REMARK  status: ('A' for Active; 'I' for Inactive)
REMARK    1  A    between atoms: N_2  and  C_4 
REMARK    2  A    between atoms: C_4  and  C_5 
REMARK    3  A    between atoms: N_6  and  C_7 
REMARK    4  A    between atoms: C_11  and  N_12 
REMARK    5  A    between atoms: C_15  and  C_16 
REMARK       I    between atoms: C_16  and  N_17 
REMARK    6  A    between atoms: N_17  and  N_18 
REMARK    7  A    between atoms: C_19  and  C_20 
REMARK    8  A    between atoms: C_21  and  C_22 
REMARK    9  A    between atoms: N_29  and  C_30 
ROOT
HETATM    1  C   UNL     1     -42.745  55.283 -55.350  1.00  0.00     0.293 C 
HETATM    2  N   UNL     1     -42.519  55.673 -56.657  1.00  0.00    -0.242 N 
HETATM    3  O   UNL     1     -43.705  55.603 -54.655  1.00  0.00    -0.264 OA
HETATM    4  H   UNL     1     -41.675  55.374 -57.142  1.00  0.00     0.192 HD
ENDROOT
BRANCH   2   5
HETATM    5  N   UNL     1     -43.412  56.500 -57.274  1.00  0.00    -0.183 NA
HETATM    6  C   UNL     1     -43.503  56.381 -58.560  1.00  0.00     0.154 C 
BRANCH   6   7
HETATM    7  C   UNL     1     -44.421  57.234 -59.272  1.00  0.00     0.032 A 
HETATM    8  C   UNL     1     -44.304  58.616 -59.585  1.00  0.00     0.101 A 
HETATM    9  N   UNL     1     -45.349  59.032 -60.313  1.00  0.00    -0.166 NA
HETATM   10  N   UNL     1     -46.169  57.961 -60.434  1.00  0.00    -0.244 N 
HETATM   11  C   UNL     1     -45.635  56.857 -59.812  1.00  0.00     0.134 A 
BRANCH   8  12
HETATM   12  C   UNL     1     -43.247  59.554 -59.205  1.00  0.00    -0.005 A 
HETATM   13  C   UNL     1     -42.987  59.809 -57.852  1.00  0.00     0.014 A 
HETATM   14  C   UNL     1     -41.977  60.697 -57.480  1.00  0.00     0.001 A 
HETATM   15  C   UNL     1     -41.212  61.334 -58.457  1.00  0.00     0.000 A 
HETATM   16  C   UNL     1     -41.451  61.075 -59.805  1.00  0.00     0.001 A 
HETATM   17  C   UNL     1     -42.460  60.185 -60.179  1.00  0.00     0.014 A 
ENDBRANCH   8  12
BRANCH  10  18
HETATM   18  C   UNL     1     -47.403  58.059 -61.137  1.00  0.00     0.058 A 
HETATM   19  C   UNL     1     -47.954  56.910 -61.725  1.00  0.00     0.031 A 
HETATM   20  C   UNL     1     -49.162  56.985 -62.422  1.00  0.00     0.002 A 
HETATM   21  C   UNL     1     -49.828  58.203 -62.536  1.00  0.00     0.000 A 
HETATM   22  C   UNL     1     -49.288  59.349 -61.953  1.00  0.00     0.002 A 
HETATM   23  C   UNL     1     -48.078  59.283 -61.254  1.00  0.00     0.031 A 
ENDBRANCH  10  18
ENDBRANCH   6   7
ENDBRANCH   2   5
BRANCH   1  24
HETATM   24  C   UNL     1     -41.702  54.426 -54.803  1.00  0.00     0.170 A 
HETATM   25  C   UNL     1     -41.723  53.764 -53.584  1.00  0.00     0.096 A 
HETATM   26  N   UNL     1     -40.543  53.024 -53.574  1.00  0.00    -0.215 N 
HETATM   27  N   UNL     1     -39.821  53.344 -54.680  1.00  0.00     0.012 NA
HETATM   28  N   UNL     1     -40.524  54.167 -55.439  1.00  0.00    -0.152 NA
BRANCH  25  29
HETATM   29  C   UNL     1     -42.683  53.867 -52.459  1.00  0.00     0.295 C 
BRANCH  29  30
HETATM   30  N   UNL     1     -42.759  55.221 -51.799  1.00  0.00    -0.073 N 
HETATM   31  C   UNL     1     -41.420  55.760 -51.377  1.00  0.00     0.269 C 
HETATM   32  H   UNL     1     -43.171  55.868 -52.487  1.00  0.00     0.279 HD
HETATM   33  C   UNL     1     -43.715  55.201 -50.636  1.00  0.00     0.269 C 
ENDBRANCH  29  30
ENDBRANCH  25  29
BRANCH  26  34
HETATM   34  C   UNL     1     -40.120  52.048 -52.642  1.00  0.00     0.225 A 
HETATM   35  N   UNL     1     -40.165  52.313 -51.333  1.00  0.00    -0.081 NA
HETATM   36  O   UNL     1     -39.700  51.133 -50.742  1.00  0.00    -0.103 OA
HETATM   37  N   UNL     1     -39.416  50.171 -51.700  1.00  0.00    -0.083 NA
HETATM   38  C   UNL     1     -39.677  50.735 -52.878  1.00  0.00     0.201 A 
BRANCH  38  39
HETATM   39  N   UNL     1     -39.528  50.127 -54.064  1.00  0.00    -0.379 N 
HETATM   40  H   UNL     1     -38.717  50.327 -54.643  1.00  0.00     0.158 HD
HETATM   41  H   UNL     1     -40.068  49.315 -54.358  1.00  0.00     0.158 HD
ENDBRANCH  38  39
ENDBRANCH  26  34
ENDBRANCH   1  24
TORSDOF 9
ENDMDL
MODEL 7
REMARK VINA RESULT:      -8.0      3.640     10.979
REMARK  9 active torsions:
REMARK  status: ('A' for Active; 'I' for Inactive)
REMARK    1  A    between atoms: N_2  and  C_4 
REMARK    2  A    between atoms: C_4  and  C_5 
REMARK    3  A    between atoms: N_6  and  C_7 
REMARK    4  A    between atoms: C_11  and  N_12 
REMARK    5  A    between atoms: C_15  and  C_16 
REMARK       I    between atoms: C_16  and  N_17 
REMARK    6  A    between atoms: N_17  and  N_18 
REMARK    7  A    between atoms: C_19  and  C_20 
REMARK    8  A    between atoms: C_21  and  C_22 
REMARK    9  A    between atoms: N_29  and  C_30 
ROOT
HETATM    1  C   UNL     1     -43.401  56.858 -54.221  1.00  0.00     0.293 C 
HETATM    2  N   UNL     1     -42.483  57.092 -55.228  1.00  0.00    -0.242 N 
HETATM    3  O   UNL     1     -44.500  57.394 -54.105  1.00  0.00    -0.264 OA
HETATM    4  H   UNL     1     -41.584  56.613 -55.222  1.00  0.00     0.192 HD
ENDROOT
BRANCH   2   5
HETATM    5  N   UNL     1     -42.774  58.002 -56.202  1.00  0.00    -0.183 NA
HETATM    6  C   UNL     1     -42.167  57.837 -57.334  1.00  0.00     0.154 C 
BRANCH   6   7
HETATM    7  C   UNL     1     -42.423  58.772 -58.401  1.00  0.00     0.032 A 
HETATM    8  C   UNL     1     -43.374  58.693 -59.454  1.00  0.00     0.101 A 
HETATM    9  N   UNL     1     -43.339  59.796 -60.215  1.00  0.00    -0.166 NA
HETATM   10  N   UNL     1     -42.347  60.566 -59.708  1.00  0.00    -0.244 N 
HETATM   11  C   UNL     1     -41.772  59.971 -58.610  1.00  0.00     0.134 A 
BRANCH   8  12
HETATM   12  C   UNL     1     -44.300  57.606 -59.772  1.00  0.00    -0.005 A 
HETATM   13  C   UNL     1     -43.820  56.415 -60.335  1.00  0.00     0.014 A 
HETATM   14  C   UNL     1     -44.695  55.370 -60.634  1.00  0.00     0.001 A 
HETATM   15  C   UNL     1     -46.057  55.502 -60.370  1.00  0.00     0.000 A 
HETATM   16  C   UNL     1     -46.544  56.674 -59.795  1.00  0.00     0.001 A 
HETATM   17  C   UNL     1     -45.670  57.720 -59.492  1.00  0.00     0.014 A 
ENDBRANCH   8  12
BRANCH  10  18
HETATM   18  C   UNL     1     -42.017  61.818 -60.300  1.00  0.00     0.058 A 
HETATM   19  C   UNL     1     -40.721  62.333 -60.144  1.00  0.00     0.031 A 
HETATM   20  C   UNL     1     -40.377  63.560 -60.715  1.00  0.00     0.002 A 
HETATM   21  C   UNL     1     -41.320  64.280 -61.445  1.00  0.00     0.000 A 
HETATM   22  C   UNL     1     -42.609  63.774 -61.606  1.00  0.00     0.002 A 
HETATM   23  C   UNL     1     -42.962  62.546 -61.036  1.00  0.00     0.031 A 
ENDBRANCH  10  18
ENDBRANCH   6   7
ENDBRANCH   2   5
BRANCH   1  24
HETATM   24  C   UNL     1     -42.956  55.886 -53.232  1.00  0.00     0.170 A 
HETATM   25  C   UNL     1     -42.101  56.117 -52.163  1.00  0.00     0.096 A 
HETATM   26  N   UNL     1     -42.062  54.901 -51.486  1.00  0.00    -0.215 N 
HETATM   27  N   UNL     1     -42.761  53.982 -52.202  1.00  0.00     0.012 NA
HETATM   28  N   UNL     1     -43.324  54.574 -53.241  1.00  0.00    -0.152 NA
BRANCH  25  29
HETATM   29  C   UNL     1     -41.294  57.315 -51.830  1.00  0.00     0.295 C 
BRANCH  29  30
HETATM   30  N   UNL     1     -41.883  58.214 -50.771  1.00  0.00    -0.073 N 
HETATM   31  C   UNL     1     -43.056  59.023 -51.254  1.00  0.00     0.269 C 
HETATM   32  H   UNL     1     -42.198  57.605 -50.003  1.00  0.00     0.279 HD
HETATM   33  C   UNL     1     -40.828  59.109 -50.176  1.00  0.00     0.269 C 
ENDBRANCH  29  30
ENDBRANCH  25  29
BRANCH  26  34
HETATM   34  C   UNL     1     -41.468  54.604 -50.236  1.00  0.00     0.225 A 
HETATM   35  N   UNL     1     -41.646  55.430 -49.201  1.00  0.00    -0.081 NA
HETATM   36  O   UNL     1     -40.944  54.811 -48.161  1.00  0.00    -0.103 OA
HETATM   37  N   UNL     1     -40.385  53.612 -48.578  1.00  0.00    -0.083 NA
HETATM   38  C   UNL     1     -40.711  53.481 -49.864  1.00  0.00     0.201 A 
BRANCH  38  39
HETATM   39  N   UNL     1     -40.356  52.444 -50.638  1.00  0.00    -0.379 N 
HETATM   40  H   UNL     1     -39.377  52.284 -50.859  1.00  0.00     0.158 HD
HETATM   41  H   UNL     1     -40.975  51.670 -50.869  1.00  0.00     0.158 HD
ENDBRANCH  38  39
ENDBRANCH  26  34
ENDBRANCH   1  24
TORSDOF 9
ENDMDL
MODEL 8
REMARK VINA RESULT:      -8.0      3.679     10.681
REMARK  9 active torsions:
REMARK  status: ('A' for Active; 'I' for Inactive)
REMARK    1  A    between atoms: N_2  and  C_4 
REMARK    2  A    between atoms: C_4  and  C_5 
REMARK    3  A    between atoms: N_6  and  C_7 
REMARK    4  A    between atoms: C_11  and  N_12 
REMARK    5  A    between atoms: C_15  and  C_16 
REMARK       I    between atoms: C_16  and  N_17 
REMARK    6  A    between atoms: N_17  and  N_18 
REMARK    7  A    between atoms: C_19  and  C_20 
REMARK    8  A    between atoms: C_21  and  C_22 
REMARK    9  A    between atoms: N_29  and  C_30 
ROOT
HETATM    1  C   UNL     1     -41.738  57.940 -53.759  1.00  0.00     0.293 C 
HETATM    2  N   UNL     1     -42.701  57.782 -54.739  1.00  0.00    -0.242 N 
HETATM    3  O   UNL     1     -40.827  58.762 -53.766  1.00  0.00    -0.264 OA
HETATM    4  H   UNL     1     -43.404  57.050 -54.652  1.00  0.00     0.192 HD
ENDROOT
BRANCH   2   5
HETATM    5  N   UNL     1     -42.673  58.584 -55.843  1.00  0.00    -0.183 NA
HETATM    6  C   UNL     1     -42.528  57.982 -56.980  1.00  0.00     0.154 C 
BRANCH   6   7
HETATM    7  C   UNL     1     -42.480  58.774 -58.183  1.00  0.00     0.032 A 
HETATM    8  C   UNL     1     -43.265  58.664 -59.363  1.00  0.00     0.101 A 
HETATM    9  N   UNL     1     -42.952  59.629 -60.238  1.00  0.00    -0.166 NA
HETATM   10  N   UNL     1     -41.942  60.331 -59.672  1.00  0.00    -0.244 N 
HETATM   11  C   UNL     1     -41.632  59.836 -58.428  1.00  0.00     0.134 A 
BRANCH   8  12
HETATM   12  C   UNL     1     -44.287  57.670 -59.692  1.00  0.00    -0.005 A 
HETATM   13  C   UNL     1     -45.628  57.904 -59.361  1.00  0.00     0.014 A 
HETATM   14  C   UNL     1     -46.610  56.964 -59.677  1.00  0.00     0.001 A 
HETATM   15  C   UNL     1     -46.262  55.783 -60.332  1.00  0.00     0.000 A 
HETATM   16  C   UNL     1     -44.934  55.547 -60.681  1.00  0.00     0.001 A 
HETATM   17  C   UNL     1     -43.951  56.487 -60.368  1.00  0.00     0.014 A 
ENDBRANCH   8  12
BRANCH  10  18
HETATM   18  C   UNL     1     -41.343  61.429 -60.353  1.00  0.00     0.058 A 
HETATM   19  C   UNL     1     -40.490  62.293 -59.649  1.00  0.00     0.031 A 
HETATM   20  C   UNL     1     -39.895  63.378 -60.297  1.00  0.00     0.002 A 
HETATM   21  C   UNL     1     -40.144  63.606 -61.649  1.00  0.00     0.000 A 
HETATM   22  C   UNL     1     -40.988  62.752 -62.355  1.00  0.00     0.002 A 
HETATM   23  C   UNL     1     -41.590  61.664 -61.713  1.00  0.00     0.031 A 
ENDBRANCH  10  18
ENDBRANCH   6   7
ENDBRANCH   2   5
BRANCH   1  24
HETATM   24  C   UNL     1     -41.867  57.004 -52.651  1.00  0.00     0.170 A 
HETATM   25  C   UNL     1     -41.307  55.737 -52.561  1.00  0.00     0.096 A 
HETATM   26  N   UNL     1     -41.657  55.296 -51.288  1.00  0.00    -0.215 N 
HETATM   27  N   UNL     1     -42.484  56.214 -50.722  1.00  0.00     0.012 NA
HETATM   28  N   UNL     1     -42.594  57.258 -51.526  1.00  0.00    -0.152 NA
BRANCH  25  29
HETATM   29  C   UNL     1     -40.594  54.936 -53.585  1.00  0.00     0.295 C 
BRANCH  29  30
HETATM   30  N   UNL     1     -41.363  53.760 -54.132  1.00  0.00    -0.073 N 
HETATM   31  C   UNL     1     -40.485  52.686 -54.715  1.00  0.00     0.269 C 
HETATM   32  H   UNL     1     -41.895  53.357 -53.347  1.00  0.00     0.279 HD
HETATM   33  C   UNL     1     -42.392  54.208 -55.135  1.00  0.00     0.269 C 
ENDBRANCH  29  30
ENDBRANCH  25  29
BRANCH  26  34
HETATM   34  C   UNL     1     -41.226  54.134 -50.605  1.00  0.00     0.225 A 
HETATM   35  N   UNL     1     -41.055  52.992 -51.277  1.00  0.00    -0.081 NA
HETATM   36  O   UNL     1     -40.614  52.096 -50.297  1.00  0.00    -0.103 OA
HETATM   37  N   UNL     1     -40.497  52.720 -49.064  1.00  0.00    -0.083 NA
HETATM   38  C   UNL     1     -40.873  53.985 -49.253  1.00  0.00     0.201 A 
BRANCH  38  39
HETATM   39  N   UNL     1     -40.902  54.923 -48.295  1.00  0.00    -0.379 N 
HETATM   40  H   UNL     1     -41.459  55.764 -48.420  1.00  0.00     0.158 HD
HETATM   41  H   UNL     1     -40.562  54.776 -47.346  1.00  0.00     0.158 HD
ENDBRANCH  38  39
ENDBRANCH  26  34
ENDBRANCH   1  24
TORSDOF 9
ENDMDL
MODEL 9
REMARK VINA RESULT:      -7.8      3.822     10.431
REMARK  9 active torsions:
REMARK  status: ('A' for Active; 'I' for Inactive)
REMARK    1  A    between atoms: N_2  and  C_4 
REMARK    2  A    between atoms: C_4  and  C_5 
REMARK    3  A    between atoms: N_6  and  C_7 
REMARK    4  A    between atoms: C_11  and  N_12 
REMARK    5  A    between atoms: C_15  and  C_16 
REMARK       I    between atoms: C_16  and  N_17 
REMARK    6  A    between atoms: N_17  and  N_18 
REMARK    7  A    between atoms: C_19  and  C_20 
REMARK    8  A    between atoms: C_21  and  C_22 
REMARK    9  A    between atoms: N_29  and  C_30 
ROOT
HETATM    1  C   UNL     1     -44.443  58.065 -54.879  1.00  0.00     0.293 C 
HETATM    2  N   UNL     1     -43.346  58.758 -55.357  1.00  0.00    -0.242 N 
HETATM    3  O   UNL     1     -45.490  57.859 -55.486  1.00  0.00    -0.264 OA
HETATM    4  H   UNL     1     -42.530  58.897 -54.763  1.00  0.00     0.192 HD
ENDROOT
BRANCH   2   5
HETATM    5  N   UNL     1     -43.386  59.294 -56.611  1.00  0.00    -0.183 NA
HETATM    6  C   UNL     1     -42.572  58.778 -57.475  1.00  0.00     0.154 C 
BRANCH   6   7
HETATM    7  C   UNL     1     -42.558  59.307 -58.816  1.00  0.00     0.032 A 
HETATM    8  C   UNL     1     -43.303  58.891 -59.953  1.00  0.00     0.101 A 
HETATM    9  N   UNL     1     -43.047  59.678 -61.007  1.00  0.00    -0.166 NA
HETATM   10  N   UNL     1     -42.110  60.564 -60.592  1.00  0.00    -0.244 N 
HETATM   11  C   UNL     1     -41.792  60.363 -59.270  1.00  0.00     0.134 A 
BRANCH   8  12
HETATM   12  C   UNL     1     -44.232  57.768 -60.077  1.00  0.00    -0.005 A 
HETATM   13  C   UNL     1     -45.611  57.979 -59.945  1.00  0.00     0.014 A 
HETATM   14  C   UNL     1     -46.506  56.915 -60.069  1.00  0.00     0.001 A 
HETATM   15  C   UNL     1     -46.032  55.630 -60.331  1.00  0.00     0.000 A 
HETATM   16  C   UNL     1     -44.664  55.411 -60.481  1.00  0.00     0.001 A 
HETATM   17  C   UNL     1     -43.767  56.475 -60.360  1.00  0.00     0.014 A 
ENDBRANCH   8  12
BRANCH  10  18
HETATM   18  C   UNL     1     -41.586  61.544 -61.481  1.00  0.00     0.058 A 
HETATM   19  C   UNL     1     -42.119  61.656 -62.774  1.00  0.00     0.031 A 
HETATM   20  C   UNL     1     -41.618  62.610 -63.663  1.00  0.00     0.002 A 
HETATM   21  C   UNL     1     -40.584  63.457 -63.269  1.00  0.00     0.000 A 
HETATM   22  C   UNL     1     -40.050  63.353 -61.986  1.00  0.00     0.002 A 
HETATM   23  C   UNL     1     -40.546  62.400 -61.090  1.00  0.00     0.031 A 
ENDBRANCH  10  18
ENDBRANCH   6   7
ENDBRANCH   2   5
BRANCH   1  24
HETATM   24  C   UNL     1     -44.280  57.571 -53.519  1.00  0.00     0.170 A 
HETATM   25  C   UNL     1     -43.340  56.652 -53.073  1.00  0.00     0.096 A 
HETATM   26  N   UNL     1     -43.551  56.584 -51.698  1.00  0.00    -0.215 N 
HETATM   27  N   UNL     1     -44.642  57.332 -51.388  1.00  0.00     0.012 NA
HETATM   28  N   UNL     1     -45.070  57.951 -52.475  1.00  0.00    -0.152 NA
BRANCH  25  29
HETATM   29  C   UNL     1     -42.386  55.816 -53.840  1.00  0.00     0.295 C 
BRANCH  29  30
HETATM   30  N   UNL     1     -42.761  54.361 -53.965  1.00  0.00    -0.073 N 
HETATM   31  C   UNL     1     -41.675  53.420 -53.518  1.00  0.00     0.269 C 
HETATM   32  H   UNL     1     -43.588  54.212 -53.370  1.00  0.00     0.279 HD
HETATM   33  C   UNL     1     -43.202  54.036 -55.367  1.00  0.00     0.269 C 
ENDBRANCH  29  30
ENDBRANCH  25  29
BRANCH  26  34
HETATM   34  C   UNL     1     -42.777  55.920 -50.717  1.00  0.00     0.225 A 
HETATM   35  N   UNL     1     -43.047  54.649 -50.403  1.00  0.00    -0.081 NA
HETATM   36  O   UNL     1     -42.084  54.337 -49.438  1.00  0.00    -0.103 OA
HETATM   37  N   UNL     1     -41.235  55.409 -49.211  1.00  0.00    -0.083 NA
HETATM   38  C   UNL     1     -41.661  56.391 -50.006  1.00  0.00     0.201 A 
BRANCH  38  39
HETATM   39  N   UNL     1     -41.099  57.607 -50.082  1.00  0.00    -0.379 N 
HETATM   40  H   UNL     1     -41.683  58.438 -50.117  1.00  0.00     0.158 HD
HETATM   41  H   UNL     1     -40.113  57.789 -49.907  1.00  0.00     0.158 HD
ENDBRANCH  38  39
ENDBRANCH  26  34
ENDBRANCH   1  24
TORSDOF 9
ENDMDL
MODEL 10
REMARK VINA RESULT:      -7.6      4.150     10.886
REMARK  9 active torsions:
REMARK  status: ('A' for Active; 'I' for Inactive)
REMARK    1  A    between atoms: N_2  and  C_4 
REMARK    2  A    between atoms: C_4  and  C_5 
REMARK    3  A    between atoms: N_6  and  C_7 
REMARK    4  A    between atoms: C_11  and  N_12 
REMARK    5  A    between atoms: C_15  and  C_16 
REMARK       I    between atoms: C_16  and  N_17 
REMARK    6  A    between atoms: N_17  and  N_18 
REMARK    7  A    between atoms: C_19  and  C_20 
REMARK    8  A    between atoms: C_21  and  C_22 
REMARK    9  A    between atoms: N_29  and  C_30 
ROOT
HETATM    1  C   UNL     1     -41.730  55.777 -53.574  1.00  0.00     0.293 C 
HETATM    2  N   UNL     1     -42.980  55.745 -54.165  1.00  0.00    -0.242 N 
HETATM    3  O   UNL     1     -41.226  56.737 -52.999  1.00  0.00    -0.264 OA
HETATM    4  H   UNL     1     -43.300  54.904 -54.642  1.00  0.00     0.192 HD
ENDROOT
BRANCH   2   5
HETATM    5  N   UNL     1     -43.760  56.865 -54.144  1.00  0.00    -0.183 NA
HETATM    6  C   UNL     1     -43.749  57.586 -55.219  1.00  0.00     0.154 C 
BRANCH   6   7
HETATM    7  C   UNL     1     -44.545  58.788 -55.256  1.00  0.00     0.032 A 
HETATM    8  C   UNL     1     -45.362  59.291 -56.304  1.00  0.00     0.101 A 
HETATM    9  N   UNL     1     -45.987  60.415 -55.927  1.00  0.00    -0.166 NA
HETATM   10  N   UNL     1     -45.550  60.680 -54.672  1.00  0.00    -0.244 N 
HETATM   11  C   UNL     1     -44.674  59.713 -54.239  1.00  0.00     0.134 A 
BRANCH   8  12
HETATM   12  C   UNL     1     -45.557  58.754 -57.651  1.00  0.00    -0.005 A 
HETATM   13  C   UNL     1     -46.734  58.061 -57.968  1.00  0.00     0.014 A 
HETATM   14  C   UNL     1     -46.931  57.551 -59.252  1.00  0.00     0.001 A 
HETATM   15  C   UNL     1     -45.957  57.732 -60.233  1.00  0.00     0.000 A 
HETATM   16  C   UNL     1     -44.790  58.433 -59.934  1.00  0.00     0.001 A 
HETATM   17  C   UNL     1     -44.592  58.947 -58.651  1.00  0.00     0.014 A 
ENDBRANCH   8  12
BRANCH  10  18
HETATM   18  C   UNL     1     -46.001  61.833 -53.970  1.00  0.00     0.058 A 
HETATM   19  C   UNL     1     -46.953  61.689 -52.949  1.00  0.00     0.031 A 
HETATM   20  C   UNL     1     -47.410  62.807 -52.248  1.00  0.00     0.002 A 
HETATM   21  C   UNL     1     -46.922  64.074 -52.560  1.00  0.00     0.000 A 
HETATM   22  C   UNL     1     -45.975  64.226 -53.571  1.00  0.00     0.002 A 
HETATM   23  C   UNL     1     -45.512  63.111 -54.278  1.00  0.00     0.031 A 
ENDBRANCH  10  18
ENDBRANCH   6   7
ENDBRANCH   2   5
BRANCH   1  24
HETATM   24  C   UNL     1     -40.992  54.528 -53.692  1.00  0.00     0.170 A 
HETATM   25  C   UNL     1     -40.831  53.559 -52.712  1.00  0.00     0.096 A 
HETATM   26  N   UNL     1     -40.122  52.542 -53.346  1.00  0.00    -0.215 N 
HETATM   27  N   UNL     1     -39.784  52.961 -54.594  1.00  0.00     0.012 NA
HETATM   28  N   UNL     1     -40.327  54.145 -54.819  1.00  0.00    -0.152 NA
BRANCH  25  29
HETATM   29  C   UNL     1     -41.198  53.587 -51.276  1.00  0.00     0.295 C 
BRANCH  29  30
HETATM   30  N   UNL     1     -40.580  54.705 -50.474  1.00  0.00    -0.073 N 
HETATM   31  C   UNL     1     -39.534  54.238 -49.498  1.00  0.00     0.269 C 
HETATM   32  H   UNL     1     -40.137  55.347 -51.147  1.00  0.00     0.279 HD
HETATM   33  C   UNL     1     -41.638  55.515 -49.773  1.00  0.00     0.269 C 
ENDBRANCH  29  30
ENDBRANCH  25  29
BRANCH  26  34
HETATM   34  C   UNL     1     -39.815  51.247 -52.866  1.00  0.00     0.225 A 
HETATM   35  N   UNL     1     -39.492  51.072 -51.581  1.00  0.00    -0.081 NA
HETATM   36  O   UNL     1     -39.282  49.693 -51.480  1.00  0.00    -0.103 OA
HETATM   37  N   UNL     1     -39.511  49.060 -52.692  1.00  0.00    -0.083 NA
HETATM   38  C   UNL     1     -39.845  50.021 -53.552  1.00  0.00     0.201 A 
BRANCH  38  39
HETATM   39  N   UNL     1     -40.146  49.817 -54.844  1.00  0.00    -0.379 N 
HETATM   40  H   UNL     1     -40.135  50.594 -55.500  1.00  0.00     0.158 HD
HETATM   41  H   UNL     1     -40.197  48.897 -55.276  1.00  0.00     0.158 HD
ENDBRANCH  38  39
ENDBRANCH  26  34
ENDBRANCH   1  24
TORSDOF 9
ENDMDL
