MODEL 1
REMARK VINA RESULT:      -8.0      0.000      0.000
REMARK  5 active torsions:
REMARK  status: ('A' for Active; 'I' for Inactive)
REMARK    1  A    between atoms: C_8  and  C_9 
REMARK    2  A    between atoms: N_10  and  N_11 
REMARK       I    between atoms: N_11  and  C_12 
REMARK    3  A    between atoms: C_12  and  C_13 
REMARK    4  A    between atoms: C_13  and  N_14 
REMARK    5  A    between atoms: N_14  and  C_15 
ROOT
HETATM    1  N   UNL     1     -40.809  55.177 -50.526  1.00  0.00    -0.246 N 
HETATM    2  C   UNL     1     -40.921  54.241 -49.487  1.00  0.00     0.250 C 
HETATM    3  O   UNL     1     -41.080  54.517 -48.299  1.00  0.00    -0.270 OA
HETATM    4  H   UNL     1     -40.153  54.939 -51.263  1.00  0.00     0.192 HD
ENDROOT
BRANCH   1   5
HETATM    5  N   UNL     1     -40.869  56.522 -50.265  1.00  0.00    -0.184 NA
HETATM    6  C   UNL     1     -41.772  57.233 -50.882  1.00  0.00     0.152 C 
BRANCH   6   7
HETATM    7  C   UNL     1     -42.590  56.816 -52.008  1.00  0.00     0.011 A 
HETATM    8  C   UNL     1     -42.207  56.277 -53.282  1.00  0.00     0.004 A 
HETATM    9  C   UNL     1     -40.974  56.000 -53.913  1.00  0.00     0.014 A 
HETATM   10  C   UNL     1     -43.380  56.005 -53.989  1.00  0.00     0.043 A 
HETATM   11  C   UNL     1     -40.958  55.427 -55.190  1.00  0.00     0.001 A 
HETATM   12  C   UNL     1     -42.148  55.140 -55.852  1.00  0.00     0.002 A 
HETATM   13  C   UNL     1     -43.384  55.432 -55.266  1.00  0.00     0.030 A 
HETATM   14  N   UNL     1     -44.432  56.403 -53.198  1.00  0.00    -0.364 N 
HETATM   15  H   UNL     1     -45.406  56.321 -53.455  1.00  0.00     0.165 HD
HETATM   16  C   UNL     1     -43.968  56.931 -52.024  1.00  0.00     0.102 A 
ENDBRANCH   6   7
ENDBRANCH   1   5
BRANCH   2  17
HETATM   17  C   UNL     1     -40.811  52.802 -50.014  1.00  0.00     0.197 C 
BRANCH  17  18
HETATM   18  N   UNL     1     -39.618  52.623 -50.849  1.00  0.00    -0.283 NA
HETATM   19  H   UNL     1     -39.108  53.501 -50.980  1.00  0.00     0.128 HD
BRANCH  18  20
HETATM   20  C   UNL     1     -39.761  51.896 -52.042  1.00  0.00     0.030 A 
HETATM   21  C   UNL     1     -39.603  50.496 -52.064  1.00  0.00     0.055 A 
HETATM   22 CL   UNL     1     -39.130  49.637 -50.637  1.00  0.00    -0.082 Cl
HETATM   23  C   UNL     1     -39.790  49.761 -53.240  1.00  0.00     0.026 A 
HETATM   24  C   UNL     1     -40.163  50.412 -54.414  1.00  0.00     0.002 A 
HETATM   25  C   UNL     1     -40.356  51.790 -54.408  1.00  0.00     0.002 A 
HETATM   26  C   UNL     1     -40.164  52.522 -53.232  1.00  0.00     0.025 A 
ENDBRANCH  18  20
ENDBRANCH  17  18
ENDBRANCH   2  17
TORSDOF 5
ENDMDL
MODEL 2
REMARK VINA RESULT:      -8.0      3.377      4.777
REMARK  5 active torsions:
REMARK  status: ('A' for Active; 'I' for Inactive)
REMARK    1  A    between atoms: C_8  and  C_9 
REMARK    2  A    between atoms: N_10  and  N_11 
REMARK       I    between atoms: N_11  and  C_12 
REMARK    3  A    between atoms: C_12  and  C_13 
REMARK    4  A    between atoms: C_13  and  N_14 
REMARK    5  A    between atoms: N_14  and  C_15 
ROOT
HETATM    1  N   UNL     1     -41.395  59.100 -53.043  1.00  0.00    -0.246 N 
HETATM    2  C   UNL     1     -40.182  58.959 -52.353  1.00  0.00     0.250 C 
HETATM    3  O   UNL     1     -39.068  59.179 -52.826  1.00  0.00    -0.270 OA
HETATM    4  H   UNL     1     -42.106  58.409 -52.829  1.00  0.00     0.192 HD
ENDROOT
BRANCH   1   5
HETATM    5  N   UNL     1     -41.411  59.506 -54.354  1.00  0.00    -0.184 NA
HETATM    6  C   UNL     1     -42.078  58.790 -55.216  1.00  0.00     0.152 C 
BRANCH   6   7
HETATM    7  C   UNL     1     -42.627  57.461 -55.006  1.00  0.00     0.011 A 
HETATM    8  C   UNL     1     -41.962  56.200 -54.831  1.00  0.00     0.004 A 
HETATM    9  C   UNL     1     -40.614  55.780 -54.835  1.00  0.00     0.014 A 
HETATM   10  C   UNL     1     -42.950  55.234 -54.625  1.00  0.00     0.043 A 
HETATM   11  C   UNL     1     -40.302  54.437 -54.592  1.00  0.00     0.001 A 
HETATM   12  C   UNL     1     -41.311  53.507 -54.360  1.00  0.00     0.002 A 
HETATM   13  C   UNL     1     -42.656  53.887 -54.380  1.00  0.00     0.030 A 
HETATM   14  N   UNL     1     -44.165  55.870 -54.716  1.00  0.00    -0.364 N 
HETATM   15  H   UNL     1     -45.060  55.414 -54.604  1.00  0.00     0.165 HD
HETATM   16  C   UNL     1     -43.985  57.199 -54.987  1.00  0.00     0.102 A 
ENDBRANCH   6   7
ENDBRANCH   1   5
BRANCH   2  17
HETATM   17  C   UNL     1     -40.410  58.482 -50.911  1.00  0.00     0.197 C 
BRANCH  17  18
HETATM   18  N   UNL     1     -41.785  58.013 -50.709  1.00  0.00    -0.283 NA
HETATM   19  H   UNL     1     -42.235  58.480 -49.917  1.00  0.00     0.128 HD
BRANCH  18  20
HETATM   20  C   UNL     1     -42.009  56.626 -50.719  1.00  0.00     0.030 A 
HETATM   21  C   UNL     1     -43.299  56.100 -50.928  1.00  0.00     0.055 A 
HETATM   22 CL   UNL     1     -44.668  57.148 -51.081  1.00  0.00    -0.082 Cl
HETATM   23  C   UNL     1     -43.520  54.719 -50.985  1.00  0.00     0.026 A 
HETATM   24  C   UNL     1     -42.449  53.837 -50.859  1.00  0.00     0.002 A 
HETATM   25  C   UNL     1     -41.161  54.336 -50.684  1.00  0.00     0.002 A 
HETATM   26  C   UNL     1     -40.944  55.716 -50.622  1.00  0.00     0.025 A 
ENDBRANCH  18  20
ENDBRANCH  17  18
ENDBRANCH   2  17
TORSDOF 5
ENDMDL
MODEL 3
REMARK VINA RESULT:      -7.9      1.671      2.146
REMARK  5 active torsions:
REMARK  status: ('A' for Active; 'I' for Inactive)
REMARK    1  A    between atoms: C_8  and  C_9 
REMARK    2  A    between atoms: N_10  and  N_11 
REMARK       I    between atoms: N_11  and  C_12 
REMARK    3  A    between atoms: C_12  and  C_13 
REMARK    4  A    between atoms: C_13  and  N_14 
REMARK    5  A    between atoms: N_14  and  C_15 
ROOT
HETATM    1  N   UNL     1     -42.017  54.515 -50.540  1.00  0.00    -0.246 N 
HETATM    2  C   UNL     1     -41.086  54.188 -49.544  1.00  0.00     0.250 C 
HETATM    3  O   UNL     1     -41.219  54.425 -48.344  1.00  0.00    -0.270 OA
HETATM    4  H   UNL     1     -41.625  54.813 -51.427  1.00  0.00     0.192 HD
ENDROOT
BRANCH   1   5
HETATM    5  N   UNL     1     -43.188  55.155 -50.220  1.00  0.00    -0.184 NA
HETATM    6  C   UNL     1     -43.735  55.929 -51.116  1.00  0.00     0.152 C 
BRANCH   6   7
HETATM    7  C   UNL     1     -43.131  56.392 -52.354  1.00  0.00     0.011 A 
HETATM    8  C   UNL     1     -43.066  55.765 -53.644  1.00  0.00     0.004 A 
HETATM    9  C   UNL     1     -43.494  54.526 -54.169  1.00  0.00     0.014 A 
HETATM   10  C   UNL     1     -42.409  56.649 -54.504  1.00  0.00     0.043 A 
HETATM   11  C   UNL     1     -43.294  54.236 -55.524  1.00  0.00     0.001 A 
HETATM   12  C   UNL     1     -42.662  55.154 -56.358  1.00  0.00     0.002 A 
HETATM   13  C   UNL     1     -42.200  56.376 -55.861  1.00  0.00     0.030 A 
HETATM   14  N   UNL     1     -42.049  57.747 -53.759  1.00  0.00    -0.364 N 
HETATM   15  H   UNL     1     -41.560  58.552 -54.125  1.00  0.00     0.165 HD
HETATM   16  C   UNL     1     -42.439  57.585 -52.458  1.00  0.00     0.102 A 
ENDBRANCH   6   7
ENDBRANCH   1   5
BRANCH   2  17
HETATM   17  C   UNL     1     -39.852  53.492 -50.136  1.00  0.00     0.197 C 
BRANCH  17  18
HETATM   18  N   UNL     1     -39.944  53.380 -51.596  1.00  0.00    -0.283 NA
HETATM   19  H   UNL     1     -40.716  53.936 -51.974  1.00  0.00     0.128 HD
BRANCH  18  20
HETATM   20  C   UNL     1     -39.879  52.094 -52.157  1.00  0.00     0.030 A 
HETATM   21  C   UNL     1     -39.896  51.908 -53.554  1.00  0.00     0.055 A 
HETATM   22 CL   UNL     1     -40.098  53.255 -54.622  1.00  0.00    -0.082 Cl
HETATM   23  C   UNL     1     -39.784  50.633 -54.119  1.00  0.00     0.026 A 
HETATM   24  C   UNL     1     -39.628  49.519 -53.297  1.00  0.00     0.002 A 
HETATM   25  C   UNL     1     -39.577  49.682 -51.916  1.00  0.00     0.002 A 
HETATM   26  C   UNL     1     -39.693  50.957 -51.354  1.00  0.00     0.025 A 
ENDBRANCH  18  20
ENDBRANCH  17  18
ENDBRANCH   2  17
TORSDOF 5
ENDMDL
MODEL 4
REMARK VINA RESULT:      -7.6      2.430      4.017
REMARK  5 active torsions:
REMARK  status: ('A' for Active; 'I' for Inactive)
REMARK    1  A    between atoms: C_8  and  C_9 
REMARK    2  A    between atoms: N_10  and  N_11 
REMARK       I    between atoms: N_11  and  C_12 
REMARK    3  A    between atoms: C_12  and  C_13 
REMARK    4  A    between atoms: C_13  and  N_14 
REMARK    5  A    between atoms: N_14  and  C_15 
ROOT
HETATM    1  N   UNL     1     -41.349  56.045 -55.345  1.00  0.00    -0.246 N 
HETATM    2  C   UNL     1     -41.733  54.698 -55.413  1.00  0.00     0.250 C 
HETATM    3  O   UNL     1     -42.884  54.297 -55.577  1.00  0.00    -0.270 OA
HETATM    4  H   UNL     1     -40.609  56.259 -54.684  1.00  0.00     0.192 HD
ENDROOT
BRANCH   1   5
HETATM    5  N   UNL     1     -42.282  57.045 -55.458  1.00  0.00    -0.184 NA
HETATM    6  C   UNL     1     -42.504  57.805 -54.421  1.00  0.00     0.152 C 
BRANCH   6   7
HETATM    7  C   UNL     1     -42.048  57.577 -53.060  1.00  0.00     0.011 A 
HETATM    8  C   UNL     1     -42.347  56.508 -52.149  1.00  0.00     0.004 A 
HETATM    9  C   UNL     1     -43.175  55.365 -52.197  1.00  0.00     0.014 A 
HETATM   10  C   UNL     1     -41.620  56.742 -50.980  1.00  0.00     0.043 A 
HETATM   11  C   UNL     1     -43.211  54.484 -51.110  1.00  0.00     0.001 A 
HETATM   12  C   UNL     1     -42.449  54.732 -49.973  1.00  0.00     0.002 A 
HETATM   13  C   UNL     1     -41.643  55.871 -49.883  1.00  0.00     0.030 A 
HETATM   14  N   UNL     1     -40.942  57.925 -51.153  1.00  0.00    -0.364 N 
HETATM   15  H   UNL     1     -40.329  58.340 -50.465  1.00  0.00     0.165 HD
HETATM   16  C   UNL     1     -41.224  58.457 -52.381  1.00  0.00     0.102 A 
ENDBRANCH   6   7
ENDBRANCH   1   5
BRANCH   2  17
HETATM   17  C   UNL     1     -40.527  53.762 -55.249  1.00  0.00     0.197 C 
BRANCH  17  18
HETATM   18  N   UNL     1     -40.232  53.506 -53.835  1.00  0.00    -0.283 NA
HETATM   19  H   UNL     1     -39.534  54.157 -53.466  1.00  0.00     0.128 HD
BRANCH  18  20
HETATM   20  C   UNL     1     -39.990  52.177 -53.449  1.00  0.00     0.030 A 
HETATM   21  C   UNL     1     -39.696  51.851 -52.110  1.00  0.00     0.055 A 
HETATM   22 CL   UNL     1     -39.526  53.091 -50.915  1.00  0.00    -0.082 Cl
HETATM   23  C   UNL     1     -39.500  50.524 -51.712  1.00  0.00     0.026 A 
HETATM   24  C   UNL     1     -39.618  49.493 -52.642  1.00  0.00     0.002 A 
HETATM   25  C   UNL     1     -39.939  49.790 -53.963  1.00  0.00     0.002 A 
HETATM   26  C   UNL     1     -40.130  51.118 -54.359  1.00  0.00     0.025 A 
ENDBRANCH  18  20
ENDBRANCH  17  18
ENDBRANCH   2  17
TORSDOF 5
ENDMDL
MODEL 5
REMARK VINA RESULT:      -7.4      2.733      4.445
REMARK  5 active torsions:
REMARK  status: ('A' for Active; 'I' for Inactive)
REMARK    1  A    between atoms: C_8  and  C_9 
REMARK    2  A    between atoms: N_10  and  N_11 
REMARK       I    between atoms: N_11  and  C_12 
REMARK    3  A    between atoms: C_12  and  C_13 
REMARK    4  A    between atoms: C_13  and  N_14 
REMARK    5  A    between atoms: N_14  and  C_15 
ROOT
HETATM    1  N   UNL     1     -44.328  55.628 -54.598  1.00  0.00    -0.246 N 
HETATM    2  C   UNL     1     -43.254  55.302 -55.438  1.00  0.00     0.250 C 
HETATM    3  O   UNL     1     -42.829  56.008 -56.352  1.00  0.00    -0.270 OA
HETATM    4  H   UNL     1     -44.926  54.854 -54.329  1.00  0.00     0.192 HD
ENDROOT
BRANCH   1   5
HETATM    5  N   UNL     1     -45.006  56.810 -54.756  1.00  0.00    -0.184 NA
HETATM    6  C   UNL     1     -44.705  57.807 -53.971  1.00  0.00     0.152 C 
BRANCH   6   7
HETATM    7  C   UNL     1     -43.886  57.756 -52.771  1.00  0.00     0.011 A 
HETATM    8  C   UNL     1     -42.509  58.110 -52.574  1.00  0.00     0.004 A 
HETATM    9  C   UNL     1     -41.472  58.573 -53.414  1.00  0.00     0.014 A 
HETATM   10  C   UNL     1     -42.217  57.912 -51.222  1.00  0.00     0.043 A 
HETATM   11  C   UNL     1     -40.213  58.861 -52.874  1.00  0.00     0.001 A 
HETATM   12  C   UNL     1     -39.968  58.681 -51.516  1.00  0.00     0.002 A 
HETATM   13  C   UNL     1     -40.965  58.195 -50.665  1.00  0.00     0.030 A 
HETATM   14  N   UNL     1     -43.355  57.415 -50.631  1.00  0.00    -0.364 N 
HETATM   15  H   UNL     1     -43.435  57.181 -49.651  1.00  0.00     0.165 HD
HETATM   16  C   UNL     1     -44.350  57.277 -51.559  1.00  0.00     0.102 A 
ENDBRANCH   6   7
ENDBRANCH   1   5
BRANCH   2  17
HETATM   17  C   UNL     1     -42.660  53.931 -55.084  1.00  0.00     0.197 C 
BRANCH  17  18
HETATM   18  N   UNL     1     -41.247  54.036 -54.706  1.00  0.00    -0.283 NA
HETATM   19  H   UNL     1     -40.634  53.575 -55.385  1.00  0.00     0.128 HD
BRANCH  18  20
HETATM   20  C   UNL     1     -40.903  53.738 -53.378  1.00  0.00     0.030 A 
HETATM   21  C   UNL     1     -40.282  52.518 -53.043  1.00  0.00     0.055 A 
HETATM   22 CL   UNL     1     -40.014  51.303 -54.247  1.00  0.00    -0.082 Cl
HETATM   23  C   UNL     1     -39.895  52.235 -51.729  1.00  0.00     0.026 A 
HETATM   24  C   UNL     1     -40.098  53.181 -50.725  1.00  0.00     0.002 A 
HETATM   25  C   UNL     1     -40.680  54.405 -51.039  1.00  0.00     0.002 A 
HETATM   26  C   UNL     1     -41.070  54.683 -52.353  1.00  0.00     0.025 A 
ENDBRANCH  18  20
ENDBRANCH  17  18
ENDBRANCH   2  17
TORSDOF 5
ENDMDL
MODEL 6
REMARK VINA RESULT:      -7.4      2.978      4.477
REMARK  5 active torsions:
REMARK  status: ('A' for Active; 'I' for Inactive)
REMARK    1  A    between atoms: C_8  and  C_9 
REMARK    2  A    between atoms: N_10  and  N_11 
REMARK       I    between atoms: N_11  and  C_12 
REMARK    3  A    between atoms: C_12  and  C_13 
REMARK    4  A    between atoms: C_13  and  N_14 
REMARK    5  A    between atoms: N_14  and  C_15 
ROOT
HETATM    1  N   UNL     1     -44.515  56.014 -54.536  1.00  0.00    -0.246 N 
HETATM    2  C   UNL     1     -43.375  55.636 -55.260  1.00  0.00     0.250 C 
HETATM    3  O   UNL     1     -42.875  56.279 -56.182  1.00  0.00    -0.270 OA
HETATM    4  H   UNL     1     -45.135  55.257 -54.266  1.00  0.00     0.192 HD
ENDROOT
BRANCH   1   5
HETATM    5  N   UNL     1     -45.176  57.179 -54.831  1.00  0.00    -0.184 NA
HETATM    6  C   UNL     1     -44.893  58.245 -54.134  1.00  0.00     0.152 C 
BRANCH   6   7
HETATM    7  C   UNL     1     -44.117  58.303 -52.906  1.00  0.00     0.011 A 
HETATM    8  C   UNL     1     -42.708  58.492 -52.709  1.00  0.00     0.004 A 
HETATM    9  C   UNL     1     -41.596  58.640 -53.567  1.00  0.00     0.014 A 
HETATM   10  C   UNL     1     -42.479  58.509 -51.332  1.00  0.00     0.043 A 
HETATM   11  C   UNL     1     -40.321  58.844 -53.027  1.00  0.00     0.001 A 
HETATM   12  C   UNL     1     -40.135  58.887 -51.649  1.00  0.00     0.002 A 
HETATM   13  C   UNL     1     -41.211  58.713 -50.774  1.00  0.00     0.030 A 
HETATM   14  N   UNL     1     -43.690  58.296 -50.716  1.00  0.00    -0.364 N 
HETATM   15  H   UNL     1     -43.825  58.262 -49.716  1.00  0.00     0.165 HD
HETATM   16  C   UNL     1     -44.673  58.128 -51.652  1.00  0.00     0.102 A 
ENDBRANCH   6   7
ENDBRANCH   1   5
BRANCH   2  17
HETATM   17  C   UNL     1     -42.815  54.294 -54.765  1.00  0.00     0.197 C 
BRANCH  17  18
HETATM   18  N   UNL     1     -41.348  54.295 -54.749  1.00  0.00    -0.283 NA
HETATM   19  H   UNL     1     -40.955  54.271 -55.694  1.00  0.00     0.128 HD
BRANCH  18  20
HETATM   20  C   UNL     1     -40.705  53.405 -53.873  1.00  0.00     0.030 A 
HETATM   21  C   UNL     1     -40.571  53.703 -52.502  1.00  0.00     0.055 A 
HETATM   22 CL   UNL     1     -41.108  55.223 -51.871  1.00  0.00    -0.082 Cl
HETATM   23  C   UNL     1     -39.973  52.800 -51.617  1.00  0.00     0.026 A 
HETATM   24  C   UNL     1     -39.519  51.567 -52.082  1.00  0.00     0.002 A 
HETATM   25  C   UNL     1     -39.670  51.239 -53.426  1.00  0.00     0.002 A 
HETATM   26  C   UNL     1     -40.264  52.146 -54.309  1.00  0.00     0.025 A 
ENDBRANCH  18  20
ENDBRANCH  17  18
ENDBRANCH   2  17
TORSDOF 5
ENDMDL
MODEL 7
REMARK VINA RESULT:      -7.3      3.183      4.345
REMARK  5 active torsions:
REMARK  status: ('A' for Active; 'I' for Inactive)
REMARK    1  A    between atoms: C_8  and  C_9 
REMARK    2  A    between atoms: N_10  and  N_11 
REMARK       I    between atoms: N_11  and  C_12 
REMARK    3  A    between atoms: C_12  and  C_13 
REMARK    4  A    between atoms: C_13  and  N_14 
REMARK    5  A    between atoms: N_14  and  C_15 
ROOT
HETATM    1  N   UNL     1     -42.673  55.846 -54.352  1.00  0.00    -0.246 N 
HETATM    2  C   UNL     1     -42.512  54.580 -54.932  1.00  0.00     0.250 C 
HETATM    3  O   UNL     1     -43.419  53.895 -55.403  1.00  0.00    -0.270 OA
HETATM    4  H   UNL     1     -42.084  56.041 -53.549  1.00  0.00     0.192 HD
ENDROOT
BRANCH   1   5
HETATM    5  N   UNL     1     -43.915  56.423 -54.266  1.00  0.00    -0.184 NA
HETATM    6  C   UNL     1     -44.285  57.240 -55.213  1.00  0.00     0.152 C 
BRANCH   6   7
HETATM    7  C   UNL     1     -43.444  57.809 -56.252  1.00  0.00     0.011 A 
HETATM    8  C   UNL     1     -43.097  57.297 -57.548  1.00  0.00     0.004 A 
HETATM    9  C   UNL     1     -43.382  56.108 -58.254  1.00  0.00     0.014 A 
HETATM   10  C   UNL     1     -42.291  58.252 -58.171  1.00  0.00     0.043 A 
HETATM   11  C   UNL     1     -42.896  55.937 -59.556  1.00  0.00     0.001 A 
HETATM   12  C   UNL     1     -42.121  56.924 -60.157  1.00  0.00     0.002 A 
HETATM   13  C   UNL     1     -41.797  58.099 -59.472  1.00  0.00     0.030 A 
HETATM   14  N   UNL     1     -42.116  59.281 -57.276  1.00  0.00    -0.364 N 
HETATM   15  H   UNL     1     -41.576  60.115 -57.461  1.00  0.00     0.165 HD
HETATM   16  C   UNL     1     -42.768  59.007 -56.105  1.00  0.00     0.102 A 
ENDBRANCH   6   7
ENDBRANCH   1   5
BRANCH   2  17
HETATM   17  C   UNL     1     -41.042  54.134 -54.904  1.00  0.00     0.197 C 
BRANCH  17  18
HETATM   18  N   UNL     1     -40.617  53.763 -53.550  1.00  0.00    -0.283 NA
HETATM   19  H   UNL     1     -39.945  54.431 -53.164  1.00  0.00     0.128 HD
BRANCH  18  20
HETATM   20  C   UNL     1     -40.241  52.428 -53.327  1.00  0.00     0.030 A 
HETATM   21  C   UNL     1     -39.857  51.985 -52.046  1.00  0.00     0.055 A 
HETATM   22 CL   UNL     1     -39.739  53.097 -50.725  1.00  0.00    -0.082 Cl
HETATM   23  C   UNL     1     -39.527  50.647 -51.807  1.00  0.00     0.026 A 
HETATM   24  C   UNL     1     -39.599  49.717 -52.844  1.00  0.00     0.002 A 
HETATM   25  C   UNL     1     -40.007  50.126 -54.110  1.00  0.00     0.002 A 
HETATM   26  C   UNL     1     -40.332  51.466 -54.346  1.00  0.00     0.025 A 
ENDBRANCH  18  20
ENDBRANCH  17  18
ENDBRANCH   2  17
TORSDOF 5
ENDMDL
MODEL 8
REMARK VINA RESULT:      -7.2      2.429      3.892
REMARK  5 active torsions:
REMARK  status: ('A' for Active; 'I' for Inactive)
REMARK    1  A    between atoms: C_8  and  C_9 
REMARK    2  A    between atoms: N_10  and  N_11 
REMARK       I    between atoms: N_11  and  C_12 
REMARK    3  A    between atoms: C_12  and  C_13 
REMARK    4  A    between atoms: C_13  and  N_14 
REMARK    5  A    between atoms: N_14  and  C_15 
ROOT
HETATM    1  N   UNL     1     -42.408  54.030 -53.701  1.00  0.00    -0.246 N 
HETATM    2  C   UNL     1     -41.528  54.040 -54.793  1.00  0.00     0.250 C 
HETATM    3  O   UNL     1     -41.740  54.599 -55.869  1.00  0.00    -0.270 OA
HETATM    4  H   UNL     1     -42.442  53.166 -53.171  1.00  0.00     0.192 HD
ENDROOT
BRANCH   1   5
HETATM    5  N   UNL     1     -43.619  54.671 -53.773  1.00  0.00    -0.184 NA
HETATM    6  C   UNL     1     -43.773  55.781 -53.104  1.00  0.00     0.152 C 
BRANCH   6   7
HETATM    7  C   UNL     1     -42.884  56.316 -52.087  1.00  0.00     0.011 A 
HETATM    8  C   UNL     1     -41.807  57.258 -52.202  1.00  0.00     0.004 A 
HETATM    9  C   UNL     1     -41.202  57.951 -53.274  1.00  0.00     0.014 A 
HETATM   10  C   UNL     1     -41.298  57.467 -50.918  1.00  0.00     0.043 A 
HETATM   11  C   UNL     1     -40.158  58.848 -53.025  1.00  0.00     0.001 A 
HETATM   12  C   UNL     1     -39.698  59.055 -51.727  1.00  0.00     0.002 A 
HETATM   13  C   UNL     1     -40.255  58.361 -50.649  1.00  0.00     0.030 A 
HETATM   14  N   UNL     1     -42.006  56.654 -50.064  1.00  0.00    -0.364 N 
HETATM   15  H   UNL     1     -41.853  56.601 -49.067  1.00  0.00     0.165 HD
HETATM   16  C   UNL     1     -42.931  55.927 -50.761  1.00  0.00     0.102 A 
ENDBRANCH   6   7
ENDBRANCH   1   5
BRANCH   2  17
HETATM   17  C   UNL     1     -40.247  53.250 -54.488  1.00  0.00     0.197 C 
BRANCH  17  18
HETATM   18  N   UNL     1     -39.957  53.227 -53.051  1.00  0.00    -0.283 NA
HETATM   19  H   UNL     1     -39.182  53.850 -52.807  1.00  0.00     0.128 HD
BRANCH  18  20
HETATM   20  C   UNL     1     -39.860  51.974 -52.425  1.00  0.00     0.030 A 
HETATM   21  C   UNL     1     -40.085  51.832 -51.041  1.00  0.00     0.055 A 
HETATM   22 CL   UNL     1     -40.390  53.218 -50.049  1.00  0.00    -0.082 Cl
HETATM   23  C   UNL     1     -40.037  50.580 -50.420  1.00  0.00     0.026 A 
HETATM   24  C   UNL     1     -39.786  49.437 -51.178  1.00  0.00     0.002 A 
HETATM   25  C   UNL     1     -39.593  49.549 -52.551  1.00  0.00     0.002 A 
HETATM   26  C   UNL     1     -39.638  50.804 -53.168  1.00  0.00     0.025 A 
ENDBRANCH  18  20
ENDBRANCH  17  18
ENDBRANCH   2  17
TORSDOF 5
ENDMDL
MODEL 9
REMARK VINA RESULT:      -7.1      2.692      4.204
REMARK  5 active torsions:
REMARK  status: ('A' for Active; 'I' for Inactive)
REMARK    1  A    between atoms: C_8  and  C_9 
REMARK    2  A    between atoms: N_10  and  N_11 
REMARK       I    between atoms: N_11  and  C_12 
REMARK    3  A    between atoms: C_12  and  C_13 
REMARK    4  A    between atoms: C_13  and  N_14 
REMARK    5  A    between atoms: N_14  and  C_15 
ROOT
HETATM    1  N   UNL     1     -42.741  55.031 -54.291  1.00  0.00    -0.246 N 
HETATM    2  C   UNL     1     -42.037  54.768 -55.475  1.00  0.00     0.250 C 
HETATM    3  O   UNL     1     -42.427  55.048 -56.608  1.00  0.00    -0.270 OA
HETATM    4  H   UNL     1     -42.666  54.323 -53.568  1.00  0.00     0.192 HD
ENDROOT
BRANCH   1   5
HETATM    5  N   UNL     1     -43.969  55.642 -54.327  1.00  0.00    -0.184 NA
HETATM    6  C   UNL     1     -44.018  56.942 -54.227  1.00  0.00     0.152 C 
BRANCH   6   7
HETATM    7  C   UNL     1     -42.932  57.828 -53.842  1.00  0.00     0.011 A 
HETATM    8  C   UNL     1     -42.153  57.868 -52.637  1.00  0.00     0.004 A 
HETATM    9  C   UNL     1     -42.162  57.145 -51.424  1.00  0.00     0.014 A 
HETATM   10  C   UNL     1     -41.208  58.886 -52.786  1.00  0.00     0.043 A 
HETATM   11  C   UNL     1     -41.211  57.429 -50.436  1.00  0.00     0.001 A 
HETATM   12  C   UNL     1     -40.264  58.430 -50.633  1.00  0.00     0.002 A 
HETATM   13  C   UNL     1     -40.249  59.183 -51.810  1.00  0.00     0.030 A 
HETATM   14  N   UNL     1     -41.430  59.470 -54.011  1.00  0.00    -0.364 N 
HETATM   15  H   UNL     1     -40.889  60.236 -54.387  1.00  0.00     0.165 HD
HETATM   16  C   UNL     1     -42.490  58.871 -54.635  1.00  0.00     0.102 A 
ENDBRANCH   6   7
ENDBRANCH   1   5
BRANCH   2  17
HETATM   17  C   UNL     1     -40.700  54.070 -55.190  1.00  0.00     0.197 C 
BRANCH  17  18
HETATM   18  N   UNL     1     -40.561  53.730 -53.770  1.00  0.00    -0.283 NA
HETATM   19  H   UNL     1     -40.003  54.423 -53.263  1.00  0.00     0.128 HD
BRANCH  18  20
HETATM   20  C   UNL     1     -40.207  52.409 -53.446  1.00  0.00     0.030 A 
HETATM   21  C   UNL     1     -39.836  52.056 -52.134  1.00  0.00     0.055 A 
HETATM   22 CL   UNL     1     -39.707  53.261 -50.897  1.00  0.00    -0.082 Cl
HETATM   23  C   UNL     1     -39.527  50.734 -51.796  1.00  0.00     0.026 A 
HETATM   24  C   UNL     1     -39.609  49.732 -52.761  1.00  0.00     0.002 A 
HETATM   25  C   UNL     1     -40.005  50.053 -54.056  1.00  0.00     0.002 A 
HETATM   26  C   UNL     1     -40.308  51.376 -54.392  1.00  0.00     0.025 A 
ENDBRANCH  18  20
ENDBRANCH  17  18
ENDBRANCH   2  17
TORSDOF 5
ENDMDL
MODEL 10
REMARK VINA RESULT:      -6.9      3.047      5.712
REMARK  5 active torsions:
REMARK  status: ('A' for Active; 'I' for Inactive)
REMARK    1  A    between atoms: C_8  and  C_9 
REMARK    2  A    between atoms: N_10  and  N_11 
REMARK       I    between atoms: N_11  and  C_12 
REMARK    3  A    between atoms: C_12  and  C_13 
REMARK    4  A    between atoms: C_13  and  N_14 
REMARK    5  A    between atoms: N_14  and  C_15 
ROOT
HETATM    1  N   UNL     1     -39.469  52.498 -53.024  1.00  0.00    -0.246 N 
HETATM    2  C   UNL     1     -40.323  52.514 -54.136  1.00  0.00     0.250 C 
HETATM    3  O   UNL     1     -41.254  51.733 -54.326  1.00  0.00    -0.270 OA
HETATM    4  H   UNL     1     -38.498  52.726 -53.211  1.00  0.00     0.192 HD
ENDROOT
BRANCH   1   5
HETATM    5  N   UNL     1     -39.626  51.560 -52.034  1.00  0.00    -0.184 NA
HETATM    6  C   UNL     1     -40.264  51.904 -50.950  1.00  0.00     0.152 C 
BRANCH   6   7
HETATM    7  C   UNL     1     -40.638  53.250 -50.549  1.00  0.00     0.011 A 
HETATM    8  C   UNL     1     -41.696  54.098 -51.023  1.00  0.00     0.004 A 
HETATM    9  C   UNL     1     -42.688  53.984 -52.021  1.00  0.00     0.014 A 
HETATM   10  C   UNL     1     -41.648  55.279 -50.278  1.00  0.00     0.043 A 
HETATM   11  C   UNL     1     -43.612  55.019 -52.207  1.00  0.00     0.001 A 
HETATM   12  C   UNL     1     -43.553  56.168 -51.424  1.00  0.00     0.002 A 
HETATM   13  C   UNL     1     -42.564  56.323 -50.449  1.00  0.00     0.030 A 
HETATM   14  N   UNL     1     -40.580  55.173 -49.419  1.00  0.00    -0.364 N 
HETATM   15  H   UNL     1     -40.308  55.884 -48.754  1.00  0.00     0.165 HD
HETATM   16  C   UNL     1     -39.940  53.978 -49.602  1.00  0.00     0.102 A 
ENDBRANCH   6   7
ENDBRANCH   1   5
BRANCH   2  17
HETATM   17  C   UNL     1     -39.950  53.638 -55.114  1.00  0.00     0.197 C 
BRANCH  17  18
HETATM   18  N   UNL     1     -41.137  54.364 -55.579  1.00  0.00    -0.283 NA
HETATM   19  H   UNL     1     -41.264  54.279 -56.591  1.00  0.00     0.128 HD
BRANCH  18  20
HETATM   20  C   UNL     1     -41.320  55.678 -55.118  1.00  0.00     0.030 A 
HETATM   21  C   UNL     1     -42.285  56.525 -55.700  1.00  0.00     0.055 A 
HETATM   22 CL   UNL     1     -43.206  56.005 -57.070  1.00  0.00    -0.082 Cl
HETATM   23  C   UNL     1     -42.504  57.818 -55.215  1.00  0.00     0.026 A 
HETATM   24  C   UNL     1     -41.779  58.283 -54.119  1.00  0.00     0.002 A 
HETATM   25  C   UNL     1     -40.844  57.452 -53.508  1.00  0.00     0.002 A 
HETATM   26  C   UNL     1     -40.624  56.161 -53.999  1.00  0.00     0.025 A 
ENDBRANCH  18  20
ENDBRANCH  17  18
ENDBRANCH   2  17
TORSDOF 5
ENDMDL
