MODEL 1
REMARK VINA RESULT:      -8.1      0.000      0.000
REMARK  9 active torsions:
REMARK  status: ('A' for Active; 'I' for Inactive)
REMARK    1  A    between atoms: C_6  and  C_7 
REMARK       I    between atoms: C_7  and  N_8 
REMARK    2  A    between atoms: N_8  and  C_9 
REMARK    3  A    between atoms: C_9  and  C_10 
REMARK    4  A    between atoms: N_15  and  C_17 
REMARK    5  A    between atoms: C_17  and  C_18 
REMARK    6  A    between atoms: C_21  and  C_22 
REMARK    7  A    between atoms: C_22  and  C_23 
REMARK    8  A    between atoms: C_23  and  C_24 
REMARK    9  A    between atoms: C_24  and  O_25 
ROOT
HETATM    1  C   UNL     1     -42.698  56.052 -51.005  1.00  0.00     0.140 C 
HETATM    2  O   UNL     1     -42.922  55.562 -52.343  1.00  0.00    -0.373 OA
HETATM    3  C   UNL     1     -42.298  56.444 -53.297  1.00  0.00     0.064 C 
HETATM    4  C   UNL     1     -43.411  56.964 -54.214  1.00  0.00     0.066 C 
HETATM    5  C   UNL     1     -44.061  55.821 -54.985  1.00  0.00     0.238 C 
HETATM    6  N   UNL     1     -43.034  55.042 -55.773  1.00  0.00    -0.067 N 
HETATM    7  H   UNL     1     -43.537  54.214 -56.113  1.00  0.00     0.280 HD
HETATM    8  C   UNL     1     -41.943  54.507 -54.872  1.00  0.00     0.238 C 
HETATM    9  C   UNL     1     -41.277  55.645 -54.112  1.00  0.00     0.066 C 
HETATM   10  C   UNL     1     -41.636  57.563 -52.491  1.00  0.00     0.041 C 
HETATM   11  C   UNL     1     -42.380  57.528 -51.176  1.00  0.00     0.036 C 
ENDROOT
BRANCH   1  12
HETATM   12  C   UNL     1     -41.557  55.263 -50.332  1.00  0.00     0.155 C 
BRANCH  12  13
HETATM   13  N   UNL     1     -41.285  54.009 -51.014  1.00  0.00    -0.353 N 
HETATM   14  C   UNL     1     -40.047  53.405 -51.004  1.00  0.00     0.270 C 
HETATM   15  O   UNL     1     -39.101  53.863 -50.367  1.00  0.00    -0.266 OA
HETATM   16  H   UNL     1     -42.036  53.577 -51.534  1.00  0.00     0.162 HD
BRANCH  14  17
HETATM   17  C   UNL     1     -39.950  52.202 -51.798  1.00  0.00     0.122 A 
HETATM   18  N   UNL     1     -39.977  50.926 -51.283  1.00  0.00    -0.269 N 
HETATM   19  N   UNL     1     -39.812  49.962 -52.205  1.00  0.00    -0.177 NA
HETATM   20  C   UNL     1     -40.180  50.536 -49.906  1.00  0.00     0.180 C 
HETATM   21  C   UNL     1     -39.721  50.621 -53.362  1.00  0.00     0.053 A 
HETATM   22  C   UNL     1     -39.548  49.890 -54.640  1.00  0.00     0.072 C 
HETATM   23  C   UNL     1     -39.798  52.018 -53.164  1.00  0.00     0.065 A 
ENDBRANCH  14  17
ENDBRANCH  12  13
ENDBRANCH   1  12
BRANCH   6  24
HETATM   24  C   UNL     1     -42.508  55.714 -57.021  1.00  0.00     0.273 C 
BRANCH  24  25
HETATM   25  C   UNL     1     -43.577  56.000 -58.040  1.00  0.00    -0.033 A 
HETATM   26  C   UNL     1     -44.233  57.241 -58.050  1.00  0.00     0.010 A 
HETATM   27  C   UNL     1     -45.268  57.489 -58.955  1.00  0.00     0.021 A 
HETATM   28  C   UNL     1     -45.653  56.502 -59.860  1.00  0.00     0.017 A 
HETATM   29  C   UNL     1     -44.996  55.271 -59.872  1.00  0.00     0.021 A 
HETATM   30  C   UNL     1     -43.961  55.019 -58.968  1.00  0.00     0.010 A 
BRANCH  28  31
HETATM   31  C   UNL     1     -46.729  56.744 -60.767  1.00  0.00    -0.064 C 
BRANCH  31  32
HETATM   32  C   UNL     1     -47.710  56.994 -61.587  1.00  0.00    -0.064 C 
BRANCH  32  33
HETATM   33  C   UNL     1     -48.855  57.286 -62.544  1.00  0.00     0.114 C 
HETATM   34  C   UNL     1     -49.268  58.752 -62.440  1.00  0.00     0.060 C 
HETATM   35  C   UNL     1     -48.449  56.928 -63.969  1.00  0.00     0.060 C 
BRANCH  33  36
HETATM   36  O   UNL     1     -49.962  56.467 -62.180  1.00  0.00    -0.378 OA
HETATM   37  H   UNL     1     -49.606  55.603 -61.914  1.00  0.00     0.211 HD
ENDBRANCH  33  36
ENDBRANCH  32  33
ENDBRANCH  31  32
ENDBRANCH  28  31
ENDBRANCH  24  25
ENDBRANCH   6  24
TORSDOF 9
ENDMDL
MODEL 2
REMARK VINA RESULT:      -7.5      5.585     10.104
REMARK  9 active torsions:
REMARK  status: ('A' for Active; 'I' for Inactive)
REMARK    1  A    between atoms: C_6  and  C_7 
REMARK       I    between atoms: C_7  and  N_8 
REMARK    2  A    between atoms: N_8  and  C_9 
REMARK    3  A    between atoms: C_9  and  C_10 
REMARK    4  A    between atoms: N_15  and  C_17 
REMARK    5  A    between atoms: C_17  and  C_18 
REMARK    6  A    between atoms: C_21  and  C_22 
REMARK    7  A    between atoms: C_22  and  C_23 
REMARK    8  A    between atoms: C_23  and  C_24 
REMARK    9  A    between atoms: C_24  and  O_25 
ROOT
HETATM    1  C   UNL     1     -45.485  60.974 -50.251  1.00  0.00     0.140 C 
HETATM    2  O   UNL     1     -45.311  60.180 -51.442  1.00  0.00    -0.373 OA
HETATM    3  C   UNL     1     -43.932  60.220 -51.859  1.00  0.00     0.064 C 
HETATM    4  C   UNL     1     -43.912  60.809 -53.274  1.00  0.00     0.066 C 
HETATM    5  C   UNL     1     -44.672  59.916 -54.247  1.00  0.00     0.238 C 
HETATM    6  N   UNL     1     -44.118  58.510 -54.242  1.00  0.00    -0.067 N 
HETATM    7  H   UNL     1     -44.790  57.961 -54.791  1.00  0.00     0.280 HD
HETATM    8  C   UNL     1     -44.154  57.913 -52.852  1.00  0.00     0.238 C 
HETATM    9  C   UNL     1     -43.381  58.791 -51.878  1.00  0.00     0.066 C 
HETATM   10  C   UNL     1     -43.195  61.102 -50.849  1.00  0.00     0.041 C 
HETATM   11  C   UNL     1     -44.304  61.929 -50.240  1.00  0.00     0.036 C 
ENDROOT
BRANCH   1  12
HETATM   12  C   UNL     1     -45.537  60.065 -49.007  1.00  0.00     0.155 C 
BRANCH  12  13
HETATM   13  N   UNL     1     -45.096  60.755 -47.807  1.00  0.00    -0.353 N 
HETATM   14  C   UNL     1     -45.814  60.745 -46.631  1.00  0.00     0.270 C 
HETATM   15  O   UNL     1     -46.854  60.102 -46.505  1.00  0.00    -0.266 OA
HETATM   16  H   UNL     1     -44.234  61.281 -47.849  1.00  0.00     0.162 HD
BRANCH  14  17
HETATM   17  C   UNL     1     -45.253  61.548 -45.569  1.00  0.00     0.122 A 
HETATM   18  N   UNL     1     -45.588  62.861 -45.329  1.00  0.00    -0.269 N 
HETATM   19  N   UNL     1     -44.895  63.425 -44.323  1.00  0.00    -0.177 NA
HETATM   20  C   UNL     1     -46.585  63.656 -46.009  1.00  0.00     0.180 C 
HETATM   21  C   UNL     1     -44.121  62.441 -43.861  1.00  0.00     0.053 A 
HETATM   22  C   UNL     1     -43.206  62.669 -42.717  1.00  0.00     0.072 C 
HETATM   23  C   UNL     1     -44.303  61.253 -44.603  1.00  0.00     0.065 A 
ENDBRANCH  14  17
ENDBRANCH  12  13
ENDBRANCH   1  12
BRANCH   6  24
HETATM   24  C   UNL     1     -42.794  58.317 -54.946  1.00  0.00     0.273 C 
BRANCH  24  25
HETATM   25  C   UNL     1     -42.253  56.918 -54.823  1.00  0.00    -0.033 A 
HETATM   26  C   UNL     1     -42.882  55.854 -55.490  1.00  0.00     0.010 A 
HETATM   27  C   UNL     1     -42.419  54.546 -55.330  1.00  0.00     0.021 A 
HETATM   28  C   UNL     1     -41.323  54.289 -54.508  1.00  0.00     0.017 A 
HETATM   29  C   UNL     1     -40.679  55.342 -53.855  1.00  0.00     0.021 A 
HETATM   30  C   UNL     1     -41.139  56.651 -54.012  1.00  0.00     0.010 A 
BRANCH  28  31
HETATM   31  C   UNL     1     -40.867  52.950 -54.322  1.00  0.00    -0.064 C 
BRANCH  31  32
HETATM   32  C   UNL     1     -40.475  51.716 -54.164  1.00  0.00    -0.064 C 
BRANCH  32  33
HETATM   33  C   UNL     1     -40.019  50.278 -53.982  1.00  0.00     0.114 C 
HETATM   34  C   UNL     1     -38.722  50.035 -54.748  1.00  0.00     0.060 C 
HETATM   35  C   UNL     1     -39.849  49.969 -52.499  1.00  0.00     0.060 C 
BRANCH  33  36
HETATM   36  O   UNL     1     -41.030  49.419 -54.499  1.00  0.00    -0.378 OA
HETATM   37  H   UNL     1     -41.846  49.604 -54.005  1.00  0.00     0.211 HD
ENDBRANCH  33  36
ENDBRANCH  32  33
ENDBRANCH  31  32
ENDBRANCH  28  31
ENDBRANCH  24  25
ENDBRANCH   6  24
TORSDOF 9
ENDMDL
MODEL 3
REMARK VINA RESULT:      -7.3      6.401     10.889
REMARK  9 active torsions:
REMARK  status: ('A' for Active; 'I' for Inactive)
REMARK    1  A    between atoms: C_6  and  C_7 
REMARK       I    between atoms: C_7  and  N_8 
REMARK    2  A    between atoms: N_8  and  C_9 
REMARK    3  A    between atoms: C_9  and  C_10 
REMARK    4  A    between atoms: N_15  and  C_17 
REMARK    5  A    between atoms: C_17  and  C_18 
REMARK    6  A    between atoms: C_21  and  C_22 
REMARK    7  A    between atoms: C_22  and  C_23 
REMARK    8  A    between atoms: C_23  and  C_24 
REMARK    9  A    between atoms: C_24  and  O_25 
ROOT
HETATM    1  C   UNL     1     -46.610  62.430 -50.153  1.00  0.00     0.140 C 
HETATM    2  O   UNL     1     -45.601  61.398 -50.165  1.00  0.00    -0.373 OA
HETATM    3  C   UNL     1     -44.851  61.464 -51.394  1.00  0.00     0.064 C 
HETATM    4  C   UNL     1     -45.030  60.113 -52.097  1.00  0.00     0.066 C 
HETATM    5  C   UNL     1     -44.456  58.980 -51.254  1.00  0.00     0.238 C 
HETATM    6  N   UNL     1     -43.002  59.227 -50.927  1.00  0.00    -0.067 N 
HETATM    7  H   UNL     1     -42.763  58.509 -50.233  1.00  0.00     0.280 HD
HETATM    8  C   UNL     1     -42.819  60.550 -50.214  1.00  0.00     0.238 C 
HETATM    9  C   UNL     1     -43.374  61.688 -51.058  1.00  0.00     0.066 C 
HETATM   10  C   UNL     1     -45.435  62.624 -52.202  1.00  0.00     0.041 C 
HETATM   11  C   UNL     1     -46.816  62.793 -51.613  1.00  0.00     0.036 C 
ENDROOT
BRANCH   1  12
HETATM   12  C   UNL     1     -46.142  63.621 -49.294  1.00  0.00     0.155 C 
BRANCH  12  13
HETATM   13  N   UNL     1     -45.535  63.190 -48.046  1.00  0.00    -0.353 N 
HETATM   14  C   UNL     1     -46.158  63.328 -46.824  1.00  0.00     0.270 C 
HETATM   15  O   UNL     1     -47.297  63.777 -46.718  1.00  0.00    -0.266 OA
HETATM   16  H   UNL     1     -44.607  62.792 -48.080  1.00  0.00     0.162 HD
BRANCH  14  17
HETATM   17  C   UNL     1     -45.369  62.909 -45.689  1.00  0.00     0.122 A 
HETATM   18  N   UNL     1     -45.105  61.597 -45.368  1.00  0.00    -0.269 N 
HETATM   19  N   UNL     1     -44.398  61.445 -44.233  1.00  0.00    -0.177 NA
HETATM   20  C   UNL     1     -45.479  60.415 -46.111  1.00  0.00     0.180 C 
HETATM   21  C   UNL     1     -44.152  62.692 -43.826  1.00  0.00     0.053 A 
HETATM   22  C   UNL     1     -43.367  62.947 -42.595  1.00  0.00     0.072 C 
HETATM   23  C   UNL     1     -44.736  63.640 -44.695  1.00  0.00     0.065 A 
ENDBRANCH  14  17
ENDBRANCH  12  13
ENDBRANCH   1  12
BRANCH   6  24
HETATM   24  C   UNL     1     -42.022  59.013 -52.058  1.00  0.00     0.273 C 
BRANCH  24  25
HETATM   25  C   UNL     1     -41.685  57.565 -52.288  1.00  0.00    -0.033 A 
HETATM   26  C   UNL     1     -41.590  56.678 -51.203  1.00  0.00     0.010 A 
HETATM   27  C   UNL     1     -41.218  55.348 -51.406  1.00  0.00     0.021 A 
HETATM   28  C   UNL     1     -40.941  54.890 -52.693  1.00  0.00     0.017 A 
HETATM   29  C   UNL     1     -41.050  55.757 -53.781  1.00  0.00     0.021 A 
HETATM   30  C   UNL     1     -41.422  57.089 -53.582  1.00  0.00     0.010 A 
BRANCH  28  31
HETATM   31  C   UNL     1     -40.534  53.537 -52.899  1.00  0.00    -0.064 C 
BRANCH  31  32
HETATM   32  C   UNL     1     -40.171  52.304 -53.116  1.00  0.00    -0.064 C 
BRANCH  32  33
HETATM   33  C   UNL     1     -39.748  50.866 -53.368  1.00  0.00     0.114 C 
HETATM   34  C   UNL     1     -39.674  50.100 -52.051  1.00  0.00     0.060 C 
HETATM   35  C   UNL     1     -40.716  50.200 -54.339  1.00  0.00     0.060 C 
BRANCH  33  36
HETATM   36  O   UNL     1     -38.457  50.879 -53.969  1.00  0.00    -0.378 OA
HETATM   37  H   UNL     1     -38.418  50.128 -54.585  1.00  0.00     0.211 HD
ENDBRANCH  33  36
ENDBRANCH  32  33
ENDBRANCH  31  32
ENDBRANCH  28  31
ENDBRANCH  24  25
ENDBRANCH   6  24
TORSDOF 9
ENDMDL
MODEL 4
REMARK VINA RESULT:      -7.0      3.425      5.687
REMARK  9 active torsions:
REMARK  status: ('A' for Active; 'I' for Inactive)
REMARK    1  A    between atoms: C_6  and  C_7 
REMARK       I    between atoms: C_7  and  N_8 
REMARK    2  A    between atoms: N_8  and  C_9 
REMARK    3  A    between atoms: C_9  and  C_10 
REMARK    4  A    between atoms: N_15  and  C_17 
REMARK    5  A    between atoms: C_17  and  C_18 
REMARK    6  A    between atoms: C_21  and  C_22 
REMARK    7  A    between atoms: C_22  and  C_23 
REMARK    8  A    between atoms: C_23  and  C_24 
REMARK    9  A    between atoms: C_24  and  O_25 
ROOT
HETATM    1  C   UNL     1     -40.994  54.971 -51.103  1.00  0.00     0.140 C 
HETATM    2  O   UNL     1     -41.012  55.257 -52.516  1.00  0.00    -0.373 OA
HETATM    3  C   UNL     1     -42.223  54.741 -53.104  1.00  0.00     0.064 C 
HETATM    4  C   UNL     1     -41.800  53.731 -54.177  1.00  0.00     0.066 C 
HETATM    5  C   UNL     1     -40.996  54.411 -55.279  1.00  0.00     0.238 C 
HETATM    6  N   UNL     1     -41.770  55.555 -55.891  1.00  0.00    -0.067 N 
HETATM    7  H   UNL     1     -41.091  56.040 -56.490  1.00  0.00     0.280 HD
HETATM    8  C   UNL     1     -42.172  56.567 -54.841  1.00  0.00     0.238 C 
HETATM    9  C   UNL     1     -42.992  55.899 -53.746  1.00  0.00     0.066 C 
HETATM   10  C   UNL     1     -43.016  54.089 -51.969  1.00  0.00     0.041 C 
HETATM   11  C   UNL     1     -41.959  53.811 -50.925  1.00  0.00     0.036 C 
ENDROOT
BRANCH   1  12
HETATM   12  C   UNL     1     -41.399  56.223 -50.301  1.00  0.00     0.155 C 
BRANCH  12  13
HETATM   13  N   UNL     1     -41.818  57.314 -51.166  1.00  0.00    -0.353 N 
HETATM   14  C   UNL     1     -41.087  58.472 -51.318  1.00  0.00     0.270 C 
HETATM   15  O   UNL     1     -39.998  58.634 -50.771  1.00  0.00    -0.266 OA
HETATM   16  H   UNL     1     -42.695  57.221 -51.657  1.00  0.00     0.162 HD
BRANCH  14  17
HETATM   17  C   UNL     1     -41.699  59.472 -52.162  1.00  0.00     0.122 A 
HETATM   18  N   UNL     1     -42.478  60.507 -51.698  1.00  0.00    -0.269 N 
HETATM   19  N   UNL     1     -42.991  61.282 -52.672  1.00  0.00    -0.177 NA
HETATM   20  C   UNL     1     -42.770  60.844 -50.323  1.00  0.00     0.180 C 
HETATM   21  C   UNL     1     -42.496  60.767 -53.799  1.00  0.00     0.053 A 
HETATM   22  C   UNL     1     -42.823  61.369 -55.114  1.00  0.00     0.072 C 
HETATM   23  C   UNL     1     -41.688  59.638 -53.538  1.00  0.00     0.065 A 
ENDBRANCH  14  17
ENDBRANCH  12  13
ENDBRANCH   1  12
BRANCH   6  24
HETATM   24  C   UNL     1     -42.899  55.170 -56.819  1.00  0.00     0.273 C 
BRANCH  24  25
HETATM   25  C   UNL     1     -43.193  56.212 -57.864  1.00  0.00    -0.033 A 
HETATM   26  C   UNL     1     -42.645  56.097 -59.152  1.00  0.00     0.010 A 
HETATM   27  C   UNL     1     -42.865  57.092 -60.107  1.00  0.00     0.021 A 
HETATM   28  C   UNL     1     -43.637  58.207 -59.786  1.00  0.00     0.017 A 
HETATM   29  C   UNL     1     -44.202  58.323 -58.515  1.00  0.00     0.021 A 
HETATM   30  C   UNL     1     -43.984  57.329 -57.558  1.00  0.00     0.010 A 
BRANCH  28  31
HETATM   31  C   UNL     1     -43.840  59.238 -60.752  1.00  0.00    -0.064 C 
BRANCH  31  32
HETATM   32  C   UNL     1     -44.035  60.159 -61.654  1.00  0.00    -0.064 C 
BRANCH  32  33
HETATM   33  C   UNL     1     -44.263  61.233 -62.706  1.00  0.00     0.114 C 
HETATM   34  C   UNL     1     -44.894  62.468 -62.070  1.00  0.00     0.060 C 
HETATM   35  C   UNL     1     -42.947  61.577 -63.393  1.00  0.00     0.060 C 
BRANCH  33  36
HETATM   36  O   UNL     1     -45.153  60.713 -63.689  1.00  0.00    -0.378 OA
HETATM   37  H   UNL     1     -45.457  61.463 -64.228  1.00  0.00     0.211 HD
ENDBRANCH  33  36
ENDBRANCH  32  33
ENDBRANCH  31  32
ENDBRANCH  28  31
ENDBRANCH  24  25
ENDBRANCH   6  24
TORSDOF 9
ENDMDL
MODEL 5
REMARK VINA RESULT:      -6.9      4.113      9.036
REMARK  9 active torsions:
REMARK  status: ('A' for Active; 'I' for Inactive)
REMARK    1  A    between atoms: C_6  and  C_7 
REMARK       I    between atoms: C_7  and  N_8 
REMARK    2  A    between atoms: N_8  and  C_9 
REMARK    3  A    between atoms: C_9  and  C_10 
REMARK    4  A    between atoms: N_15  and  C_17 
REMARK    5  A    between atoms: C_17  and  C_18 
REMARK    6  A    between atoms: C_21  and  C_22 
REMARK    7  A    between atoms: C_22  and  C_23 
REMARK    8  A    between atoms: C_23  and  C_24 
REMARK    9  A    between atoms: C_24  and  O_25 
ROOT
HETATM    1  C   UNL     1     -42.678  56.904 -58.280  1.00  0.00     0.140 C 
HETATM    2  O   UNL     1     -42.479  57.909 -57.265  1.00  0.00    -0.373 OA
HETATM    3  C   UNL     1     -43.701  58.645 -57.060  1.00  0.00     0.064 C 
HETATM    4  C   UNL     1     -43.392  60.114 -57.371  1.00  0.00     0.066 C 
HETATM    5  C   UNL     1     -42.344  60.666 -56.413  1.00  0.00     0.238 C 
HETATM    6  N   UNL     1     -42.780  60.501 -54.976  1.00  0.00    -0.067 N 
HETATM    7  H   UNL     1     -41.951  60.744 -54.420  1.00  0.00     0.280 HD
HETATM    8  C   UNL     1     -43.066  59.051 -54.654  1.00  0.00     0.238 C 
HETATM    9  C   UNL     1     -44.126  58.498 -55.596  1.00  0.00     0.066 C 
HETATM   10  C   UNL     1     -44.736  58.051 -58.017  1.00  0.00     0.041 C 
HETATM   11  C   UNL     1     -43.885  57.379 -59.070  1.00  0.00     0.036 C 
ENDROOT
BRANCH   1  12
HETATM   12  C   UNL     1     -42.888  55.523 -57.628  1.00  0.00     0.155 C 
BRANCH  12  13
HETATM   13  N   UNL     1     -42.285  55.445 -56.308  1.00  0.00    -0.353 N 
HETATM   14  C   UNL     1     -42.665  54.514 -55.366  1.00  0.00     0.270 C 
HETATM   15  O   UNL     1     -43.506  53.649 -55.603  1.00  0.00    -0.266 OA
HETATM   16  H   UNL     1     -41.572  56.119 -56.069  1.00  0.00     0.162 HD
BRANCH  14  17
HETATM   17  C   UNL     1     -42.005  54.638 -54.087  1.00  0.00     0.122 A 
HETATM   18  N   UNL     1     -41.013  53.795 -53.640  1.00  0.00    -0.269 N 
HETATM   19  N   UNL     1     -40.587  54.068 -52.394  1.00  0.00    -0.177 NA
HETATM   20  C   UNL     1     -40.394  52.703 -54.357  1.00  0.00     0.180 C 
HETATM   21  C   UNL     1     -41.285  55.147 -52.033  1.00  0.00     0.053 A 
HETATM   22  C   UNL     1     -41.081  55.773 -50.705  1.00  0.00     0.072 C 
HETATM   23  C   UNL     1     -42.183  55.540 -53.050  1.00  0.00     0.065 A 
ENDBRANCH  14  17
ENDBRANCH  12  13
ENDBRANCH   1  12
BRANCH   6  24
HETATM   24  C   UNL     1     -43.857  61.447 -54.497  1.00  0.00     0.273 C 
BRANCH  24  25
HETATM   25  C   UNL     1     -44.234  61.241 -53.055  1.00  0.00    -0.033 A 
HETATM   26  C   UNL     1     -45.533  60.828 -52.714  1.00  0.00     0.010 A 
HETATM   27  C   UNL     1     -45.905  60.694 -51.375  1.00  0.00     0.021 A 
HETATM   28  C   UNL     1     -44.984  60.965 -50.365  1.00  0.00     0.017 A 
HETATM   29  C   UNL     1     -43.685  61.358 -50.692  1.00  0.00     0.021 A 
HETATM   30  C   UNL     1     -43.309  61.494 -52.030  1.00  0.00     0.010 A 
BRANCH  28  31
HETATM   31  C   UNL     1     -45.371  60.855 -48.995  1.00  0.00    -0.064 C 
BRANCH  31  32
HETATM   32  C   UNL     1     -45.745  60.733 -47.752  1.00  0.00    -0.064 C 
BRANCH  32  33
HETATM   33  C   UNL     1     -46.182  60.592 -46.303  1.00  0.00     0.114 C 
HETATM   34  C   UNL     1     -46.662  59.169 -46.034  1.00  0.00     0.060 C 
HETATM   35  C   UNL     1     -45.035  60.972 -45.373  1.00  0.00     0.060 C 
BRANCH  33  36
HETATM   36  O   UNL     1     -47.258  61.495 -46.071  1.00  0.00    -0.378 OA
HETATM   37  H   UNL     1     -48.061  61.088 -46.438  1.00  0.00     0.211 HD
ENDBRANCH  33  36
ENDBRANCH  32  33
ENDBRANCH  31  32
ENDBRANCH  28  31
ENDBRANCH  24  25
ENDBRANCH   6  24
TORSDOF 9
ENDMDL
MODEL 6
REMARK VINA RESULT:      -6.9     15.279     17.435
REMARK  9 active torsions:
REMARK  status: ('A' for Active; 'I' for Inactive)
REMARK    1  A    between atoms: C_6  and  C_7 
REMARK       I    between atoms: C_7  and  N_8 
REMARK    2  A    between atoms: N_8  and  C_9 
REMARK    3  A    between atoms: C_9  and  C_10 
REMARK    4  A    between atoms: N_15  and  C_17 
REMARK    5  A    between atoms: C_17  and  C_18 
REMARK    6  A    between atoms: C_21  and  C_22 
REMARK    7  A    between atoms: C_22  and  C_23 
REMARK    8  A    between atoms: C_23  and  C_24 
REMARK    9  A    between atoms: C_24  and  O_25 
ROOT
HETATM    1  C   UNL     1     -36.835  39.637 -50.128  1.00  0.00     0.140 C 
HETATM    2  O   UNL     1     -36.909  40.432 -51.329  1.00  0.00    -0.373 OA
HETATM    3  C   UNL     1     -35.696  40.280 -52.091  1.00  0.00     0.064 C 
HETATM    4  C   UNL     1     -35.076  41.676 -52.222  1.00  0.00     0.066 C 
HETATM    5  C   UNL     1     -36.000  42.612 -52.992  1.00  0.00     0.238 C 
HETATM    6  N   UNL     1     -36.342  42.045 -54.350  1.00  0.00    -0.067 N 
HETATM    7  H   UNL     1     -37.085  42.656 -54.710  1.00  0.00     0.280 HD
HETATM    8  C   UNL     1     -36.974  40.676 -54.228  1.00  0.00     0.238 C 
HETATM    9  C   UNL     1     -36.048  39.730 -53.476  1.00  0.00     0.066 C 
HETATM   10  C   UNL     1     -34.803  39.317 -51.305  1.00  0.00     0.041 C 
HETATM   11  C   UNL     1     -35.351  39.409 -49.899  1.00  0.00     0.036 C 
ENDROOT
BRANCH   1  12
HETATM   12  C   UNL     1     -37.627  38.327 -50.306  1.00  0.00     0.155 C 
BRANCH  12  13
HETATM   13  N   UNL     1     -38.809  38.284 -49.461  1.00  0.00    -0.353 N 
HETATM   14  C   UNL     1     -40.001  37.725 -49.870  1.00  0.00     0.270 C 
HETATM   15  O   UNL     1     -40.124  37.174 -50.961  1.00  0.00    -0.266 OA
HETATM   16  H   UNL     1     -38.755  38.703 -48.544  1.00  0.00     0.162 HD
BRANCH  14  17
HETATM   17  C   UNL     1     -41.084  37.841 -48.921  1.00  0.00     0.122 A 
HETATM   18  N   UNL     1     -42.349  38.281 -49.238  1.00  0.00    -0.269 N 
HETATM   19  N   UNL     1     -43.178  38.363 -48.181  1.00  0.00    -0.177 NA
HETATM   20  C   UNL     1     -42.861  38.628 -50.544  1.00  0.00     0.180 C 
HETATM   21  C   UNL     1     -42.450  37.920 -47.154  1.00  0.00     0.053 A 
HETATM   22  C   UNL     1     -43.030  37.841 -45.792  1.00  0.00     0.072 C 
HETATM   23  C   UNL     1     -41.139  37.585 -47.559  1.00  0.00     0.065 A 
ENDBRANCH  14  17
ENDBRANCH  12  13
ENDBRANCH   1  12
BRANCH   6  24
HETATM   24  C   UNL     1     -35.248  42.112 -55.391  1.00  0.00     0.273 C 
BRANCH  24  25
HETATM   25  C   UNL     1     -35.629  41.472 -56.698  1.00  0.00    -0.033 A 
HETATM   26  C   UNL     1     -36.545  42.103 -57.555  1.00  0.00     0.010 A 
HETATM   27  C   UNL     1     -36.948  41.484 -58.741  1.00  0.00     0.021 A 
HETATM   28  C   UNL     1     -36.436  40.234 -59.083  1.00  0.00     0.017 A 
HETATM   29  C   UNL     1     -35.511  39.606 -58.247  1.00  0.00     0.021 A 
HETATM   30  C   UNL     1     -35.107  40.221 -57.061  1.00  0.00     0.010 A 
BRANCH  28  31
HETATM   31  C   UNL     1     -36.868  39.588 -60.280  1.00  0.00    -0.064 C 
BRANCH  31  32
HETATM   32  C   UNL     1     -37.242  38.975 -61.369  1.00  0.00    -0.064 C 
BRANCH  32  33
HETATM   33  C   UNL     1     -37.679  38.262 -62.638  1.00  0.00     0.114 C 
HETATM   34  C   UNL     1     -36.966  36.918 -62.758  1.00  0.00     0.060 C 
HETATM   35  C   UNL     1     -39.193  38.085 -62.643  1.00  0.00     0.060 C 
BRANCH  33  36
HETATM   36  O   UNL     1     -37.324  39.075 -63.752  1.00  0.00    -0.378 OA
HETATM   37  H   UNL     1     -37.403  40.001 -63.470  1.00  0.00     0.211 HD
ENDBRANCH  33  36
ENDBRANCH  32  33
ENDBRANCH  31  32
ENDBRANCH  28  31
ENDBRANCH  24  25
ENDBRANCH   6  24
TORSDOF 9
ENDMDL
MODEL 7
REMARK VINA RESULT:      -6.7      5.414      6.508
REMARK  9 active torsions:
REMARK  status: ('A' for Active; 'I' for Inactive)
REMARK    1  A    between atoms: C_6  and  C_7 
REMARK       I    between atoms: C_7  and  N_8 
REMARK    2  A    between atoms: N_8  and  C_9 
REMARK    3  A    between atoms: C_9  and  C_10 
REMARK    4  A    between atoms: N_15  and  C_17 
REMARK    5  A    between atoms: C_17  and  C_18 
REMARK    6  A    between atoms: C_21  and  C_22 
REMARK    7  A    between atoms: C_22  and  C_23 
REMARK    8  A    between atoms: C_23  and  C_24 
REMARK    9  A    between atoms: C_24  and  O_25 
ROOT
HETATM    1  C   UNL     1     -41.683  57.364 -53.060  1.00  0.00     0.140 C 
HETATM    2  O   UNL     1     -42.893  58.099 -52.785  1.00  0.00    -0.373 OA
HETATM    3  C   UNL     1     -42.765  59.450 -53.269  1.00  0.00     0.064 C 
HETATM    4  C   UNL     1     -42.937  60.374 -52.057  1.00  0.00     0.066 C 
HETATM    5  C   UNL     1     -44.326  60.222 -51.449  1.00  0.00     0.238 C 
HETATM    6  N   UNL     1     -45.402  60.477 -52.479  1.00  0.00    -0.067 N 
HETATM    7  H   UNL     1     -46.276  60.192 -52.022  1.00  0.00     0.280 HD
HETATM    8  C   UNL     1     -45.252  59.555 -53.669  1.00  0.00     0.238 C 
HETATM    9  C   UNL     1     -43.873  59.714 -54.292  1.00  0.00     0.066 C 
HETATM   10  C   UNL     1     -41.373  59.561 -53.893  1.00  0.00     0.041 C 
HETATM   11  C   UNL     1     -40.613  58.426 -53.246  1.00  0.00     0.036 C 
ENDROOT
BRANCH   1  12
HETATM   12  C   UNL     1     -41.872  56.472 -54.303  1.00  0.00     0.155 C 
BRANCH  12  13
HETATM   13  N   UNL     1     -41.219  55.183 -54.155  1.00  0.00    -0.353 N 
HETATM   14  C   UNL     1     -41.784  54.133 -53.465  1.00  0.00     0.270 C 
HETATM   15  O   UNL     1     -42.908  54.203 -52.973  1.00  0.00    -0.266 OA
HETATM   16  H   UNL     1     -40.302  55.064 -54.561  1.00  0.00     0.162 HD
BRANCH  14  17
HETATM   17  C   UNL     1     -40.954  52.955 -53.362  1.00  0.00     0.122 A 
HETATM   18  N   UNL     1     -40.131  52.675 -52.295  1.00  0.00    -0.269 N 
HETATM   19  N   UNL     1     -39.407  51.551 -52.444  1.00  0.00    -0.177 NA
HETATM   20  C   UNL     1     -39.989  53.429 -51.069  1.00  0.00     0.180 C 
HETATM   21  C   UNL     1     -39.803  51.057 -53.619  1.00  0.00     0.053 A 
HETATM   22  C   UNL     1     -39.235  49.788 -54.136  1.00  0.00     0.072 C 
HETATM   23  C   UNL     1     -40.761  51.893 -54.232  1.00  0.00     0.065 A 
ENDBRANCH  14  17
ENDBRANCH  12  13
ENDBRANCH   1  12
BRANCH   6  24
HETATM   24  C   UNL     1     -45.622  61.923 -52.863  1.00  0.00     0.273 C 
BRANCH  24  25
HETATM   25  C   UNL     1     -47.016  62.203 -53.357  1.00  0.00    -0.033 A 
HETATM   26  C   UNL     1     -48.119  62.021 -52.507  1.00  0.00     0.010 A 
HETATM   27  C   UNL     1     -49.417  62.221 -52.980  1.00  0.00     0.021 A 
HETATM   28  C   UNL     1     -49.626  62.609 -54.302  1.00  0.00     0.017 A 
HETATM   29  C   UNL     1     -48.536  62.811 -55.151  1.00  0.00     0.021 A 
HETATM   30  C   UNL     1     -47.236  62.611 -54.682  1.00  0.00     0.010 A 
BRANCH  28  31
HETATM   31  C   UNL     1     -50.954  62.787 -54.794  1.00  0.00    -0.064 C 
BRANCH  31  32
HETATM   32  C   UNL     1     -52.157  62.971 -55.263  1.00  0.00    -0.064 C 
BRANCH  32  33
HETATM   33  C   UNL     1     -53.559  63.184 -55.810  1.00  0.00     0.114 C 
HETATM   34  C   UNL     1     -54.526  62.183 -55.186  1.00  0.00     0.060 C 
HETATM   35  C   UNL     1     -54.007  64.618 -55.551  1.00  0.00     0.060 C 
BRANCH  33  36
HETATM   36  O   UNL     1     -53.525  62.979 -57.219  1.00  0.00    -0.378 OA
HETATM   37  H   UNL     1     -52.718  63.404 -57.553  1.00  0.00     0.211 HD
ENDBRANCH  33  36
ENDBRANCH  32  33
ENDBRANCH  31  32
ENDBRANCH  28  31
ENDBRANCH  24  25
ENDBRANCH   6  24
TORSDOF 9
ENDMDL
MODEL 8
REMARK VINA RESULT:      -6.6      3.966      9.717
REMARK  9 active torsions:
REMARK  status: ('A' for Active; 'I' for Inactive)
REMARK    1  A    between atoms: C_6  and  C_7 
REMARK       I    between atoms: C_7  and  N_8 
REMARK    2  A    between atoms: N_8  and  C_9 
REMARK    3  A    between atoms: C_9  and  C_10 
REMARK    4  A    between atoms: N_15  and  C_17 
REMARK    5  A    between atoms: C_17  and  C_18 
REMARK    6  A    between atoms: C_21  and  C_22 
REMARK    7  A    between atoms: C_22  and  C_23 
REMARK    8  A    between atoms: C_23  and  C_24 
REMARK    9  A    between atoms: C_24  and  O_25 
ROOT
HETATM    1  C   UNL     1     -44.610  62.287 -57.821  1.00  0.00     0.140 C 
HETATM    2  O   UNL     1     -43.786  61.365 -57.078  1.00  0.00    -0.373 OA
HETATM    3  C   UNL     1     -44.556  60.766 -56.018  1.00  0.00     0.064 C 
HETATM    4  C   UNL     1     -43.857  61.127 -54.702  1.00  0.00     0.066 C 
HETATM    5  C   UNL     1     -42.452  60.539 -54.652  1.00  0.00     0.238 C 
HETATM    6  N   UNL     1     -42.481  59.042 -54.853  1.00  0.00    -0.067 N 
HETATM    7  H   UNL     1     -41.497  58.773 -54.968  1.00  0.00     0.280 HD
HETATM    8  C   UNL     1     -43.151  58.678 -56.160  1.00  0.00     0.238 C 
HETATM    9  C   UNL     1     -44.561  59.247 -56.210  1.00  0.00     0.066 C 
HETATM   10  C   UNL     1     -45.964  61.358 -56.112  1.00  0.00     0.041 C 
HETATM   11  C   UNL     1     -45.748  62.642 -56.880  1.00  0.00     0.036 C 
ENDROOT
BRANCH   1  12
HETATM   12  C   UNL     1     -45.091  61.633 -59.132  1.00  0.00     0.155 C 
BRANCH  12  13
HETATM   13  N   UNL     1     -44.708  60.234 -59.217  1.00  0.00    -0.353 N 
HETATM   14  C   UNL     1     -44.610  59.556 -60.413  1.00  0.00     0.270 C 
HETATM   15  O   UNL     1     -44.789  60.111 -61.496  1.00  0.00    -0.266 OA
HETATM   16  H   UNL     1     -44.527  59.736 -58.357  1.00  0.00     0.162 HD
BRANCH  14  17
HETATM   17  C   UNL     1     -44.288  58.153 -60.293  1.00  0.00     0.122 A 
HETATM   18  N   UNL     1     -43.013  57.640 -60.366  1.00  0.00    -0.269 N 
HETATM   19  N   UNL     1     -42.960  56.298 -60.286  1.00  0.00    -0.177 NA
HETATM   20  C   UNL     1     -41.773  58.373 -60.495  1.00  0.00     0.180 C 
HETATM   21  C   UNL     1     -44.229  55.927 -60.108  1.00  0.00     0.053 A 
HETATM   22  C   UNL     1     -44.585  54.495 -59.955  1.00  0.00     0.072 C 
HETATM   23  C   UNL     1     -45.096  57.042 -60.108  1.00  0.00     0.065 A 
ENDBRANCH  14  17
ENDBRANCH  12  13
ENDBRANCH   1  12
BRANCH   6  24
HETATM   24  C   UNL     1     -42.970  58.225 -53.679  1.00  0.00     0.273 C 
BRANCH  24  25
HETATM   25  C   UNL     1     -42.429  56.821 -53.664  1.00  0.00    -0.033 A 
HETATM   26  C   UNL     1     -41.091  56.573 -54.010  1.00  0.00     0.010 A 
HETATM   27  C   UNL     1     -40.601  55.266 -54.057  1.00  0.00     0.021 A 
HETATM   28  C   UNL     1     -41.441  54.196 -53.753  1.00  0.00     0.017 A 
HETATM   29  C   UNL     1     -42.768  54.432 -53.389  1.00  0.00     0.021 A 
HETATM   30  C   UNL     1     -43.261  55.738 -53.343  1.00  0.00     0.010 A 
BRANCH  28  31
HETATM   31  C   UNL     1     -40.950  52.858 -53.826  1.00  0.00    -0.064 C 
BRANCH  31  32
HETATM   32  C   UNL     1     -40.501  51.634 -53.863  1.00  0.00    -0.064 C 
BRANCH  32  33
HETATM   33  C   UNL     1     -39.977  50.208 -53.905  1.00  0.00     0.114 C 
HETATM   34  C   UNL     1     -38.671  50.150 -54.691  1.00  0.00     0.060 C 
HETATM   35  C   UNL     1     -39.792  49.677 -52.488  1.00  0.00     0.060 C 
BRANCH  33  36
HETATM   36  O   UNL     1     -40.947  49.395 -54.559  1.00  0.00    -0.378 OA
HETATM   37  H   UNL     1     -40.579  48.498 -54.617  1.00  0.00     0.211 HD
ENDBRANCH  33  36
ENDBRANCH  32  33
ENDBRANCH  31  32
ENDBRANCH  28  31
ENDBRANCH  24  25
ENDBRANCH   6  24
TORSDOF 9
ENDMDL
MODEL 9
REMARK VINA RESULT:      -6.6      4.068     10.115
REMARK  9 active torsions:
REMARK  status: ('A' for Active; 'I' for Inactive)
REMARK    1  A    between atoms: C_6  and  C_7 
REMARK       I    between atoms: C_7  and  N_8 
REMARK    2  A    between atoms: N_8  and  C_9 
REMARK    3  A    between atoms: C_9  and  C_10 
REMARK    4  A    between atoms: N_15  and  C_17 
REMARK    5  A    between atoms: C_17  and  C_18 
REMARK    6  A    between atoms: C_21  and  C_22 
REMARK    7  A    between atoms: C_22  and  C_23 
REMARK    8  A    between atoms: C_23  and  C_24 
REMARK    9  A    between atoms: C_24  and  O_25 
ROOT
HETATM    1  C   UNL     1     -43.727  60.712 -60.332  1.00  0.00     0.140 C 
HETATM    2  O   UNL     1     -43.989  59.591 -59.463  1.00  0.00    -0.373 OA
HETATM    3  C   UNL     1     -43.011  58.557 -59.691  1.00  0.00     0.064 C 
HETATM    4  C   UNL     1     -43.781  57.306 -60.132  1.00  0.00     0.066 C 
HETATM    5  C   UNL     1     -44.722  56.830 -59.031  1.00  0.00     0.238 C 
HETATM    6  N   UNL     1     -43.971  56.575 -57.745  1.00  0.00    -0.067 N 
HETATM    7  H   UNL     1     -44.701  56.424 -57.039  1.00  0.00     0.280 HD
HETATM    8  C   UNL     1     -43.225  57.810 -57.292  1.00  0.00     0.238 C 
HETATM    9  C   UNL     1     -42.270  58.282 -58.380  1.00  0.00     0.066 C 
HETATM   10  C   UNL     1     -42.071  59.076 -60.780  1.00  0.00     0.041 C 
HETATM   11  C   UNL     1     -42.894  60.142 -61.467  1.00  0.00     0.036 C 
ENDROOT
BRANCH   1  12
HETATM   12  C   UNL     1     -43.004  61.830 -59.555  1.00  0.00     0.155 C 
BRANCH  12  13
HETATM   13  N   UNL     1     -43.234  61.737 -58.123  1.00  0.00    -0.353 N 
HETATM   14  C   UNL     1     -42.218  61.540 -57.213  1.00  0.00     0.270 C 
HETATM   15  O   UNL     1     -41.038  61.486 -57.552  1.00  0.00    -0.266 OA
HETATM   16  H   UNL     1     -44.185  61.798 -57.788  1.00  0.00     0.162 HD
BRANCH  14  17
HETATM   17  C   UNL     1     -42.648  61.400 -55.841  1.00  0.00     0.122 A 
HETATM   18  N   UNL     1     -43.309  62.376 -55.131  1.00  0.00    -0.269 N 
HETATM   19  N   UNL     1     -43.558  62.044 -53.851  1.00  0.00    -0.177 NA
HETATM   20  C   UNL     1     -43.762  63.662 -55.611  1.00  0.00     0.180 C 
HETATM   21  C   UNL     1     -43.091  60.799 -53.735  1.00  0.00     0.053 A 
HETATM   22  C   UNL     1     -43.200  60.067 -52.450  1.00  0.00     0.072 C 
HETATM   23  C   UNL     1     -42.512  60.353 -54.943  1.00  0.00     0.065 A 
ENDBRANCH  14  17
ENDBRANCH  12  13
ENDBRANCH   1  12
BRANCH   6  24
HETATM   24  C   UNL     1     -43.132  55.318 -57.707  1.00  0.00     0.273 C 
BRANCH  24  25
HETATM   25  C   UNL     1     -42.670  54.952 -56.322  1.00  0.00    -0.033 A 
HETATM   26  C   UNL     1     -43.598  54.546 -55.350  1.00  0.00     0.010 A 
HETATM   27  C   UNL     1     -43.182  54.264 -54.047  1.00  0.00     0.021 A 
HETATM   28  C   UNL     1     -41.836  54.380 -53.704  1.00  0.00     0.017 A 
HETATM   29  C   UNL     1     -40.902  54.765 -54.668  1.00  0.00     0.021 A 
HETATM   30  C   UNL     1     -41.315  55.048 -55.972  1.00  0.00     0.010 A 
BRANCH  28  31
HETATM   31  C   UNL     1     -41.413  54.119 -52.366  1.00  0.00    -0.064 C 
BRANCH  31  32
HETATM   32  C   UNL     1     -41.056  53.881 -51.135  1.00  0.00    -0.064 C 
BRANCH  32  33
HETATM   33  C   UNL     1     -40.639  53.603 -49.700  1.00  0.00     0.114 C 
HETATM   34  C   UNL     1     -40.555  52.100 -49.458  1.00  0.00     0.060 C 
HETATM   35  C   UNL     1     -39.309  54.286 -49.402  1.00  0.00     0.060 C 
BRANCH  33  36
HETATM   36  O   UNL     1     -41.625  54.157 -48.834  1.00  0.00    -0.378 OA
HETATM   37  H   UNL     1     -41.178  54.398 -48.005  1.00  0.00     0.211 HD
ENDBRANCH  33  36
ENDBRANCH  32  33
ENDBRANCH  31  32
ENDBRANCH  28  31
ENDBRANCH  24  25
ENDBRANCH   6  24
TORSDOF 9
ENDMDL
MODEL 10
REMARK VINA RESULT:      -6.5      1.747      2.284
REMARK  9 active torsions:
REMARK  status: ('A' for Active; 'I' for Inactive)
REMARK    1  A    between atoms: C_6  and  C_7 
REMARK       I    between atoms: C_7  and  N_8 
REMARK    2  A    between atoms: N_8  and  C_9 
REMARK    3  A    between atoms: C_9  and  C_10 
REMARK    4  A    between atoms: N_15  and  C_17 
REMARK    5  A    between atoms: C_17  and  C_18 
REMARK    6  A    between atoms: C_21  and  C_22 
REMARK    7  A    between atoms: C_22  and  C_23 
REMARK    8  A    between atoms: C_23  and  C_24 
REMARK    9  A    between atoms: C_24  and  O_25 
ROOT
HETATM    1  C   UNL     1     -43.646  58.138 -51.752  1.00  0.00     0.140 C 
HETATM    2  O   UNL     1     -43.714  57.498 -53.043  1.00  0.00    -0.373 OA
HETATM    3  C   UNL     1     -43.194  58.382 -54.055  1.00  0.00     0.064 C 
HETATM    4  C   UNL     1     -44.327  58.622 -55.060  1.00  0.00     0.066 C 
HETATM    5  C   UNL     1     -44.738  57.321 -55.739  1.00  0.00     0.238 C 
HETATM    6  N   UNL     1     -43.556  56.659 -56.408  1.00  0.00    -0.067 N 
HETATM    7  H   UNL     1     -43.897  55.730 -56.683  1.00  0.00     0.280 HD
HETATM    8  C   UNL     1     -42.442  56.399 -55.418  1.00  0.00     0.238 C 
HETATM    9  C   UNL     1     -42.013  57.697 -54.749  1.00  0.00     0.066 C 
HETATM   10  C   UNL     1     -42.768  59.665 -53.338  1.00  0.00     0.041 C 
HETATM   11  C   UNL     1     -43.566  59.624 -52.056  1.00  0.00     0.036 C 
ENDROOT
BRANCH   1  12
HETATM   12  C   UNL     1     -42.428  57.617 -50.963  1.00  0.00     0.155 C 
BRANCH  12  13
HETATM   13  N   UNL     1     -41.862  56.419 -51.561  1.00  0.00    -0.353 N 
HETATM   14  C   UNL     1     -42.190  55.147 -51.142  1.00  0.00     0.270 C 
HETATM   15  O   UNL     1     -43.029  54.943 -50.268  1.00  0.00    -0.266 OA
HETATM   16  H   UNL     1     -41.184  56.530 -52.301  1.00  0.00     0.162 HD
BRANCH  14  17
HETATM   17  C   UNL     1     -41.471  54.084 -51.805  1.00  0.00     0.122 A 
HETATM   18  N   UNL     1     -40.412  53.400 -51.253  1.00  0.00    -0.269 N 
HETATM   19  N   UNL     1     -39.860  52.492 -52.077  1.00  0.00    -0.177 NA
HETATM   20  C   UNL     1     -39.870  53.541 -49.920  1.00  0.00     0.180 C 
HETATM   21  C   UNL     1     -40.608  52.549 -53.181  1.00  0.00     0.053 A 
HETATM   22  C   UNL     1     -40.320  51.667 -54.338  1.00  0.00     0.072 C 
HETATM   23  C   UNL     1     -41.621  53.525 -53.066  1.00  0.00     0.065 A 
ENDBRANCH  14  17
ENDBRANCH  12  13
ENDBRANCH   1  12
BRANCH   6  24
HETATM   24  C   UNL     1     -43.081  57.294 -57.695  1.00  0.00     0.273 C 
BRANCH  24  25
HETATM   25  C   UNL     1     -44.187  57.524 -58.689  1.00  0.00    -0.033 A 
HETATM   26  C   UNL     1     -44.589  58.831 -59.011  1.00  0.00     0.010 A 
HETATM   27  C   UNL     1     -45.655  59.048 -59.887  1.00  0.00     0.021 A 
HETATM   28  C   UNL     1     -46.326  57.964 -60.452  1.00  0.00     0.017 A 
HETATM   29  C   UNL     1     -45.922  56.662 -60.153  1.00  0.00     0.021 A 
HETATM   30  C   UNL     1     -44.857  56.441 -59.278  1.00  0.00     0.010 A 
BRANCH  28  31
HETATM   31  C   UNL     1     -47.433  58.185 -61.325  1.00  0.00    -0.064 C 
BRANCH  31  32
HETATM   32  C   UNL     1     -48.463  58.385 -62.099  1.00  0.00    -0.064 C 
BRANCH  32  33
HETATM   33  C   UNL     1     -49.663  58.618 -63.002  1.00  0.00     0.114 C 
HETATM   34  C   UNL     1     -50.957  58.446 -62.212  1.00  0.00     0.060 C 
HETATM   35  C   UNL     1     -49.581  60.005 -63.630  1.00  0.00     0.060 C 
BRANCH  33  36
HETATM   36  O   UNL     1     -49.629  57.654 -64.050  1.00  0.00    -0.378 OA
HETATM   37  H   UNL     1     -50.451  57.140 -63.995  1.00  0.00     0.211 HD
ENDBRANCH  33  36
ENDBRANCH  32  33
ENDBRANCH  31  32
ENDBRANCH  28  31
ENDBRANCH  24  25
ENDBRANCH   6  24
TORSDOF 9
ENDMDL
