MODEL 1
REMARK VINA RESULT:      -9.4      0.000      0.000
REMARK  2 active torsions:
REMARK  status: ('A' for Active; 'I' for Inactive)
REMARK    1  A    between atoms: C_2  and  C_3 
REMARK    2  A    between atoms: C_3  and  C_4 
ROOT
HETATM    1  C   UNL     1     -43.443  56.012 -53.557  1.00  0.00     0.085 A 
HETATM    2  S   UNL     1     -42.658  55.749 -52.053  1.00  0.00    -0.063 SA
HETATM    3  C   UNL     1     -41.791  54.419 -52.658  1.00  0.00     0.111 A 
HETATM    4  C   UNL     1     -42.051  54.171 -53.997  1.00  0.00     0.028 A 
HETATM    5  C   UNL     1     -42.991  55.125 -54.519  1.00  0.00     0.060 A 
HETATM    6  N   UNL     1     -43.373  55.135 -55.819  1.00  0.00    -0.397 N 
HETATM    7  N   UNL     1     -40.955  53.730 -51.858  1.00  0.00    -0.245 NA
HETATM    8  C   UNL     1     -40.316  52.693 -52.445  1.00  0.00     0.042 A 
HETATM    9  C   UNL     1     -40.487  52.321 -53.781  1.00  0.00    -0.033 A 
HETATM   10  C   UNL     1     -39.765  51.147 -54.389  1.00  0.00     0.040 C 
HETATM   11  C   UNL     1     -40.155  49.813 -53.753  1.00  0.00     0.005 C 
HETATM   12  C   UNL     1     -39.457  49.533 -52.422  1.00  0.00     0.001 C 
HETATM   13  C   UNL     1     -39.822  50.494 -51.290  1.00  0.00     0.006 C 
HETATM   14  C   UNL     1     -39.377  51.933 -51.539  1.00  0.00     0.060 C 
HETATM   15  C   UNL     1     -41.365  53.079 -54.571  1.00  0.00     0.026 A 
HETATM   16  H   UNL     1     -42.878  54.580 -56.511  1.00  0.00     0.156 HD
HETATM   17  H   UNL     1     -43.838  55.936 -56.242  1.00  0.00     0.156 HD
ENDROOT
BRANCH   1  18
HETATM   18  C   UNL     1     -44.413  57.091 -53.630  1.00  0.00     0.201 C 
HETATM   19  O   UNL     1     -45.270  57.177 -54.510  1.00  0.00    -0.286 OA
BRANCH  18  20
HETATM   20  C   UNL     1     -44.396  58.171 -52.599  1.00  0.00     0.018 A 
HETATM   21  C   UNL     1     -43.407  59.178 -52.699  1.00  0.00     0.018 A 
HETATM   22  C   UNL     1     -43.339  60.211 -51.759  1.00  0.00     0.040 A 
HETATM   23  C   UNL     1     -44.257  60.203 -50.733  1.00  0.00     0.105 A 
HETATM   24  C   UNL     1     -45.211  59.217 -50.622  1.00  0.00     0.106 A 
HETATM   25  O   UNL     1     -44.341  61.121 -49.734  1.00  0.00    -0.323 OA
HETATM   26  C   UNL     1     -45.306  58.184 -51.531  1.00  0.00     0.055 A 
HETATM   27  O   UNL     1     -46.011  59.392 -49.535  1.00  0.00    -0.323 OA
HETATM   28  C   UNL     1     -45.449  60.596 -48.972  1.00  0.00     0.352 A 
ENDBRANCH  18  20
ENDBRANCH   1  18
TORSDOF 2
ENDMDL
MODEL 2
REMARK VINA RESULT:      -9.1      1.787      2.145
REMARK  2 active torsions:
REMARK  status: ('A' for Active; 'I' for Inactive)
REMARK    1  A    between atoms: C_2  and  C_3 
REMARK    2  A    between atoms: C_3  and  C_4 
ROOT
HETATM    1  C   UNL     1     -43.257  56.047 -51.673  1.00  0.00     0.085 A 
HETATM    2  S   UNL     1     -42.250  55.344 -50.474  1.00  0.00    -0.063 SA
HETATM    3  C   UNL     1     -41.577  54.247 -51.583  1.00  0.00     0.111 A 
HETATM    4  C   UNL     1     -42.070  54.409 -52.868  1.00  0.00     0.028 A 
HETATM    5  C   UNL     1     -43.026  55.482 -52.915  1.00  0.00     0.060 A 
HETATM    6  N   UNL     1     -43.617  55.881 -54.067  1.00  0.00    -0.397 N 
HETATM    7  N   UNL     1     -40.662  53.345 -51.178  1.00  0.00    -0.245 NA
HETATM    8  C   UNL     1     -40.193  52.524 -52.145  1.00  0.00     0.042 A 
HETATM    9  C   UNL     1     -40.606  52.566 -53.479  1.00  0.00    -0.033 A 
HETATM   10  C   UNL     1     -40.067  51.619 -54.519  1.00  0.00     0.040 C 
HETATM   11  C   UNL     1     -40.425  50.160 -54.240  1.00  0.00     0.005 C 
HETATM   12  C   UNL     1     -39.533  49.493 -53.193  1.00  0.00     0.001 C 
HETATM   13  C   UNL     1     -39.646  50.077 -51.785  1.00  0.00     0.006 C 
HETATM   14  C   UNL     1     -39.163  51.522 -51.679  1.00  0.00     0.060 C 
HETATM   15  C   UNL     1     -41.556  53.531 -53.846  1.00  0.00     0.026 A 
HETATM   16  H   UNL     1     -43.278  55.551 -54.967  1.00  0.00     0.156 HD
HETATM   17  H   UNL     1     -44.097  56.775 -54.150  1.00  0.00     0.156 HD
ENDROOT
BRANCH   1  18
HETATM   18  C   UNL     1     -44.159  57.108 -51.257  1.00  0.00     0.201 C 
HETATM   19  O   UNL     1     -45.154  56.919 -50.558  1.00  0.00    -0.286 OA
BRANCH  18  20
HETATM   20  C   UNL     1     -43.891  58.514 -51.682  1.00  0.00     0.018 A 
HETATM   21  C   UNL     1     -42.722  59.148 -51.200  1.00  0.00     0.018 A 
HETATM   22  C   UNL     1     -42.421  60.467 -51.559  1.00  0.00     0.040 A 
HETATM   23  C   UNL     1     -43.309  61.122 -52.383  1.00  0.00     0.105 A 
HETATM   24  C   UNL     1     -44.457  60.515 -52.840  1.00  0.00     0.106 A 
HETATM   25  O   UNL     1     -43.182  62.399 -52.832  1.00  0.00    -0.323 OA
HETATM   26  C   UNL     1     -44.783  59.218 -52.506  1.00  0.00     0.055 A 
HETATM   27  O   UNL     1     -45.196  61.339 -53.632  1.00  0.00    -0.323 OA
HETATM   28  C   UNL     1     -44.387  62.533 -53.616  1.00  0.00     0.352 A 
ENDBRANCH  18  20
ENDBRANCH   1  18
TORSDOF 2
ENDMDL
MODEL 3
REMARK VINA RESULT:      -8.7      1.900      3.192
REMARK  2 active torsions:
REMARK  status: ('A' for Active; 'I' for Inactive)
REMARK    1  A    between atoms: C_2  and  C_3 
REMARK    2  A    between atoms: C_3  and  C_4 
ROOT
HETATM    1  C   UNL     1     -42.048  58.080 -52.105  1.00  0.00     0.085 A 
HETATM    2  S   UNL     1     -42.352  57.309 -53.608  1.00  0.00    -0.063 SA
HETATM    3  C   UNL     1     -41.827  55.803 -53.022  1.00  0.00     0.111 A 
HETATM    4  C   UNL     1     -41.448  55.846 -51.690  1.00  0.00     0.028 A 
HETATM    5  C   UNL     1     -41.610  57.172 -51.156  1.00  0.00     0.060 A 
HETATM    6  N   UNL     1     -41.360  57.471 -49.858  1.00  0.00    -0.397 N 
HETATM    7  N   UNL     1     -41.814  54.725 -53.829  1.00  0.00    -0.245 NA
HETATM    8  C   UNL     1     -41.380  53.579 -53.257  1.00  0.00     0.042 A 
HETATM    9  C   UNL     1     -40.957  53.477 -51.930  1.00  0.00    -0.033 A 
HETATM   10  C   UNL     1     -40.466  52.181 -51.339  1.00  0.00     0.040 C 
HETATM   11  C   UNL     1     -39.186  51.671 -52.001  1.00  0.00     0.005 C 
HETATM   12  C   UNL     1     -39.420  50.958 -53.332  1.00  0.00     0.001 C 
HETATM   13  C   UNL     1     -39.972  51.843 -54.449  1.00  0.00     0.006 C 
HETATM   14  C   UNL     1     -41.376  52.377 -54.171  1.00  0.00     0.060 C 
HETATM   15  C   UNL     1     -41.000  54.630 -51.131  1.00  0.00     0.026 A 
HETATM   16  H   UNL     1     -41.215  56.733 -49.174  1.00  0.00     0.156 HD
HETATM   17  H   UNL     1     -41.697  58.328 -49.424  1.00  0.00     0.156 HD
ENDROOT
BRANCH   1  18
HETATM   18  C   UNL     1     -42.301  59.508 -52.017  1.00  0.00     0.201 C 
HETATM   19  O   UNL     1     -41.658  60.351 -52.642  1.00  0.00    -0.286 OA
BRANCH  18  20
HETATM   20  C   UNL     1     -43.392  60.013 -51.132  1.00  0.00     0.018 A 
HETATM   21  C   UNL     1     -44.633  59.332 -51.144  1.00  0.00     0.018 A 
HETATM   22  C   UNL     1     -45.694  59.763 -50.341  1.00  0.00     0.040 A 
HETATM   23  C   UNL     1     -45.489  60.873 -49.554  1.00  0.00     0.105 A 
HETATM   24  C   UNL     1     -44.290  61.549 -49.552  1.00  0.00     0.106 A 
HETATM   25  O   UNL     1     -46.402  61.432 -48.716  1.00  0.00    -0.323 OA
HETATM   26  C   UNL     1     -43.224  61.152 -50.331  1.00  0.00     0.055 A 
HETATM   27  O   UNL     1     -44.302  62.620 -48.711  1.00  0.00    -0.323 OA
HETATM   28  C   UNL     1     -45.646  62.545 -48.191  1.00  0.00     0.352 A 
ENDBRANCH  18  20
ENDBRANCH   1  18
TORSDOF 2
ENDMDL
MODEL 4
REMARK VINA RESULT:      -8.6      2.928      4.186
REMARK  2 active torsions:
REMARK  status: ('A' for Active; 'I' for Inactive)
REMARK    1  A    between atoms: C_2  and  C_3 
REMARK    2  A    between atoms: C_3  and  C_4 
ROOT
HETATM    1  C   UNL     1     -43.369  55.954 -54.431  1.00  0.00     0.085 A 
HETATM    2  S   UNL     1     -42.740  55.991 -52.835  1.00  0.00    -0.063 SA
HETATM    3  C   UNL     1     -41.808  54.595 -53.093  1.00  0.00     0.111 A 
HETATM    4  C   UNL     1     -41.928  54.099 -54.382  1.00  0.00     0.028 A 
HETATM    5  C   UNL     1     -42.816  54.916 -55.162  1.00  0.00     0.060 A 
HETATM    6  N   UNL     1     -43.064  54.678 -56.473  1.00  0.00    -0.397 N 
HETATM    7  N   UNL     1     -41.053  54.086 -52.100  1.00  0.00    -0.245 NA
HETATM    8  C   UNL     1     -40.351  52.975 -52.419  1.00  0.00     0.042 A 
HETATM    9  C   UNL     1     -40.383  52.360 -53.672  1.00  0.00    -0.033 A 
HETATM   10  C   UNL     1     -39.596  51.112 -53.977  1.00  0.00     0.040 C 
HETATM   11  C   UNL     1     -40.040  49.909 -53.147  1.00  0.00     0.005 C 
HETATM   12  C   UNL     1     -39.480  49.896 -51.725  1.00  0.00     0.001 C 
HETATM   13  C   UNL     1     -39.964  51.039 -50.833  1.00  0.00     0.006 C 
HETATM   14  C   UNL     1     -39.505  52.419 -51.299  1.00  0.00     0.060 C 
HETATM   15  C   UNL     1     -41.180  52.937 -54.672  1.00  0.00     0.026 A 
HETATM   16  H   UNL     1     -42.497  54.017 -56.997  1.00  0.00     0.156 HD
HETATM   17  H   UNL     1     -43.488  55.376 -57.081  1.00  0.00     0.156 HD
ENDROOT
BRANCH   1  18
HETATM   18  C   UNL     1     -44.333  56.977 -54.799  1.00  0.00     0.201 C 
HETATM   19  O   UNL     1     -45.468  57.042 -54.329  1.00  0.00    -0.286 OA
BRANCH  18  20
HETATM   20  C   UNL     1     -43.956  58.020 -55.799  1.00  0.00     0.018 A 
HETATM   21  C   UNL     1     -44.944  58.461 -56.711  1.00  0.00     0.018 A 
HETATM   22  C   UNL     1     -44.649  59.432 -57.674  1.00  0.00     0.040 A 
HETATM   23  C   UNL     1     -43.365  59.929 -57.705  1.00  0.00     0.105 A 
HETATM   24  C   UNL     1     -42.396  59.492 -56.832  1.00  0.00     0.106 A 
HETATM   25  O   UNL     1     -42.900  60.872 -58.568  1.00  0.00    -0.323 OA
HETATM   26  C   UNL     1     -42.654  58.536 -55.871  1.00  0.00     0.055 A 
HETATM   27  O   UNL     1     -41.199  60.105 -57.039  1.00  0.00    -0.323 OA
HETATM   28  C   UNL     1     -41.523  60.972 -58.145  1.00  0.00     0.352 A 
ENDBRANCH  18  20
ENDBRANCH   1  18
TORSDOF 2
ENDMDL
MODEL 5
REMARK VINA RESULT:      -8.6      3.289      8.543
REMARK  2 active torsions:
REMARK  status: ('A' for Active; 'I' for Inactive)
REMARK    1  A    between atoms: C_2  and  C_3 
REMARK    2  A    between atoms: C_3  and  C_4 
ROOT
HETATM    1  C   UNL     1     -41.718  55.901 -53.494  1.00  0.00     0.085 A 
HETATM    2  S   UNL     1     -40.924  57.342 -53.006  1.00  0.00    -0.063 SA
HETATM    3  C   UNL     1     -42.359  58.006 -52.386  1.00  0.00     0.111 A 
HETATM    4  C   UNL     1     -43.444  57.152 -52.505  1.00  0.00     0.028 A 
HETATM    5  C   UNL     1     -43.052  55.915 -53.124  1.00  0.00     0.060 A 
HETATM    6  N   UNL     1     -43.916  54.887 -53.308  1.00  0.00    -0.397 N 
HETATM    7  N   UNL     1     -42.361  59.241 -51.847  1.00  0.00    -0.245 NA
HETATM    8  C   UNL     1     -43.557  59.668 -51.382  1.00  0.00     0.042 A 
HETATM    9  C   UNL     1     -44.735  58.920 -51.445  1.00  0.00    -0.033 A 
HETATM   10  C   UNL     1     -46.050  59.443 -50.929  1.00  0.00     0.040 C 
HETATM   11  C   UNL     1     -46.545  60.669 -51.695  1.00  0.00     0.005 C 
HETATM   12  C   UNL     1     -45.876  61.977 -51.271  1.00  0.00     0.001 C 
HETATM   13  C   UNL     1     -44.378  62.057 -51.564  1.00  0.00     0.006 C 
HETATM   14  C   UNL     1     -43.543  61.051 -50.775  1.00  0.00     0.060 C 
HETATM   15  C   UNL     1     -44.673  57.637 -52.010  1.00  0.00     0.026 A 
HETATM   16  H   UNL     1     -44.828  54.887 -52.859  1.00  0.00     0.156 HD
HETATM   17  H   UNL     1     -43.598  53.942 -53.517  1.00  0.00     0.156 HD
ENDROOT
BRANCH   1  18
HETATM   18  C   UNL     1     -40.925  54.892 -54.174  1.00  0.00     0.201 C 
HETATM   19  O   UNL     1     -40.539  55.001 -55.338  1.00  0.00    -0.286 OA
BRANCH  18  20
HETATM   20  C   UNL     1     -40.539  53.644 -53.451  1.00  0.00     0.018 A 
HETATM   21  C   UNL     1     -40.353  53.711 -52.050  1.00  0.00     0.018 A 
HETATM   22  C   UNL     1     -39.985  52.576 -51.320  1.00  0.00     0.040 A 
HETATM   23  C   UNL     1     -39.800  51.402 -52.016  1.00  0.00     0.105 A 
HETATM   24  C   UNL     1     -39.963  51.335 -53.381  1.00  0.00     0.106 A 
HETATM   25  O   UNL     1     -39.443  50.207 -51.476  1.00  0.00    -0.323 OA
HETATM   26  C   UNL     1     -40.325  52.435 -54.131  1.00  0.00     0.055 A 
HETATM   27  O   UNL     1     -39.725  50.087 -53.869  1.00  0.00    -0.323 OA
HETATM   28  C   UNL     1     -39.387  49.379 -52.658  1.00  0.00     0.352 A 
ENDBRANCH  18  20
ENDBRANCH   1  18
TORSDOF 2
ENDMDL
MODEL 6
REMARK VINA RESULT:      -8.2      4.110      8.128
REMARK  2 active torsions:
REMARK  status: ('A' for Active; 'I' for Inactive)
REMARK    1  A    between atoms: C_2  and  C_3 
REMARK    2  A    between atoms: C_3  and  C_4 
ROOT
HETATM    1  C   UNL     1     -42.547  56.199 -53.273  1.00  0.00     0.085 A 
HETATM    2  S   UNL     1     -41.588  57.617 -53.388  1.00  0.00    -0.063 SA
HETATM    3  C   UNL     1     -42.287  58.054 -54.873  1.00  0.00     0.111 A 
HETATM    4  C   UNL     1     -43.266  57.166 -55.290  1.00  0.00     0.028 A 
HETATM    5  C   UNL     1     -43.432  56.105 -54.333  1.00  0.00     0.060 A 
HETATM    6  N   UNL     1     -44.365  55.134 -54.477  1.00  0.00    -0.397 N 
HETATM    7  N   UNL     1     -41.879  59.164 -55.517  1.00  0.00    -0.245 NA
HETATM    8  C   UNL     1     -42.506  59.416 -56.689  1.00  0.00     0.042 A 
HETATM    9  C   UNL     1     -43.503  58.605 -57.236  1.00  0.00    -0.033 A 
HETATM   10  C   UNL     1     -44.162  58.916 -58.554  1.00  0.00     0.040 C 
HETATM   11  C   UNL     1     -43.191  58.868 -59.733  1.00  0.00     0.005 C 
HETATM   12  C   UNL     1     -42.334  60.126 -59.881  1.00  0.00     0.001 C 
HETATM   13  C   UNL     1     -41.360  60.380 -58.732  1.00  0.00     0.006 C 
HETATM   14  C   UNL     1     -42.044  60.668 -57.398  1.00  0.00     0.060 C 
HETATM   15  C   UNL     1     -43.894  57.464 -56.518  1.00  0.00     0.026 A 
HETATM   16  H   UNL     1     -45.099  55.216 -55.176  1.00  0.00     0.156 HD
HETATM   17  H   UNL     1     -44.648  54.533 -53.704  1.00  0.00     0.156 HD
ENDROOT
BRANCH   1  18
HETATM   18  C   UNL     1     -42.337  55.335 -52.123  1.00  0.00     0.201 C 
HETATM   19  O   UNL     1     -42.828  55.547 -51.015  1.00  0.00    -0.286 OA
BRANCH  18  20
HETATM   20  C   UNL     1     -41.485  54.116 -52.260  1.00  0.00     0.018 A 
HETATM   21  C   UNL     1     -40.696  53.723 -51.154  1.00  0.00     0.018 A 
HETATM   22  C   UNL     1     -39.874  52.593 -51.225  1.00  0.00     0.040 A 
HETATM   23  C   UNL     1     -39.854  51.892 -52.410  1.00  0.00     0.105 A 
HETATM   24  C   UNL     1     -40.606  52.281 -53.495  1.00  0.00     0.106 A 
HETATM   25  O   UNL     1     -39.118  50.777 -52.661  1.00  0.00    -0.323 OA
HETATM   26  C   UNL     1     -41.426  53.389 -53.459  1.00  0.00     0.055 A 
HETATM   27  O   UNL     1     -40.434  51.457 -54.565  1.00  0.00    -0.323 OA
HETATM   28  C   UNL     1     -39.483  50.512 -54.032  1.00  0.00     0.352 A 
ENDBRANCH  18  20
ENDBRANCH   1  18
TORSDOF 2
ENDMDL
MODEL 7
REMARK VINA RESULT:      -8.2      2.149      3.391
REMARK  2 active torsions:
REMARK  status: ('A' for Active; 'I' for Inactive)
REMARK    1  A    between atoms: C_2  and  C_3 
REMARK    2  A    between atoms: C_3  and  C_4 
ROOT
HETATM    1  C   UNL     1     -43.303  56.183 -53.200  1.00  0.00     0.085 A 
HETATM    2  S   UNL     1     -42.410  55.845 -51.774  1.00  0.00    -0.063 SA
HETATM    3  C   UNL     1     -41.648  54.503 -52.485  1.00  0.00     0.111 A 
HETATM    4  C   UNL     1     -42.025  54.306 -53.804  1.00  0.00     0.028 A 
HETATM    5  C   UNL     1     -42.967  55.310 -54.220  1.00  0.00     0.060 A 
HETATM    6  N   UNL     1     -43.452  55.375 -55.484  1.00  0.00    -0.397 N 
HETATM    7  N   UNL     1     -40.778  53.759 -51.776  1.00  0.00    -0.245 NA
HETATM    8  C   UNL     1     -40.230  52.718 -52.442  1.00  0.00     0.042 A 
HETATM    9  C   UNL     1     -40.524  52.393 -53.769  1.00  0.00    -0.033 A 
HETATM   10  C   UNL     1     -39.901  51.212 -54.466  1.00  0.00     0.040 C 
HETATM   11  C   UNL     1     -40.291  49.875 -53.838  1.00  0.00     0.005 C 
HETATM   12  C   UNL     1     -39.499  49.529 -52.577  1.00  0.00     0.001 C 
HETATM   13  C   UNL     1     -39.731  50.467 -51.393  1.00  0.00     0.006 C 
HETATM   14  C   UNL     1     -39.251  51.896 -51.638  1.00  0.00     0.060 C 
HETATM   15  C   UNL     1     -41.432  53.208 -54.463  1.00  0.00     0.026 A 
HETATM   16  H   UNL     1     -43.037  54.822 -56.229  1.00  0.00     0.156 HD
HETATM   17  H   UNL     1     -43.918  56.205 -55.844  1.00  0.00     0.156 HD
ENDROOT
BRANCH   1  18
HETATM   18  C   UNL     1     -44.232  57.300 -53.164  1.00  0.00     0.201 C 
HETATM   19  O   UNL     1     -45.021  57.498 -52.240  1.00  0.00    -0.286 OA
BRANCH  18  20
HETATM   20  C   UNL     1     -44.255  58.279 -54.291  1.00  0.00     0.018 A 
HETATM   21  C   UNL     1     -43.186  59.200 -54.400  1.00  0.00     0.018 A 
HETATM   22  C   UNL     1     -43.156  60.144 -55.432  1.00  0.00     0.040 A 
HETATM   23  C   UNL     1     -44.206  60.150 -56.323  1.00  0.00     0.105 A 
HETATM   24  C   UNL     1     -45.257  59.268 -56.211  1.00  0.00     0.106 A 
HETATM   25  O   UNL     1     -44.346  60.992 -57.381  1.00  0.00    -0.323 OA
HETATM   26  C   UNL     1     -45.317  58.324 -55.206  1.00  0.00     0.055 A 
HETATM   27  O   UNL     1     -46.189  59.448 -57.185  1.00  0.00    -0.323 OA
HETATM   28  C   UNL     1     -45.610  60.548 -57.918  1.00  0.00     0.352 A 
ENDBRANCH  18  20
ENDBRANCH   1  18
TORSDOF 2
ENDMDL
MODEL 8
REMARK VINA RESULT:      -8.0     16.352     18.549
REMARK  2 active torsions:
REMARK  status: ('A' for Active; 'I' for Inactive)
REMARK    1  A    between atoms: C_2  and  C_3 
REMARK    2  A    between atoms: C_3  and  C_4 
ROOT
HETATM    1  C   UNL     1     -36.534  41.140 -57.265  1.00  0.00     0.085 A 
HETATM    2  S   UNL     1     -34.997  40.375 -57.231  1.00  0.00    -0.063 SA
HETATM    3  C   UNL     1     -34.976  40.336 -55.533  1.00  0.00     0.111 A 
HETATM    4  C   UNL     1     -36.126  40.864 -54.967  1.00  0.00     0.028 A 
HETATM    5  C   UNL     1     -37.041  41.300 -55.987  1.00  0.00     0.060 A 
HETATM    6  N   UNL     1     -38.265  41.806 -55.700  1.00  0.00    -0.397 N 
HETATM    7  N   UNL     1     -33.916  39.826 -54.877  1.00  0.00    -0.245 NA
HETATM    8  C   UNL     1     -34.008  39.844 -53.527  1.00  0.00     0.042 A 
HETATM    9  C   UNL     1     -35.101  40.353 -52.822  1.00  0.00    -0.033 A 
HETATM   10  C   UNL     1     -35.153  40.367 -51.317  1.00  0.00     0.040 C 
HETATM   11  C   UNL     1     -34.075  41.252 -50.691  1.00  0.00     0.005 C 
HETATM   12  C   UNL     1     -32.697  40.595 -50.623  1.00  0.00     0.001 C 
HETATM   13  C   UNL     1     -32.056  40.300 -51.978  1.00  0.00     0.006 C 
HETATM   14  C   UNL     1     -32.816  39.264 -52.804  1.00  0.00     0.060 C 
HETATM   15  C   UNL     1     -36.181  40.865 -53.557  1.00  0.00     0.026 A 
HETATM   16  H   UNL     1     -38.650  41.735 -54.762  1.00  0.00     0.156 HD
HETATM   17  H   UNL     1     -38.997  41.888 -56.403  1.00  0.00     0.156 HD
ENDROOT
BRANCH   1  18
HETATM   18  C   UNL     1     -37.088  41.480 -58.564  1.00  0.00     0.201 C 
HETATM   19  O   UNL     1     -37.152  42.631 -58.996  1.00  0.00    -0.286 OA
BRANCH  18  20
HETATM   20  C   UNL     1     -37.615  40.398 -59.449  1.00  0.00     0.018 A 
HETATM   21  C   UNL     1     -38.523  39.464 -58.896  1.00  0.00     0.018 A 
HETATM   22  C   UNL     1     -39.046  38.426 -59.675  1.00  0.00     0.040 A 
HETATM   23  C   UNL     1     -38.635  38.343 -60.986  1.00  0.00     0.105 A 
HETATM   24  C   UNL     1     -37.739  39.238 -61.524  1.00  0.00     0.106 A 
HETATM   25  O   UNL     1     -39.035  37.405 -61.886  1.00  0.00    -0.323 OA
HETATM   26  C   UNL     1     -37.204  40.273 -60.785  1.00  0.00     0.055 A 
HETATM   27  O   UNL     1     -37.463  38.972 -62.829  1.00  0.00    -0.323 OA
HETATM   28  C   UNL     1     -38.281  37.805 -63.050  1.00  0.00     0.352 A 
ENDBRANCH  18  20
ENDBRANCH   1  18
TORSDOF 2
ENDMDL
MODEL 9
REMARK VINA RESULT:      -7.9      3.919      6.501
REMARK  2 active torsions:
REMARK  status: ('A' for Active; 'I' for Inactive)
REMARK    1  A    between atoms: C_2  and  C_3 
REMARK    2  A    between atoms: C_3  and  C_4 
ROOT
HETATM    1  C   UNL     1     -42.899  57.268 -55.467  1.00  0.00     0.085 A 
HETATM    2  S   UNL     1     -41.792  55.964 -55.613  1.00  0.00    -0.063 SA
HETATM    3  C   UNL     1     -41.961  55.544 -53.976  1.00  0.00     0.111 A 
HETATM    4  C   UNL     1     -42.868  56.349 -53.304  1.00  0.00     0.028 A 
HETATM    5  C   UNL     1     -43.431  57.331 -54.191  1.00  0.00     0.060 A 
HETATM    6  N   UNL     1     -44.385  58.209 -53.795  1.00  0.00    -0.397 N 
HETATM    7  N   UNL     1     -41.256  54.520 -53.459  1.00  0.00    -0.245 NA
HETATM    8  C   UNL     1     -41.471  54.273 -52.147  1.00  0.00     0.042 A 
HETATM    9  C   UNL     1     -42.346  55.008 -51.344  1.00  0.00    -0.033 A 
HETATM   10  C   UNL     1     -42.542  54.707 -49.881  1.00  0.00     0.040 C 
HETATM   11  C   UNL     1     -41.276  54.922 -49.053  1.00  0.00     0.005 C 
HETATM   12  C   UNL     1     -40.276  53.769 -49.141  1.00  0.00     0.001 C 
HETATM   13  C   UNL     1     -39.665  53.551 -50.524  1.00  0.00     0.006 C 
HETATM   14  C   UNL     1     -40.679  53.118 -51.582  1.00  0.00     0.060 C 
HETATM   15  C   UNL     1     -43.062  56.060 -51.937  1.00  0.00     0.026 A 
HETATM   16  H   UNL     1     -44.862  58.092 -52.904  1.00  0.00     0.156 HD
HETATM   17  H   UNL     1     -44.952  58.731 -54.460  1.00  0.00     0.156 HD
ENDROOT
BRANCH   1  18
HETATM   18  C   UNL     1     -43.141  58.081 -56.646  1.00  0.00     0.201 C 
HETATM   19  O   UNL     1     -42.685  59.214 -56.796  1.00  0.00    -0.286 OA
BRANCH  18  20
HETATM   20  C   UNL     1     -43.983  57.542 -57.755  1.00  0.00     0.018 A 
HETATM   21  C   UNL     1     -45.329  57.970 -57.844  1.00  0.00     0.018 A 
HETATM   22  C   UNL     1     -46.168  57.495 -58.857  1.00  0.00     0.040 A 
HETATM   23  C   UNL     1     -45.639  56.591 -59.751  1.00  0.00     0.105 A 
HETATM   24  C   UNL     1     -44.336  56.157 -59.660  1.00  0.00     0.106 A 
HETATM   25  O   UNL     1     -46.302  56.024 -60.794  1.00  0.00    -0.323 OA
HETATM   26  C   UNL     1     -43.483  56.606 -58.673  1.00  0.00     0.055 A 
HETATM   27  O   UNL     1     -44.019  55.262 -60.634  1.00  0.00    -0.323 OA
HETATM   28  C   UNL     1     -45.272  55.175 -61.344  1.00  0.00     0.352 A 
ENDBRANCH  18  20
ENDBRANCH   1  18
TORSDOF 2
ENDMDL
MODEL 10
REMARK VINA RESULT:      -7.9      2.529      4.406
REMARK  2 active torsions:
REMARK  status: ('A' for Active; 'I' for Inactive)
REMARK    1  A    between atoms: C_2  and  C_3 
REMARK    2  A    between atoms: C_3  and  C_4 
ROOT
HETATM    1  C   UNL     1     -43.067  59.825 -51.611  1.00  0.00     0.085 A 
HETATM    2  S   UNL     1     -44.008  59.113 -52.857  1.00  0.00    -0.063 SA
HETATM    3  C   UNL     1     -43.270  57.598 -52.645  1.00  0.00     0.111 A 
HETATM    4  C   UNL     1     -42.335  57.592 -51.622  1.00  0.00     0.028 A 
HETATM    5  C   UNL     1     -42.248  58.888 -51.005  1.00  0.00     0.060 A 
HETATM    6  N   UNL     1     -41.445  59.137 -49.942  1.00  0.00    -0.397 N 
HETATM    7  N   UNL     1     -43.615  56.557 -53.428  1.00  0.00    -0.245 NA
HETATM    8  C   UNL     1     -42.966  55.399 -53.169  1.00  0.00     0.042 A 
HETATM    9  C   UNL     1     -41.994  55.249 -52.177  1.00  0.00    -0.033 A 
HETATM   10  C   UNL     1     -41.285  53.943 -51.934  1.00  0.00     0.040 C 
HETATM   11  C   UNL     1     -40.435  53.496 -53.124  1.00  0.00     0.005 C 
HETATM   12  C   UNL     1     -41.236  52.836 -54.245  1.00  0.00     0.001 C 
HETATM   13  C   UNL     1     -42.233  53.755 -54.950  1.00  0.00     0.006 C 
HETATM   14  C   UNL     1     -43.367  54.239 -54.049  1.00  0.00     0.060 C 
HETATM   15  C   UNL     1     -41.680  56.365 -51.386  1.00  0.00     0.026 A 
HETATM   16  H   UNL     1     -41.006  58.374 -49.433  1.00  0.00     0.156 HD
HETATM   17  H   UNL     1     -41.556  59.964 -49.360  1.00  0.00     0.156 HD
ENDROOT
BRANCH   1  18
HETATM   18  C   UNL     1     -43.260  61.241 -51.347  1.00  0.00     0.201 C 
HETATM   19  O   UNL     1     -42.848  62.133 -52.089  1.00  0.00    -0.286 OA
BRANCH  18  20
HETATM   20  C   UNL     1     -43.993  61.671 -50.119  1.00  0.00     0.018 A 
HETATM   21  C   UNL     1     -43.726  62.958 -49.596  1.00  0.00     0.018 A 
HETATM   22  C   UNL     1     -44.378  63.414 -48.445  1.00  0.00     0.040 A 
HETATM   23  C   UNL     1     -45.273  62.561 -47.839  1.00  0.00     0.105 A 
HETATM   24  C   UNL     1     -45.524  61.301 -48.334  1.00  0.00     0.106 A 
HETATM   25  O   UNL     1     -45.994  62.831 -46.719  1.00  0.00    -0.323 OA
HETATM   26  C   UNL     1     -44.899  60.821 -49.466  1.00  0.00     0.055 A 
HETATM   27  O   UNL     1     -46.433  60.623 -47.583  1.00  0.00    -0.323 OA
HETATM   28  C   UNL     1     -46.721  61.594 -46.556  1.00  0.00     0.352 A 
ENDBRANCH  18  20
ENDBRANCH   1  18
TORSDOF 2
ENDMDL
