MODEL 1
REMARK VINA RESULT:      -8.1      0.000      0.000
REMARK  8 active torsions:
REMARK  status: ('A' for Active; 'I' for Inactive)
REMARK    1  A    between atoms: C_5  and  C_6 
REMARK       I    between atoms: C_6  and  N_7 
REMARK    2  A    between atoms: N_7  and  N_8 
REMARK       I    between atoms: N_8  and  C_9 
REMARK    3  A    between atoms: C_9  and  C_10 
REMARK    4  A    between atoms: C_10  and  S_11 
REMARK    5  A    between atoms: S_11  and  C_12 
REMARK    6  A    between atoms: C_14  and  C_15 
REMARK    7  A    between atoms: C_15  and  N_16 
REMARK    8  A    between atoms: N_16  and  C_17 
ROOT
HETATM    1  S   UNL     1     -42.076  58.976 -56.764  1.00  0.00    -0.081 SA
ENDROOT
BRANCH   1   2
HETATM    2  C   UNL     1     -43.514  57.871 -56.669  1.00  0.00     0.187 C 
BRANCH   2   3
HETATM    3  C   UNL     1     -43.255  56.642 -55.811  1.00  0.00     0.245 C 
HETATM    4  N   UNL     1     -42.016  56.070 -56.041  1.00  0.00    -0.267 N 
HETATM    5  H   UNL     1     -41.475  56.271 -56.884  1.00  0.00     0.190 HD
HETATM    6  O   UNL     1     -44.045  56.174 -54.988  1.00  0.00    -0.271 OA
BRANCH   4   7
HETATM    7  N   UNL     1     -41.779  54.799 -55.484  1.00  0.00    -0.263 N 
HETATM    8  C   UNL     1     -41.046  54.760 -54.312  1.00  0.00     0.270 C 
HETATM    9  O   UNL     1     -40.736  55.786 -53.710  1.00  0.00    -0.266 OA
HETATM   10  H   UNL     1     -41.813  54.018 -56.136  1.00  0.00     0.190 HD
BRANCH   8  11
HETATM   11  C   UNL     1     -40.613  53.419 -53.826  1.00  0.00     0.033 A 
HETATM   12  C   UNL     1     -40.084  53.212 -52.545  1.00  0.00     0.017 A 
HETATM   13  C   UNL     1     -39.692  51.930 -52.145  1.00  0.00     0.007 A 
HETATM   14  C   UNL     1     -39.822  50.841 -53.014  1.00  0.00    -0.062 A 
HETATM   15  C   UNL     1     -39.370  49.471 -52.599  1.00  0.00     0.048 C 
HETATM   16  C   UNL     1     -40.327  51.054 -54.301  1.00  0.00     0.007 A 
HETATM   17  C   UNL     1     -40.721  52.333 -54.704  1.00  0.00     0.017 A 
ENDBRANCH   8  11
ENDBRANCH   4   7
ENDBRANCH   2   3
ENDBRANCH   1   2
BRANCH   1  18
HETATM   18  C   UNL     1     -41.935  59.445 -55.115  1.00  0.00     0.185 A 
HETATM   19  N   UNL     1     -41.446  58.748 -54.123  1.00  0.00    -0.204 NA
HETATM   20  C   UNL     1     -41.562  59.617 -53.057  1.00  0.00     0.166 A 
HETATM   21  N   UNL     1     -42.083  60.818 -53.366  1.00  0.00    -0.155 NA
HETATM   22  N   UNL     1     -42.332  60.671 -54.680  1.00  0.00    -0.254 N 
HETATM   23  H   UNL     1     -42.698  61.443 -55.229  1.00  0.00     0.191 HD
BRANCH  20  24
HETATM   24  C   UNL     1     -41.163  59.229 -51.655  1.00  0.00     0.202 C 
BRANCH  24  25
HETATM   25  N   UNL     1     -42.197  58.560 -50.857  1.00  0.00    -0.383 N 
HETATM   26  H   UNL     1     -43.116  58.963 -51.023  1.00  0.00     0.160 HD
BRANCH  25  27
HETATM   27  C   UNL     1     -42.224  57.171 -50.744  1.00  0.00     0.028 A 
HETATM   28  C   UNL     1     -41.337  56.437 -49.945  1.00  0.00     0.036 A 
HETATM   29  C   UNL     1     -41.451  55.043 -49.805  1.00  0.00    -0.060 A 
HETATM   30  C   UNL     1     -40.487  54.274 -48.952  1.00  0.00     0.048 C 
HETATM   31  C   UNL     1     -42.500  54.376 -50.444  1.00  0.00     0.007 A 
HETATM   32  C   UNL     1     -43.419  55.092 -51.207  1.00  0.00     0.003 A 
HETATM   33  C   UNL     1     -43.284  56.476 -51.342  1.00  0.00     0.029 A 
ENDBRANCH  25  27
ENDBRANCH  24  25
ENDBRANCH  20  24
ENDBRANCH   1  18
TORSDOF 8
ENDMDL
MODEL 2
REMARK VINA RESULT:      -7.9      2.558      5.893
REMARK  8 active torsions:
REMARK  status: ('A' for Active; 'I' for Inactive)
REMARK    1  A    between atoms: C_5  and  C_6 
REMARK       I    between atoms: C_6  and  N_7 
REMARK    2  A    between atoms: N_7  and  N_8 
REMARK       I    between atoms: N_8  and  C_9 
REMARK    3  A    between atoms: C_9  and  C_10 
REMARK    4  A    between atoms: C_10  and  S_11 
REMARK    5  A    between atoms: S_11  and  C_12 
REMARK    6  A    between atoms: C_14  and  C_15 
REMARK    7  A    between atoms: C_15  and  N_16 
REMARK    8  A    between atoms: N_16  and  C_17 
ROOT
HETATM    1  S   UNL     1     -43.534  60.547 -54.069  1.00  0.00    -0.081 SA
ENDROOT
BRANCH   1   2
HETATM    2  C   UNL     1     -42.095  60.509 -52.962  1.00  0.00     0.187 C 
BRANCH   2   3
HETATM    3  C   UNL     1     -41.299  59.217 -53.078  1.00  0.00     0.245 C 
HETATM    4  N   UNL     1     -42.094  58.085 -53.058  1.00  0.00    -0.267 N 
HETATM    5  H   UNL     1     -43.055  58.104 -52.712  1.00  0.00     0.190 HD
HETATM    6  O   UNL     1     -40.072  59.149 -53.177  1.00  0.00    -0.271 OA
BRANCH   4   7
HETATM    7  N   UNL     1     -41.445  56.845 -52.912  1.00  0.00    -0.263 N 
HETATM    8  C   UNL     1     -41.449  56.007 -54.012  1.00  0.00     0.270 C 
HETATM    9  O   UNL     1     -41.872  56.379 -55.105  1.00  0.00    -0.266 OA
HETATM   10  H   UNL     1     -41.367  56.496 -51.958  1.00  0.00     0.190 HD
BRANCH   8  11
HETATM   11  C   UNL     1     -40.951  54.616 -53.809  1.00  0.00     0.033 A 
HETATM   12  C   UNL     1     -40.604  53.774 -54.873  1.00  0.00     0.017 A 
HETATM   13  C   UNL     1     -40.145  52.476 -54.622  1.00  0.00     0.007 A 
HETATM   14  C   UNL     1     -40.027  52.004 -53.310  1.00  0.00    -0.062 A 
HETATM   15  C   UNL     1     -39.567  50.601 -53.039  1.00  0.00     0.048 C 
HETATM   16  C   UNL     1     -40.399  52.838 -52.250  1.00  0.00     0.007 A 
HETATM   17  C   UNL     1     -40.856  54.135 -52.498  1.00  0.00     0.017 A 
ENDBRANCH   8  11
ENDBRANCH   4   7
ENDBRANCH   2   3
ENDBRANCH   1   2
BRANCH   1  18
HETATM   18  C   UNL     1     -42.779  60.182 -55.572  1.00  0.00     0.185 A 
HETATM   19  N   UNL     1     -42.893  59.090 -56.281  1.00  0.00    -0.204 NA
HETATM   20  C   UNL     1     -42.100  59.358 -57.378  1.00  0.00     0.166 A 
HETATM   21  N   UNL     1     -41.526  60.574 -57.371  1.00  0.00    -0.155 NA
HETATM   22  N   UNL     1     -41.959  61.068 -56.198  1.00  0.00    -0.254 N 
HETATM   23  H   UNL     1     -41.727  62.015 -55.915  1.00  0.00     0.191 HD
BRANCH  20  24
HETATM   24  C   UNL     1     -41.876  58.347 -58.475  1.00  0.00     0.202 C 
BRANCH  24  25
HETATM   25  N   UNL     1     -42.377  56.993 -58.210  1.00  0.00    -0.383 N 
HETATM   26  H   UNL     1     -42.332  56.765 -57.220  1.00  0.00     0.160 HD
BRANCH  25  27
HETATM   27  C   UNL     1     -43.539  56.529 -58.824  1.00  0.00     0.028 A 
HETATM   28  C   UNL     1     -44.661  57.331 -59.074  1.00  0.00     0.036 A 
HETATM   29  C   UNL     1     -45.782  56.837 -59.764  1.00  0.00    -0.060 A 
HETATM   30  C   UNL     1     -46.977  57.708 -60.014  1.00  0.00     0.048 C 
HETATM   31  C   UNL     1     -45.761  55.527 -60.249  1.00  0.00     0.007 A 
HETATM   32  C   UNL     1     -44.639  54.727 -60.051  1.00  0.00     0.003 A 
HETATM   33  C   UNL     1     -43.538  55.232 -59.356  1.00  0.00     0.029 A 
ENDBRANCH  25  27
ENDBRANCH  24  25
ENDBRANCH  20  24
ENDBRANCH   1  18
TORSDOF 8
ENDMDL
MODEL 3
REMARK VINA RESULT:      -7.8      5.367      9.240
REMARK  8 active torsions:
REMARK  status: ('A' for Active; 'I' for Inactive)
REMARK    1  A    between atoms: C_5  and  C_6 
REMARK       I    between atoms: C_6  and  N_7 
REMARK    2  A    between atoms: N_7  and  N_8 
REMARK       I    between atoms: N_8  and  C_9 
REMARK    3  A    between atoms: C_9  and  C_10 
REMARK    4  A    between atoms: C_10  and  S_11 
REMARK    5  A    between atoms: S_11  and  C_12 
REMARK    6  A    between atoms: C_14  and  C_15 
REMARK    7  A    between atoms: C_15  and  N_16 
REMARK    8  A    between atoms: N_16  and  C_17 
ROOT
HETATM    1  S   UNL     1     -45.451  58.904 -51.654  1.00  0.00    -0.081 SA
ENDROOT
BRANCH   1   2
HETATM    2  C   UNL     1     -44.215  60.231 -51.769  1.00  0.00     0.187 C 
BRANCH   2   3
HETATM    3  C   UNL     1     -43.656  60.632 -50.412  1.00  0.00     0.245 C 
HETATM    4  N   UNL     1     -44.570  60.490 -49.383  1.00  0.00    -0.267 N 
HETATM    5  H   UNL     1     -45.574  60.411 -49.558  1.00  0.00     0.190 HD
HETATM    6  O   UNL     1     -42.512  61.047 -50.213  1.00  0.00    -0.271 OA
BRANCH   4   7
HETATM    7  N   UNL     1     -44.236  61.060 -48.141  1.00  0.00    -0.263 N 
HETATM    8  C   UNL     1     -45.215  61.044 -47.165  1.00  0.00     0.270 C 
HETATM    9  O   UNL     1     -46.274  60.439 -47.323  1.00  0.00    -0.266 OA
HETATM   10  H   UNL     1     -43.492  61.756 -48.160  1.00  0.00     0.190 HD
BRANCH   8  11
HETATM   11  C   UNL     1     -44.949  61.824 -45.923  1.00  0.00     0.033 A 
HETATM   12  C   UNL     1     -45.301  63.174 -45.786  1.00  0.00     0.017 A 
HETATM   13  C   UNL     1     -45.025  63.855 -44.596  1.00  0.00     0.007 A 
HETATM   14  C   UNL     1     -44.396  63.202 -43.530  1.00  0.00    -0.062 A 
HETATM   15  C   UNL     1     -44.067  63.940 -42.265  1.00  0.00     0.048 C 
HETATM   16  C   UNL     1     -44.022  61.861 -43.678  1.00  0.00     0.007 A 
HETATM   17  C   UNL     1     -44.298  61.178 -44.865  1.00  0.00     0.017 A 
ENDBRANCH   8  11
ENDBRANCH   4   7
ENDBRANCH   2   3
ENDBRANCH   1   2
BRANCH   1  18
HETATM   18  C   UNL     1     -44.450  57.526 -51.900  1.00  0.00     0.185 A 
HETATM   19  N   UNL     1     -44.198  56.911 -53.025  1.00  0.00    -0.204 NA
HETATM   20  C   UNL     1     -43.331  55.911 -52.634  1.00  0.00     0.166 A 
HETATM   21  N   UNL     1     -43.033  55.908 -51.323  1.00  0.00    -0.155 NA
HETATM   22  N   UNL     1     -43.778  56.935 -50.877  1.00  0.00    -0.254 N 
HETATM   23  H   UNL     1     -43.736  57.224 -49.904  1.00  0.00     0.191 HD
BRANCH  20  24
HETATM   24  C   UNL     1     -42.793  54.888 -53.604  1.00  0.00     0.202 C 
BRANCH  24  25
HETATM   25  N   UNL     1     -41.339  54.685 -53.578  1.00  0.00    -0.383 N 
HETATM   26  H   UNL     1     -40.857  55.484 -53.176  1.00  0.00     0.160 HD
BRANCH  25  27
HETATM   27  C   UNL     1     -40.796  53.464 -53.180  1.00  0.00     0.028 A 
HETATM   28  C   UNL     1     -40.582  52.386 -54.049  1.00  0.00     0.036 A 
HETATM   29  C   UNL     1     -39.962  51.201 -53.616  1.00  0.00    -0.060 A 
HETATM   30  C   UNL     1     -39.749  50.054 -54.559  1.00  0.00     0.048 C 
HETATM   31  C   UNL     1     -39.511  51.110 -52.296  1.00  0.00     0.007 A 
HETATM   32  C   UNL     1     -39.673  52.186 -51.428  1.00  0.00     0.003 A 
HETATM   33  C   UNL     1     -40.300  53.353 -51.874  1.00  0.00     0.029 A 
ENDBRANCH  25  27
ENDBRANCH  24  25
ENDBRANCH  20  24
ENDBRANCH   1  18
TORSDOF 8
ENDMDL
MODEL 4
REMARK VINA RESULT:      -7.6      2.765      6.102
REMARK  8 active torsions:
REMARK  status: ('A' for Active; 'I' for Inactive)
REMARK    1  A    between atoms: C_5  and  C_6 
REMARK       I    between atoms: C_6  and  N_7 
REMARK    2  A    between atoms: N_7  and  N_8 
REMARK       I    between atoms: N_8  and  C_9 
REMARK    3  A    between atoms: C_9  and  C_10 
REMARK    4  A    between atoms: C_10  and  S_11 
REMARK    5  A    between atoms: S_11  and  C_12 
REMARK    6  A    between atoms: C_14  and  C_15 
REMARK    7  A    between atoms: C_15  and  N_16 
REMARK    8  A    between atoms: N_16  and  C_17 
ROOT
HETATM    1  S   UNL     1     -45.104  58.359 -52.552  1.00  0.00    -0.081 SA
ENDROOT
BRANCH   1   2
HETATM    2  C   UNL     1     -43.718  58.252 -51.383  1.00  0.00     0.187 C 
BRANCH   2   3
HETATM    3  C   UNL     1     -43.189  56.834 -51.228  1.00  0.00     0.245 C 
HETATM    4  N   UNL     1     -41.819  56.743 -51.402  1.00  0.00    -0.267 N 
HETATM    5  H   UNL     1     -41.282  57.478 -51.866  1.00  0.00     0.190 HD
HETATM    6  O   UNL     1     -43.880  55.845 -50.976  1.00  0.00    -0.271 OA
BRANCH   4   7
HETATM    7  N   UNL     1     -41.269  55.453 -51.522  1.00  0.00    -0.263 N 
HETATM    8  C   UNL     1     -40.909  55.046 -52.793  1.00  0.00     0.270 C 
HETATM    9  O   UNL     1     -40.934  55.818 -53.750  1.00  0.00    -0.266 OA
HETATM   10  H   UNL     1     -41.521  54.796 -50.786  1.00  0.00     0.190 HD
BRANCH   8  11
HETATM   11  C   UNL     1     -40.522  53.616 -52.965  1.00  0.00     0.033 A 
HETATM   12  C   UNL     1     -40.621  52.947 -54.192  1.00  0.00     0.017 A 
HETATM   13  C   UNL     1     -40.245  51.603 -54.292  1.00  0.00     0.007 A 
HETATM   14  C   UNL     1     -39.766  50.911 -53.173  1.00  0.00    -0.062 A 
HETATM   15  C   UNL     1     -39.395  49.461 -53.270  1.00  0.00     0.048 C 
HETATM   16  C   UNL     1     -39.692  51.575 -51.943  1.00  0.00     0.007 A 
HETATM   17  C   UNL     1     -40.066  52.917 -51.840  1.00  0.00     0.017 A 
ENDBRANCH   8  11
ENDBRANCH   4   7
ENDBRANCH   2   3
ENDBRANCH   1   2
BRANCH   1  18
HETATM   18  C   UNL     1     -44.410  57.595 -53.928  1.00  0.00     0.185 A 
HETATM   19  N   UNL     1     -43.672  58.140 -54.859  1.00  0.00    -0.204 NA
HETATM   20  C   UNL     1     -43.382  57.070 -55.680  1.00  0.00     0.166 A 
HETATM   21  N   UNL     1     -43.898  55.896 -55.274  1.00  0.00    -0.155 NA
HETATM   22  N   UNL     1     -44.565  56.266 -54.167  1.00  0.00    -0.254 N 
HETATM   23  H   UNL     1     -45.040  55.576 -53.591  1.00  0.00     0.191 HD
BRANCH  20  24
HETATM   24  C   UNL     1     -42.577  57.221 -56.947  1.00  0.00     0.202 C 
BRANCH  24  25
HETATM   25  N   UNL     1     -42.697  56.125 -57.916  1.00  0.00    -0.383 N 
HETATM   26  H   UNL     1     -42.435  55.233 -57.505  1.00  0.00     0.160 HD
BRANCH  25  27
HETATM   27  C   UNL     1     -43.805  56.033 -58.757  1.00  0.00     0.028 A 
HETATM   28  C   UNL     1     -44.628  57.120 -59.082  1.00  0.00     0.036 A 
HETATM   29  C   UNL     1     -45.690  56.994 -59.994  1.00  0.00    -0.060 A 
HETATM   30  C   UNL     1     -46.565  58.167 -60.323  1.00  0.00     0.048 C 
HETATM   31  C   UNL     1     -45.906  55.766 -60.624  1.00  0.00     0.007 A 
HETATM   32  C   UNL     1     -45.073  54.685 -60.350  1.00  0.00     0.003 A 
HETATM   33  C   UNL     1     -44.028  54.826 -59.434  1.00  0.00     0.029 A 
ENDBRANCH  25  27
ENDBRANCH  24  25
ENDBRANCH  20  24
ENDBRANCH   1  18
TORSDOF 8
ENDMDL
MODEL 5
REMARK VINA RESULT:      -7.6      2.460      5.655
REMARK  8 active torsions:
REMARK  status: ('A' for Active; 'I' for Inactive)
REMARK    1  A    between atoms: C_5  and  C_6 
REMARK       I    between atoms: C_6  and  N_7 
REMARK    2  A    between atoms: N_7  and  N_8 
REMARK       I    between atoms: N_8  and  C_9 
REMARK    3  A    between atoms: C_9  and  C_10 
REMARK    4  A    between atoms: C_10  and  S_11 
REMARK    5  A    between atoms: S_11  and  C_12 
REMARK    6  A    between atoms: C_14  and  C_15 
REMARK    7  A    between atoms: C_15  and  N_16 
REMARK    8  A    between atoms: N_16  and  C_17 
ROOT
HETATM    1  S   UNL     1     -42.054  60.011 -53.050  1.00  0.00    -0.081 SA
ENDROOT
BRANCH   1   2
HETATM    2  C   UNL     1     -43.586  59.095 -52.712  1.00  0.00     0.187 C 
BRANCH   2   3
HETATM    3  C   UNL     1     -43.422  57.592 -52.886  1.00  0.00     0.245 C 
HETATM    4  N   UNL     1     -42.099  57.188 -52.900  1.00  0.00    -0.267 N 
HETATM    5  H   UNL     1     -41.334  57.843 -53.070  1.00  0.00     0.190 HD
HETATM    6  O   UNL     1     -44.349  56.789 -53.008  1.00  0.00    -0.271 OA
BRANCH   4   7
HETATM    7  N   UNL     1     -41.834  55.864 -53.298  1.00  0.00    -0.263 N 
HETATM    8  C   UNL     1     -41.230  55.042 -52.365  1.00  0.00     0.270 C 
HETATM    9  O   UNL     1     -41.059  55.403 -51.202  1.00  0.00    -0.266 OA
HETATM   10  H   UNL     1     -41.742  55.715 -54.302  1.00  0.00     0.190 HD
BRANCH   8  11
HETATM   11  C   UNL     1     -40.757  53.710 -52.838  1.00  0.00     0.033 A 
HETATM   12  C   UNL     1     -40.979  53.246 -54.141  1.00  0.00     0.017 A 
HETATM   13  C   UNL     1     -40.513  51.984 -54.527  1.00  0.00     0.007 A 
HETATM   14  C   UNL     1     -39.822  51.172 -53.621  1.00  0.00    -0.062 A 
HETATM   15  C   UNL     1     -39.351  49.804 -54.022  1.00  0.00     0.048 C 
HETATM   16  C   UNL     1     -39.624  51.627 -52.312  1.00  0.00     0.007 A 
HETATM   17  C   UNL     1     -40.086  52.887 -51.925  1.00  0.00     0.017 A 
ENDBRANCH   8  11
ENDBRANCH   4   7
ENDBRANCH   2   3
ENDBRANCH   1   2
BRANCH   1  18
HETATM   18  C   UNL     1     -42.106  60.078 -54.769  1.00  0.00     0.185 A 
HETATM   19  N   UNL     1     -41.864  59.111 -55.615  1.00  0.00    -0.204 NA
HETATM   20  C   UNL     1     -42.076  59.719 -56.836  1.00  0.00     0.166 A 
HETATM   21  N   UNL     1     -42.455  61.007 -56.763  1.00  0.00    -0.155 NA
HETATM   22  N   UNL     1     -42.444  61.214 -55.435  1.00  0.00    -0.254 N 
HETATM   23  H   UNL     1     -42.736  62.106 -55.045  1.00  0.00     0.191 HD
BRANCH  20  24
HETATM   24  C   UNL     1     -41.864  58.995 -58.143  1.00  0.00     0.202 C 
BRANCH  24  25
HETATM   25  N   UNL     1     -42.077  57.543 -58.112  1.00  0.00    -0.383 N 
HETATM   26  H   UNL     1     -41.906  57.160 -57.187  1.00  0.00     0.160 HD
BRANCH  25  27
HETATM   27  C   UNL     1     -43.180  56.970 -58.744  1.00  0.00     0.028 A 
HETATM   28  C   UNL     1     -44.285  57.702 -59.197  1.00  0.00     0.036 A 
HETATM   29  C   UNL     1     -45.340  57.090 -59.896  1.00  0.00    -0.060 A 
HETATM   30  C   UNL     1     -46.519  57.889 -60.366  1.00  0.00     0.048 C 
HETATM   31  C   UNL     1     -45.266  55.724 -60.183  1.00  0.00     0.007 A 
HETATM   32  C   UNL     1     -44.156  54.987 -59.782  1.00  0.00     0.003 A 
HETATM   33  C   UNL     1     -43.121  55.611 -59.080  1.00  0.00     0.029 A 
ENDBRANCH  25  27
ENDBRANCH  24  25
ENDBRANCH  20  24
ENDBRANCH   1  18
TORSDOF 8
ENDMDL
MODEL 6
REMARK VINA RESULT:      -7.6      1.933      2.819
REMARK  8 active torsions:
REMARK  status: ('A' for Active; 'I' for Inactive)
REMARK    1  A    between atoms: C_5  and  C_6 
REMARK       I    between atoms: C_6  and  N_7 
REMARK    2  A    between atoms: N_7  and  N_8 
REMARK       I    between atoms: N_8  and  C_9 
REMARK    3  A    between atoms: C_9  and  C_10 
REMARK    4  A    between atoms: C_10  and  S_11 
REMARK    5  A    between atoms: S_11  and  C_12 
REMARK    6  A    between atoms: C_14  and  C_15 
REMARK    7  A    between atoms: C_15  and  N_16 
REMARK    8  A    between atoms: N_16  and  C_17 
ROOT
HETATM    1  S   UNL     1     -44.850  61.095 -54.297  1.00  0.00    -0.081 SA
ENDROOT
BRANCH   1   2
HETATM    2  C   UNL     1     -43.626  61.342 -55.615  1.00  0.00     0.187 C 
BRANCH   2   3
HETATM    3  C   UNL     1     -42.736  60.126 -55.826  1.00  0.00     0.245 C 
HETATM    4  N   UNL     1     -43.449  58.950 -55.979  1.00  0.00    -0.267 N 
HETATM    5  H   UNL     1     -44.426  58.868 -55.692  1.00  0.00     0.190 HD
HETATM    6  O   UNL     1     -41.504  60.148 -55.858  1.00  0.00    -0.271 OA
BRANCH   4   7
HETATM    7  N   UNL     1     -42.723  57.746 -55.933  1.00  0.00    -0.263 N 
HETATM    8  C   UNL     1     -43.222  56.748 -55.116  1.00  0.00     0.270 C 
HETATM    9  O   UNL     1     -44.318  56.852 -54.566  1.00  0.00    -0.266 OA
HETATM   10  H   UNL     1     -41.735  57.816 -56.171  1.00  0.00     0.190 HD
BRANCH   8  11
HETATM   11  C   UNL     1     -42.359  55.553 -54.897  1.00  0.00     0.033 A 
HETATM   12  C   UNL     1     -40.963  55.597 -55.004  1.00  0.00     0.017 A 
HETATM   13  C   UNL     1     -40.205  54.440 -54.789  1.00  0.00     0.007 A 
HETATM   14  C   UNL     1     -40.827  53.229 -54.466  1.00  0.00    -0.062 A 
HETATM   15  C   UNL     1     -40.019  51.980 -54.269  1.00  0.00     0.048 C 
HETATM   16  C   UNL     1     -42.224  53.183 -54.385  1.00  0.00     0.007 A 
HETATM   17  C   UNL     1     -42.983  54.335 -54.597  1.00  0.00     0.017 A 
ENDBRANCH   8  11
ENDBRANCH   4   7
ENDBRANCH   2   3
ENDBRANCH   1   2
BRANCH   1  18
HETATM   18  C   UNL     1     -43.813  60.717 -52.977  1.00  0.00     0.185 A 
HETATM   19  N   UNL     1     -43.144  59.613 -52.775  1.00  0.00    -0.204 NA
HETATM   20  C   UNL     1     -42.477  59.875 -51.596  1.00  0.00     0.166 A 
HETATM   21  N   UNL     1     -42.699  61.099 -51.086  1.00  0.00    -0.155 NA
HETATM   22  N   UNL     1     -43.571  61.605 -51.976  1.00  0.00    -0.254 N 
HETATM   23  H   UNL     1     -43.905  62.561 -51.891  1.00  0.00     0.191 HD
BRANCH  20  24
HETATM   24  C   UNL     1     -41.597  58.850 -50.924  1.00  0.00     0.202 C 
BRANCH  24  25
HETATM   25  N   UNL     1     -41.190  57.711 -51.756  1.00  0.00    -0.383 N 
HETATM   26  H   UNL     1     -40.194  57.733 -51.958  1.00  0.00     0.160 HD
BRANCH  25  27
HETATM   27  C   UNL     1     -41.664  56.427 -51.490  1.00  0.00     0.028 A 
HETATM   28  C   UNL     1     -40.834  55.327 -51.237  1.00  0.00     0.036 A 
HETATM   29  C   UNL     1     -41.360  54.068 -50.900  1.00  0.00    -0.060 A 
HETATM   30  C   UNL     1     -40.455  52.900 -50.641  1.00  0.00     0.048 C 
HETATM   31  C   UNL     1     -42.743  53.918 -50.773  1.00  0.00     0.007 A 
HETATM   32  C   UNL     1     -43.584  55.009 -50.976  1.00  0.00     0.003 A 
HETATM   33  C   UNL     1     -43.044  56.251 -51.319  1.00  0.00     0.029 A 
ENDBRANCH  25  27
ENDBRANCH  24  25
ENDBRANCH  20  24
ENDBRANCH   1  18
TORSDOF 8
ENDMDL
MODEL 7
REMARK VINA RESULT:      -7.2      2.856      5.787
REMARK  8 active torsions:
REMARK  status: ('A' for Active; 'I' for Inactive)
REMARK    1  A    between atoms: C_5  and  C_6 
REMARK       I    between atoms: C_6  and  N_7 
REMARK    2  A    between atoms: N_7  and  N_8 
REMARK       I    between atoms: N_8  and  C_9 
REMARK    3  A    between atoms: C_9  and  C_10 
REMARK    4  A    between atoms: C_10  and  S_11 
REMARK    5  A    between atoms: S_11  and  C_12 
REMARK    6  A    between atoms: C_14  and  C_15 
REMARK    7  A    between atoms: C_15  and  N_16 
REMARK    8  A    between atoms: N_16  and  C_17 
ROOT
HETATM    1  S   UNL     1     -42.426  60.313 -54.867  1.00  0.00    -0.081 SA
ENDROOT
BRANCH   1   2
HETATM    2  C   UNL     1     -43.297  58.733 -54.656  1.00  0.00     0.187 C 
BRANCH   2   3
HETATM    3  C   UNL     1     -42.525  57.748 -53.790  1.00  0.00     0.245 C 
HETATM    4  N   UNL     1     -42.465  56.477 -54.334  1.00  0.00    -0.267 N 
HETATM    5  H   UNL     1     -43.105  56.172 -55.070  1.00  0.00     0.190 HD
HETATM    6  O   UNL     1     -41.998  58.018 -52.709  1.00  0.00    -0.271 OA
BRANCH   4   7
HETATM    7  N   UNL     1     -41.991  55.443 -53.506  1.00  0.00    -0.263 N 
HETATM    8  C   UNL     1     -40.876  54.754 -53.944  1.00  0.00     0.270 C 
HETATM    9  O   UNL     1     -40.244  55.114 -54.936  1.00  0.00    -0.266 OA
HETATM   10  H   UNL     1     -42.679  55.030 -52.879  1.00  0.00     0.190 HD
BRANCH   8  11
HETATM   11  C   UNL     1     -40.490  53.530 -53.186  1.00  0.00     0.033 A 
HETATM   12  C   UNL     1     -40.527  53.463 -51.787  1.00  0.00     0.017 A 
HETATM   13  C   UNL     1     -40.152  52.287 -51.129  1.00  0.00     0.007 A 
HETATM   14  C   UNL     1     -39.735  51.166 -51.856  1.00  0.00    -0.062 A 
HETATM   15  C   UNL     1     -39.298  49.914 -51.152  1.00  0.00     0.048 C 
HETATM   16  C   UNL     1     -39.675  51.244 -53.252  1.00  0.00     0.007 A 
HETATM   17  C   UNL     1     -40.051  52.416 -53.911  1.00  0.00     0.017 A 
ENDBRANCH   8  11
ENDBRANCH   4   7
ENDBRANCH   2   3
ENDBRANCH   1   2
BRANCH   1  18
HETATM   18  C   UNL     1     -42.095  60.262 -56.554  1.00  0.00     0.185 A 
HETATM   19  N   UNL     1     -42.233  59.248 -57.367  1.00  0.00    -0.204 NA
HETATM   20  C   UNL     1     -41.851  59.780 -58.581  1.00  0.00     0.166 A 
HETATM   21  N   UNL     1     -41.505  61.079 -58.541  1.00  0.00    -0.155 NA
HETATM   22  N   UNL     1     -41.650  61.353 -57.233  1.00  0.00    -0.254 N 
HETATM   23  H   UNL     1     -41.502  62.294 -56.879  1.00  0.00     0.191 HD
BRANCH  20  24
HETATM   24  C   UNL     1     -41.797  58.952 -59.842  1.00  0.00     0.202 C 
BRANCH  24  25
HETATM   25  N   UNL     1     -41.893  57.499 -59.658  1.00  0.00    -0.383 N 
HETATM   26  H   UNL     1     -41.410  57.195 -58.816  1.00  0.00     0.160 HD
BRANCH  25  27
HETATM   27  C   UNL     1     -43.101  56.833 -59.863  1.00  0.00     0.028 A 
HETATM   28  C   UNL     1     -43.296  55.472 -59.588  1.00  0.00     0.036 A 
HETATM   29  C   UNL     1     -44.553  54.862 -59.740  1.00  0.00    -0.060 A 
HETATM   30  C   UNL     1     -44.741  53.403 -59.449  1.00  0.00     0.048 C 
HETATM   31  C   UNL     1     -45.645  55.639 -60.136  1.00  0.00     0.007 A 
HETATM   32  C   UNL     1     -45.483  57.001 -60.371  1.00  0.00     0.003 A 
HETATM   33  C   UNL     1     -44.224  57.589 -60.223  1.00  0.00     0.029 A 
ENDBRANCH  25  27
ENDBRANCH  24  25
ENDBRANCH  20  24
ENDBRANCH   1  18
TORSDOF 8
ENDMDL
MODEL 8
REMARK VINA RESULT:      -7.2      2.398      5.582
REMARK  8 active torsions:
REMARK  status: ('A' for Active; 'I' for Inactive)
REMARK    1  A    between atoms: C_5  and  C_6 
REMARK       I    between atoms: C_6  and  N_7 
REMARK    2  A    between atoms: N_7  and  N_8 
REMARK       I    between atoms: N_8  and  C_9 
REMARK    3  A    between atoms: C_9  and  C_10 
REMARK    4  A    between atoms: C_10  and  S_11 
REMARK    5  A    between atoms: S_11  and  C_12 
REMARK    6  A    between atoms: C_14  and  C_15 
REMARK    7  A    between atoms: C_15  and  N_16 
REMARK    8  A    between atoms: N_16  and  C_17 
ROOT
HETATM    1  S   UNL     1     -43.164  60.096 -51.093  1.00  0.00    -0.081 SA
ENDROOT
BRANCH   1   2
HETATM    2  C   UNL     1     -44.659  59.069 -51.190  1.00  0.00     0.187 C 
BRANCH   2   3
HETATM    3  C   UNL     1     -44.367  57.650 -51.657  1.00  0.00     0.245 C 
HETATM    4  N   UNL     1     -43.642  56.913 -50.738  1.00  0.00    -0.267 N 
HETATM    5  H   UNL     1     -43.118  57.356 -49.981  1.00  0.00     0.190 HD
HETATM    6  O   UNL     1     -44.722  57.175 -52.738  1.00  0.00    -0.271 OA
BRANCH   4   7
HETATM    7  N   UNL     1     -43.113  55.683 -51.172  1.00  0.00    -0.263 N 
HETATM    8  C   UNL     1     -41.805  55.691 -51.620  1.00  0.00     0.270 C 
HETATM    9  O   UNL     1     -41.093  56.688 -51.515  1.00  0.00    -0.266 OA
HETATM   10  H   UNL     1     -43.796  54.995 -51.484  1.00  0.00     0.190 HD
BRANCH   8  11
HETATM   11  C   UNL     1     -41.303  54.448 -52.272  1.00  0.00     0.033 A 
HETATM   12  C   UNL     1     -40.466  53.535 -51.618  1.00  0.00     0.017 A 
HETATM   13  C   UNL     1     -40.024  52.385 -52.283  1.00  0.00     0.007 A 
HETATM   14  C   UNL     1     -40.409  52.133 -53.604  1.00  0.00    -0.062 A 
HETATM   15  C   UNL     1     -39.909  50.919 -54.330  1.00  0.00     0.048 C 
HETATM   16  C   UNL     1     -41.225  53.059 -54.263  1.00  0.00     0.007 A 
HETATM   17  C   UNL     1     -41.669  54.207 -53.602  1.00  0.00     0.017 A 
ENDBRANCH   8  11
ENDBRANCH   4   7
ENDBRANCH   2   3
ENDBRANCH   1   2
BRANCH   1  18
HETATM   18  C   UNL     1     -42.593  59.965 -52.711  1.00  0.00     0.185 A 
HETATM   19  N   UNL     1     -43.146  60.439 -53.796  1.00  0.00    -0.204 NA
HETATM   20  C   UNL     1     -42.254  60.062 -54.780  1.00  0.00     0.166 A 
HETATM   21  N   UNL     1     -41.175  59.396 -54.332  1.00  0.00    -0.155 NA
HETATM   22  N   UNL     1     -41.429  59.331 -53.013  1.00  0.00    -0.254 N 
HETATM   23  H   UNL     1     -40.758  58.913 -52.374  1.00  0.00     0.191 HD
BRANCH  20  24
HETATM   24  C   UNL     1     -42.497  60.349 -56.241  1.00  0.00     0.202 C 
BRANCH  24  25
HETATM   25  N   UNL     1     -41.730  59.534 -57.190  1.00  0.00    -0.383 N 
HETATM   26  H   UNL     1     -41.044  58.953 -56.715  1.00  0.00     0.160 HD
BRANCH  25  27
HETATM   27  C   UNL     1     -42.366  58.875 -58.241  1.00  0.00     0.028 A 
HETATM   28  C   UNL     1     -42.632  57.499 -58.251  1.00  0.00     0.036 A 
HETATM   29  C   UNL     1     -43.343  56.893 -59.301  1.00  0.00    -0.060 A 
HETATM   30  C   UNL     1     -43.611  55.418 -59.299  1.00  0.00     0.048 C 
HETATM   31  C   UNL     1     -43.834  57.688 -60.341  1.00  0.00     0.007 A 
HETATM   32  C   UNL     1     -43.619  59.063 -60.329  1.00  0.00     0.003 A 
HETATM   33  C   UNL     1     -42.903  59.647 -59.281  1.00  0.00     0.029 A 
ENDBRANCH  25  27
ENDBRANCH  24  25
ENDBRANCH  20  24
ENDBRANCH   1  18
TORSDOF 8
ENDMDL
MODEL 9
REMARK VINA RESULT:      -7.1      2.378      5.211
REMARK  8 active torsions:
REMARK  status: ('A' for Active; 'I' for Inactive)
REMARK    1  A    between atoms: C_5  and  C_6 
REMARK       I    between atoms: C_6  and  N_7 
REMARK    2  A    between atoms: N_7  and  N_8 
REMARK       I    between atoms: N_8  and  C_9 
REMARK    3  A    between atoms: C_9  and  C_10 
REMARK    4  A    between atoms: C_10  and  S_11 
REMARK    5  A    between atoms: S_11  and  C_12 
REMARK    6  A    between atoms: C_14  and  C_15 
REMARK    7  A    between atoms: C_15  and  N_16 
REMARK    8  A    between atoms: N_16  and  C_17 
ROOT
HETATM    1  S   UNL     1     -44.717  58.792 -51.813  1.00  0.00    -0.081 SA
ENDROOT
BRANCH   1   2
HETATM    2  C   UNL     1     -43.000  59.050 -51.279  1.00  0.00     0.187 C 
BRANCH   2   3
HETATM    3  C   UNL     1     -42.183  57.767 -51.290  1.00  0.00     0.245 C 
HETATM    4  N   UNL     1     -42.579  56.879 -52.274  1.00  0.00    -0.267 N 
HETATM    5  H   UNL     1     -43.488  56.950 -52.734  1.00  0.00     0.190 HD
HETATM    6  O   UNL     1     -41.259  57.511 -50.516  1.00  0.00    -0.271 OA
BRANCH   4   7
HETATM    7  N   UNL     1     -42.056  55.574 -52.212  1.00  0.00    -0.263 N 
HETATM    8  C   UNL     1     -41.099  55.241 -53.153  1.00  0.00     0.270 C 
HETATM    9  O   UNL     1     -40.624  56.080 -53.916  1.00  0.00    -0.266 OA
HETATM   10  H   UNL     1     -42.655  54.879 -51.770  1.00  0.00     0.190 HD
BRANCH   8  11
HETATM   11  C   UNL     1     -40.691  53.809 -53.230  1.00  0.00     0.033 A 
HETATM   12  C   UNL     1     -40.816  53.048 -54.400  1.00  0.00     0.017 A 
HETATM   13  C   UNL     1     -40.418  51.707 -54.413  1.00  0.00     0.007 A 
HETATM   14  C   UNL     1     -39.891  51.109 -53.262  1.00  0.00    -0.062 A 
HETATM   15  C   UNL     1     -39.496  49.661 -53.264  1.00  0.00     0.048 C 
HETATM   16  C   UNL     1     -39.791  51.864 -52.088  1.00  0.00     0.007 A 
HETATM   17  C   UNL     1     -40.186  53.204 -52.073  1.00  0.00     0.017 A 
ENDBRANCH   8  11
ENDBRANCH   4   7
ENDBRANCH   2   3
ENDBRANCH   1   2
BRANCH   1  18
HETATM   18  C   UNL     1     -44.634  59.392 -53.424  1.00  0.00     0.185 A 
HETATM   19  N   UNL     1     -43.592  59.430 -54.211  1.00  0.00    -0.204 NA
HETATM   20  C   UNL     1     -44.107  59.980 -55.368  1.00  0.00     0.166 A 
HETATM   21  N   UNL     1     -45.422  60.258 -55.320  1.00  0.00    -0.155 NA
HETATM   22  N   UNL     1     -45.726  59.893 -54.061  1.00  0.00    -0.254 N 
HETATM   23  H   UNL     1     -46.683  59.942 -53.723  1.00  0.00     0.191 HD
BRANCH  20  24
HETATM   24  C   UNL     1     -43.247  60.272 -56.573  1.00  0.00     0.202 C 
BRANCH  24  25
HETATM   25  N   UNL     1     -42.290  59.223 -56.946  1.00  0.00    -0.383 N 
HETATM   26  H   UNL     1     -41.533  59.151 -56.271  1.00  0.00     0.160 HD
BRANCH  25  27
HETATM   27  C   UNL     1     -42.734  57.983 -57.402  1.00  0.00     0.028 A 
HETATM   28  C   UNL     1     -43.271  57.769 -58.679  1.00  0.00     0.036 A 
HETATM   29  C   UNL     1     -43.635  56.485 -59.121  1.00  0.00    -0.060 A 
HETATM   30  C   UNL     1     -44.216  56.278 -60.488  1.00  0.00     0.048 C 
HETATM   31  C   UNL     1     -43.418  55.388 -58.283  1.00  0.00     0.007 A 
HETATM   32  C   UNL     1     -42.845  55.572 -57.028  1.00  0.00     0.003 A 
HETATM   33  C   UNL     1     -42.497  56.857 -56.602  1.00  0.00     0.029 A 
ENDBRANCH  25  27
ENDBRANCH  24  25
ENDBRANCH  20  24
ENDBRANCH   1  18
TORSDOF 8
ENDMDL
MODEL 10
REMARK VINA RESULT:      -7.1      2.890      4.075
REMARK  8 active torsions:
REMARK  status: ('A' for Active; 'I' for Inactive)
REMARK    1  A    between atoms: C_5  and  C_6 
REMARK       I    between atoms: C_6  and  N_7 
REMARK    2  A    between atoms: N_7  and  N_8 
REMARK       I    between atoms: N_8  and  C_9 
REMARK    3  A    between atoms: C_9  and  C_10 
REMARK    4  A    between atoms: C_10  and  S_11 
REMARK    5  A    between atoms: S_11  and  C_12 
REMARK    6  A    between atoms: C_14  and  C_15 
REMARK    7  A    between atoms: C_15  and  N_16 
REMARK    8  A    between atoms: N_16  and  C_17 
ROOT
HETATM    1  S   UNL     1     -44.911  57.534 -60.322  1.00  0.00    -0.081 SA
ENDROOT
BRANCH   1   2
HETATM    2  C   UNL     1     -43.238  56.927 -59.957  1.00  0.00     0.187 C 
BRANCH   2   3
HETATM    3  C   UNL     1     -43.214  55.923 -58.815  1.00  0.00     0.245 C 
HETATM    4  N   UNL     1     -42.422  56.325 -57.754  1.00  0.00    -0.267 N 
HETATM    5  H   UNL     1     -41.716  57.057 -57.852  1.00  0.00     0.190 HD
HETATM    6  O   UNL     1     -43.821  54.850 -58.803  1.00  0.00    -0.271 OA
BRANCH   4   7
HETATM    7  N   UNL     1     -42.138  55.368 -56.763  1.00  0.00    -0.263 N 
HETATM    8  C   UNL     1     -41.810  55.848 -55.508  1.00  0.00     0.270 C 
HETATM    9  O   UNL     1     -41.899  57.043 -55.231  1.00  0.00    -0.266 OA
HETATM   10  H   UNL     1     -41.821  54.461 -57.102  1.00  0.00     0.190 HD
BRANCH   8  11
HETATM   11  C   UNL     1     -41.307  54.861 -54.511  1.00  0.00     0.033 A 
HETATM   12  C   UNL     1     -41.477  55.025 -53.130  1.00  0.00     0.017 A 
HETATM   13  C   UNL     1     -40.980  54.065 -52.242  1.00  0.00     0.007 A 
HETATM   14  C   UNL     1     -40.311  52.932 -52.718  1.00  0.00    -0.062 A 
HETATM   15  C   UNL     1     -39.747  51.918 -51.766  1.00  0.00     0.048 C 
HETATM   16  C   UNL     1     -40.120  52.783 -54.096  1.00  0.00     0.007 A 
HETATM   17  C   UNL     1     -40.616  53.739 -54.986  1.00  0.00     0.017 A 
ENDBRANCH   8  11
ENDBRANCH   4   7
ENDBRANCH   2   3
ENDBRANCH   1   2
BRANCH   1  18
HETATM   18  C   UNL     1     -45.390  58.079 -58.761  1.00  0.00     0.185 A 
HETATM   19  N   UNL     1     -44.871  59.051 -58.058  1.00  0.00    -0.204 NA
HETATM   20  C   UNL     1     -45.655  59.054 -56.923  1.00  0.00     0.166 A 
HETATM   21  N   UNL     1     -46.639  58.138 -56.918  1.00  0.00    -0.155 NA
HETATM   22  N   UNL     1     -46.432  57.517 -58.092  1.00  0.00    -0.254 N 
HETATM   23  H   UNL     1     -47.058  56.781 -58.410  1.00  0.00     0.191 HD
BRANCH  20  24
HETATM   24  C   UNL     1     -45.400  59.994 -55.770  1.00  0.00     0.202 C 
BRANCH  24  25
HETATM   25  N   UNL     1     -44.395  59.553 -54.795  1.00  0.00    -0.383 N 
HETATM   26  H   UNL     1     -43.578  60.158 -54.801  1.00  0.00     0.160 HD
BRANCH  25  27
HETATM   27  C   UNL     1     -44.771  59.156 -53.513  1.00  0.00     0.028 A 
HETATM   28  C   UNL     1     -44.287  58.002 -52.882  1.00  0.00     0.036 A 
HETATM   29  C   UNL     1     -44.638  57.684 -51.558  1.00  0.00    -0.060 A 
HETATM   30  C   UNL     1     -44.117  56.440 -50.902  1.00  0.00     0.048 C 
HETATM   31  C   UNL     1     -45.456  58.560 -50.839  1.00  0.00     0.007 A 
HETATM   32  C   UNL     1     -45.911  59.733 -51.432  1.00  0.00     0.003 A 
HETATM   33  C   UNL     1     -45.560  60.029 -52.752  1.00  0.00     0.029 A 
ENDBRANCH  25  27
ENDBRANCH  24  25
ENDBRANCH  20  24
ENDBRANCH   1  18
TORSDOF 8
ENDMDL
