MODEL 1
REMARK VINA RESULT:      -9.2      0.000      0.000
REMARK  7 active torsions:
REMARK  status: ('A' for Active; 'I' for Inactive)
REMARK    1  A    between atoms: C_1  and  C_2 
REMARK    2  A    between atoms: C_1  and  O_9 
REMARK    3  A    between atoms: C_2  and  N_3 
REMARK    4  A    between atoms: O_9  and  C_10 
REMARK    5  A    between atoms: C_15  and  C_31 
REMARK    6  A    between atoms: C_17  and  N_18 
REMARK    7  A    between atoms: N_18  and  C_19 
ROOT
HETATM    1  C   UNL     1     -42.320  58.551 -51.358  1.00  0.00     0.069 A 
HETATM    2  C   UNL     1     -41.449  58.010 -50.422  1.00  0.00     0.039 A 
HETATM    3  C   UNL     1     -40.963  56.708 -50.592  1.00  0.00     0.035 A 
HETATM    4  C   UNL     1     -41.326  55.921 -51.676  1.00  0.00     0.073 A 
HETATM    5  N   UNL     1     -40.813  54.692 -51.767  1.00  0.00    -0.228 NA
HETATM    6  C   UNL     1     -41.182  53.942 -52.817  1.00  0.00     0.162 A 
HETATM    7  N   UNL     1     -42.032  54.347 -53.770  1.00  0.00    -0.210 NA
HETATM    8  C   UNL     1     -42.540  55.588 -53.679  1.00  0.00     0.143 A 
HETATM    9  C   UNL     1     -42.209  56.452 -52.621  1.00  0.00     0.041 A 
HETATM   10  C   UNL     1     -42.705  57.769 -52.447  1.00  0.00     0.054 A 
ENDROOT
BRANCH   8  11
HETATM   11  N   UNL     1     -43.422  56.041 -54.698  1.00  0.00    -0.340 N 
HETATM   12  H   UNL     1     -44.181  56.560 -54.271  1.00  0.00     0.167 HD
BRANCH  11  13
HETATM   13  C   UNL     1     -43.059  56.563 -55.963  1.00  0.00     0.034 A 
HETATM   14  C   UNL     1     -42.717  57.921 -56.075  1.00  0.00     0.032 A 
HETATM   15  C   UNL     1     -42.395  58.511 -57.306  1.00  0.00     0.034 A 
HETATM   16  C   UNL     1     -42.457  57.692 -58.436  1.00  0.00     0.062 A 
HETATM   17  N   UNL     1     -42.215  57.940 -59.762  1.00  0.00    -0.278 N 
HETATM   18  C   UNL     1     -42.821  56.354 -58.376  1.00  0.00     0.013 A 
HETATM   19  H   UNL     1     -41.925  58.814 -60.184  1.00  0.00     0.189 HD
HETATM   20  N   UNL     1     -42.403  56.877 -60.564  1.00  0.00    -0.186 NA
HETATM   21  C   UNL     1     -42.774  55.913 -59.716  1.00  0.00     0.152 A 
HETATM   22  C   UNL     1     -43.137  55.783 -57.130  1.00  0.00     0.044 A 
ENDBRANCH  11  13
ENDBRANCH   8  11
BRANCH   6  23
HETATM   23  C   UNL     1     -40.598  52.592 -52.947  1.00  0.00     0.012 A 
HETATM   24  C   UNL     1     -39.986  51.945 -51.855  1.00  0.00     0.015 A 
HETATM   25  C   UNL     1     -39.425  50.669 -51.981  1.00  0.00     0.001 A 
HETATM   26  C   UNL     1     -39.461  50.009 -53.205  1.00  0.00     0.000 A 
HETATM   27  C   UNL     1     -40.059  50.622 -54.302  1.00  0.00     0.001 A 
HETATM   28  C   UNL     1     -40.620  51.896 -54.172  1.00  0.00     0.015 A 
ENDBRANCH   6  23
BRANCH   1  29
HETATM   29  O   UNL     1     -42.858  59.807 -51.328  1.00  0.00    -0.349 OA
BRANCH  29  30
HETATM   30  C   UNL     1     -42.479  60.645 -50.229  1.00  0.00     0.206 C 
BRANCH  30  31
HETATM   31  C   UNL     1     -43.697  61.494 -49.825  1.00  0.00     0.299 C 
BRANCH  31  32
HETATM   32  N   UNL     1     -44.937  60.717 -49.644  1.00  0.00     0.094 N 
HETATM   33  C   UNL     1     -45.437  60.709 -48.251  1.00  0.00     0.298 C 
HETATM   34  C   UNL     1     -46.053  62.044 -47.797  1.00  0.00     0.198 C 
HETATM   35  O   UNL     1     -47.108  62.455 -48.674  1.00  0.00    -0.388 OA
HETATM   36  C   UNL     1     -46.636  62.561 -50.024  1.00  0.00     0.198 C 
HETATM   37  C   UNL     1     -46.022  61.236 -50.512  1.00  0.00     0.298 C 
ENDBRANCH  31  32
ENDBRANCH  30  31
ENDBRANCH  29  30
ENDBRANCH   1  29
TORSDOF 7
ENDMDL
MODEL 2
REMARK VINA RESULT:      -9.0      1.702      2.271
REMARK  7 active torsions:
REMARK  status: ('A' for Active; 'I' for Inactive)
REMARK    1  A    between atoms: C_1  and  C_2 
REMARK    2  A    between atoms: C_1  and  O_9 
REMARK    3  A    between atoms: C_2  and  N_3 
REMARK    4  A    between atoms: O_9  and  C_10 
REMARK    5  A    between atoms: C_15  and  C_31 
REMARK    6  A    between atoms: C_17  and  N_18 
REMARK    7  A    between atoms: N_18  and  C_19 
ROOT
HETATM    1  C   UNL     1     -44.587  58.500 -52.854  1.00  0.00     0.069 A 
HETATM    2  C   UNL     1     -44.705  57.680 -51.739  1.00  0.00     0.039 A 
HETATM    3  C   UNL     1     -43.995  56.475 -51.680  1.00  0.00     0.035 A 
HETATM    4  C   UNL     1     -43.165  56.056 -52.711  1.00  0.00     0.073 A 
HETATM    5  N   UNL     1     -42.520  54.897 -52.574  1.00  0.00    -0.228 NA
HETATM    6  C   UNL     1     -41.728  54.504 -53.584  1.00  0.00     0.162 A 
HETATM    7  N   UNL     1     -41.552  55.198 -54.716  1.00  0.00    -0.210 NA
HETATM    8  C   UNL     1     -42.198  56.369 -54.847  1.00  0.00     0.143 A 
HETATM    9  C   UNL     1     -43.043  56.869 -53.842  1.00  0.00     0.041 A 
HETATM   10  C   UNL     1     -43.766  58.088 -53.904  1.00  0.00     0.054 A 
ENDROOT
BRANCH   8  11
HETATM   11  N   UNL     1     -41.999  57.129 -56.032  1.00  0.00    -0.340 N 
HETATM   12  H   UNL     1     -41.009  57.319 -56.140  1.00  0.00     0.167 HD
BRANCH  11  13
HETATM   13  C   UNL     1     -42.649  56.945 -57.277  1.00  0.00     0.034 A 
HETATM   14  C   UNL     1     -42.961  58.065 -58.064  1.00  0.00     0.032 A 
HETATM   15  C   UNL     1     -43.646  57.954 -59.282  1.00  0.00     0.034 A 
HETATM   16  C   UNL     1     -44.037  56.672 -59.675  1.00  0.00     0.062 A 
HETATM   17  N   UNL     1     -44.710  56.216 -60.778  1.00  0.00    -0.278 N 
HETATM   18  C   UNL     1     -43.778  55.541 -58.913  1.00  0.00     0.013 A 
HETATM   19  H   UNL     1     -45.060  56.761 -61.557  1.00  0.00     0.189 HD
HETATM   20  N   UNL     1     -44.916  54.887 -60.788  1.00  0.00    -0.186 NA
HETATM   21  C   UNL     1     -44.349  54.480 -59.648  1.00  0.00     0.152 A 
HETATM   22  C   UNL     1     -43.087  55.676 -57.695  1.00  0.00     0.044 A 
ENDBRANCH  11  13
ENDBRANCH   8  11
BRANCH   6  23
HETATM   23  C   UNL     1     -40.983  53.238 -53.432  1.00  0.00     0.012 A 
HETATM   24  C   UNL     1     -40.944  52.277 -54.463  1.00  0.00     0.015 A 
HETATM   25  C   UNL     1     -40.245  51.074 -54.315  1.00  0.00     0.001 A 
HETATM   26  C   UNL     1     -39.569  50.801 -53.131  1.00  0.00     0.000 A 
HETATM   27  C   UNL     1     -39.588  51.729 -52.095  1.00  0.00     0.001 A 
HETATM   28  C   UNL     1     -40.285  52.932 -52.246  1.00  0.00     0.015 A 
ENDBRANCH   6  23
BRANCH   1  29
HETATM   29  O   UNL     1     -45.204  59.704 -53.039  1.00  0.00    -0.349 OA
BRANCH  29  30
HETATM   30  C   UNL     1     -44.385  60.874 -52.922  1.00  0.00     0.206 C 
BRANCH  30  31
HETATM   31  C   UNL     1     -45.179  61.946 -52.155  1.00  0.00     0.299 C 
BRANCH  31  32
HETATM   32  N   UNL     1     -44.572  62.338 -50.870  1.00  0.00     0.094 N 
HETATM   33  C   UNL     1     -45.410  63.258 -50.070  1.00  0.00     0.298 C 
HETATM   34  C   UNL     1     -46.643  62.592 -49.434  1.00  0.00     0.198 C 
HETATM   35  O   UNL     1     -46.268  61.473 -48.623  1.00  0.00    -0.388 OA
HETATM   36  C   UNL     1     -45.527  60.514 -49.390  1.00  0.00     0.198 C 
HETATM   37  C   UNL     1     -44.281  61.149 -50.033  1.00  0.00     0.298 C 
ENDBRANCH  31  32
ENDBRANCH  30  31
ENDBRANCH  29  30
ENDBRANCH   1  29
TORSDOF 7
ENDMDL
MODEL 3
REMARK VINA RESULT:      -9.0      1.386      1.960
REMARK  7 active torsions:
REMARK  status: ('A' for Active; 'I' for Inactive)
REMARK    1  A    between atoms: C_1  and  C_2 
REMARK    2  A    between atoms: C_1  and  O_9 
REMARK    3  A    between atoms: C_2  and  N_3 
REMARK    4  A    between atoms: O_9  and  C_10 
REMARK    5  A    between atoms: C_15  and  C_31 
REMARK    6  A    between atoms: C_17  and  N_18 
REMARK    7  A    between atoms: N_18  and  C_19 
ROOT
HETATM    1  C   UNL     1     -42.500  59.293 -52.727  1.00  0.00     0.069 A 
HETATM    2  C   UNL     1     -41.621  58.918 -51.720  1.00  0.00     0.039 A 
HETATM    3  C   UNL     1     -41.132  57.608 -51.673  1.00  0.00     0.035 A 
HETATM    4  C   UNL     1     -41.498  56.649 -52.608  1.00  0.00     0.073 A 
HETATM    5  N   UNL     1     -40.982  55.424 -52.495  1.00  0.00    -0.228 NA
HETATM    6  C   UNL     1     -41.355  54.507 -53.402  1.00  0.00     0.162 A 
HETATM    7  N   UNL     1     -42.213  54.745 -54.404  1.00  0.00    -0.210 NA
HETATM    8  C   UNL     1     -42.724  55.983 -54.518  1.00  0.00     0.143 A 
HETATM    9  C   UNL     1     -42.390  57.012 -53.622  1.00  0.00     0.041 A 
HETATM   10  C   UNL     1     -42.889  58.339 -53.668  1.00  0.00     0.054 A 
ENDROOT
BRANCH   8  11
HETATM   11  N   UNL     1     -43.615  56.256 -55.593  1.00  0.00    -0.340 N 
HETATM   12  H   UNL     1     -44.396  56.800 -55.244  1.00  0.00     0.167 HD
BRANCH  11  13
HETATM   13  C   UNL     1     -43.261  56.613 -56.916  1.00  0.00     0.034 A 
HETATM   14  C   UNL     1     -43.165  55.613 -57.898  1.00  0.00     0.032 A 
HETATM   15  C   UNL     1     -42.774  55.893 -59.215  1.00  0.00     0.034 A 
HETATM   16  C   UNL     1     -42.450  57.219 -59.510  1.00  0.00     0.062 A 
HETATM   17  N   UNL     1     -42.035  57.826 -60.666  1.00  0.00    -0.278 N 
HETATM   18  C   UNL     1     -42.498  58.234 -58.563  1.00  0.00     0.013 A 
HETATM   19  H   UNL     1     -41.886  57.395 -61.571  1.00  0.00     0.189 HD
HETATM   20  N   UNL     1     -41.801  59.145 -60.544  1.00  0.00    -0.186 NA
HETATM   21  C   UNL     1     -42.084  59.389 -59.261  1.00  0.00     0.152 A 
HETATM   22  C   UNL     1     -42.897  57.929 -57.250  1.00  0.00     0.044 A 
ENDBRANCH  11  13
ENDBRANCH   8  11
BRANCH   6  23
HETATM   23  C   UNL     1     -40.767  53.156 -53.308  1.00  0.00     0.012 A 
HETATM   24  C   UNL     1     -40.122  52.712 -52.136  1.00  0.00     0.015 A 
HETATM   25  C   UNL     1     -39.558  51.435 -52.052  1.00  0.00     0.001 A 
HETATM   26  C   UNL     1     -39.623  50.569 -53.138  1.00  0.00     0.000 A 
HETATM   27  C   UNL     1     -40.253  50.979 -54.309  1.00  0.00     0.001 A 
HETATM   28  C   UNL     1     -40.818  52.255 -54.391  1.00  0.00     0.015 A 
ENDBRANCH   6  23
BRANCH   1  29
HETATM   29  O   UNL     1     -43.042  60.535 -52.904  1.00  0.00    -0.349 OA
BRANCH  29  30
HETATM   30  C   UNL     1     -44.289  60.601 -53.606  1.00  0.00     0.206 C 
BRANCH  30  31
HETATM   31  C   UNL     1     -45.158  61.688 -52.949  1.00  0.00     0.299 C 
BRANCH  31  32
HETATM   32  N   UNL     1     -46.403  61.178 -52.346  1.00  0.00     0.094 N 
HETATM   33  C   UNL     1     -46.217  59.951 -51.540  1.00  0.00     0.298 C 
HETATM   34  C   UNL     1     -45.506  60.184 -50.195  1.00  0.00     0.198 C 
HETATM   35  O   UNL     1     -46.193  61.164 -49.408  1.00  0.00    -0.388 OA
HETATM   36  C   UNL     1     -46.314  62.400 -50.126  1.00  0.00     0.198 C 
HETATM   37  C   UNL     1     -47.030  62.201 -51.474  1.00  0.00     0.298 C 
ENDBRANCH  31  32
ENDBRANCH  30  31
ENDBRANCH  29  30
ENDBRANCH   1  29
TORSDOF 7
ENDMDL
MODEL 4
REMARK VINA RESULT:      -8.9      1.972      2.728
REMARK  7 active torsions:
REMARK  status: ('A' for Active; 'I' for Inactive)
REMARK    1  A    between atoms: C_1  and  C_2 
REMARK    2  A    between atoms: C_1  and  O_9 
REMARK    3  A    between atoms: C_2  and  N_3 
REMARK    4  A    between atoms: O_9  and  C_10 
REMARK    5  A    between atoms: C_15  and  C_31 
REMARK    6  A    between atoms: C_17  and  N_18 
REMARK    7  A    between atoms: N_18  and  C_19 
ROOT
HETATM    1  C   UNL     1     -42.145  57.956 -51.198  1.00  0.00     0.069 A 
HETATM    2  C   UNL     1     -41.239  57.382 -50.316  1.00  0.00     0.039 A 
HETATM    3  C   UNL     1     -40.757  56.089 -50.554  1.00  0.00     0.035 A 
HETATM    4  C   UNL     1     -41.157  55.343 -51.654  1.00  0.00     0.073 A 
HETATM    5  N   UNL     1     -40.645  54.121 -51.810  1.00  0.00    -0.228 NA
HETATM    6  C   UNL     1     -41.050  53.410 -52.874  1.00  0.00     0.162 A 
HETATM    7  N   UNL     1     -41.935  53.849 -53.780  1.00  0.00    -0.210 NA
HETATM    8  C   UNL     1     -42.442  55.083 -53.623  1.00  0.00     0.143 A 
HETATM    9  C   UNL     1     -42.075  55.907 -52.545  1.00  0.00     0.041 A 
HETATM   10  C   UNL     1     -42.568  57.215 -52.302  1.00  0.00     0.054 A 
ENDROOT
BRANCH   8  11
HETATM   11  N   UNL     1     -43.362  55.571 -54.591  1.00  0.00    -0.340 N 
HETATM   12  H   UNL     1     -44.119  56.050 -54.116  1.00  0.00     0.167 HD
BRANCH  11  13
HETATM   13  C   UNL     1     -43.046  56.171 -55.834  1.00  0.00     0.034 A 
HETATM   14  C   UNL     1     -42.736  57.540 -55.880  1.00  0.00     0.032 A 
HETATM   15  C   UNL     1     -42.460  58.203 -57.085  1.00  0.00     0.034 A 
HETATM   16  C   UNL     1     -42.537  57.446 -58.256  1.00  0.00     0.062 A 
HETATM   17  N   UNL     1     -42.337  57.772 -59.572  1.00  0.00    -0.278 N 
HETATM   18  C   UNL     1     -42.871  56.100 -58.260  1.00  0.00     0.013 A 
HETATM   19  H   UNL     1     -42.077  58.674 -59.953  1.00  0.00     0.189 HD
HETATM   20  N   UNL     1     -42.525  56.751 -60.427  1.00  0.00    -0.186 NA
HETATM   21  C   UNL     1     -42.852  55.734 -59.624  1.00  0.00     0.152 A 
HETATM   22  C   UNL     1     -43.140  55.454 -57.040  1.00  0.00     0.044 A 
ENDBRANCH  11  13
ENDBRANCH   8  11
BRANCH   6  23
HETATM   23  C   UNL     1     -40.468  52.068 -53.077  1.00  0.00     0.012 A 
HETATM   24  C   UNL     1     -40.477  51.444 -54.341  1.00  0.00     0.015 A 
HETATM   25  C   UNL     1     -39.934  50.169 -54.530  1.00  0.00     0.001 A 
HETATM   26  C   UNL     1     -39.370  49.484 -53.459  1.00  0.00     0.000 A 
HETATM   27  C   UNL     1     -39.346  50.074 -52.199  1.00  0.00     0.001 A 
HETATM   28  C   UNL     1     -39.888  51.349 -52.013  1.00  0.00     0.015 A 
ENDBRANCH   6  23
BRANCH   1  29
HETATM   29  O   UNL     1     -42.684  59.208 -51.101  1.00  0.00    -0.349 OA
BRANCH  29  30
HETATM   30  C   UNL     1     -44.070  59.342 -51.436  1.00  0.00     0.206 C 
BRANCH  30  31
HETATM   31  C   UNL     1     -44.226  60.547 -52.380  1.00  0.00     0.299 C 
BRANCH  31  32
HETATM   32  N   UNL     1     -43.989  60.232 -53.801  1.00  0.00     0.094 N 
HETATM   33  C   UNL     1     -45.216  60.241 -54.627  1.00  0.00     0.298 C 
HETATM   34  C   UNL     1     -45.780  61.647 -54.898  1.00  0.00     0.198 C 
HETATM   35  O   UNL     1     -44.797  62.493 -55.506  1.00  0.00    -0.388 OA
HETATM   36  C   UNL     1     -43.623  62.579 -54.687  1.00  0.00     0.198 C 
HETATM   37  C   UNL     1     -43.029  61.187 -54.405  1.00  0.00     0.298 C 
ENDBRANCH  31  32
ENDBRANCH  30  31
ENDBRANCH  29  30
ENDBRANCH   1  29
TORSDOF 7
ENDMDL
MODEL 5
REMARK VINA RESULT:      -8.8      3.213      7.354
REMARK  7 active torsions:
REMARK  status: ('A' for Active; 'I' for Inactive)
REMARK    1  A    between atoms: C_1  and  C_2 
REMARK    2  A    between atoms: C_1  and  O_9 
REMARK    3  A    between atoms: C_2  and  N_3 
REMARK    4  A    between atoms: O_9  and  C_10 
REMARK    5  A    between atoms: C_15  and  C_31 
REMARK    6  A    between atoms: C_17  and  N_18 
REMARK    7  A    between atoms: N_18  and  C_19 
ROOT
HETATM    1  C   UNL     1     -43.320  57.442 -57.294  1.00  0.00     0.069 A 
HETATM    2  C   UNL     1     -43.396  56.146 -57.789  1.00  0.00     0.039 A 
HETATM    3  C   UNL     1     -42.835  55.088 -57.065  1.00  0.00     0.035 A 
HETATM    4  C   UNL     1     -42.191  55.284 -55.851  1.00  0.00     0.073 A 
HETATM    5  N   UNL     1     -41.688  54.221 -55.222  1.00  0.00    -0.228 NA
HETATM    6  C   UNL     1     -41.061  54.430 -54.053  1.00  0.00     0.162 A 
HETATM    7  N   UNL     1     -40.905  55.635 -53.488  1.00  0.00    -0.210 NA
HETATM    8  C   UNL     1     -41.420  56.703 -54.122  1.00  0.00     0.143 A 
HETATM    9  C   UNL     1     -42.100  56.585 -55.346  1.00  0.00     0.041 A 
HETATM   10  C   UNL     1     -42.665  57.658 -56.082  1.00  0.00     0.054 A 
ENDROOT
BRANCH   8  11
HETATM   11  N   UNL     1     -41.286  57.984 -53.520  1.00  0.00    -0.340 N 
HETATM   12  H   UNL     1     -40.923  58.635 -54.207  1.00  0.00     0.167 HD
BRANCH  11  13
HETATM   13  C   UNL     1     -42.194  58.599 -52.625  1.00  0.00     0.034 A 
HETATM   14  C   UNL     1     -41.804  59.760 -51.937  1.00  0.00     0.032 A 
HETATM   15  C   UNL     1     -42.639  60.390 -51.002  1.00  0.00     0.034 A 
HETATM   16  C   UNL     1     -43.878  59.794 -50.757  1.00  0.00     0.062 A 
HETATM   17  N   UNL     1     -44.910  60.136 -49.922  1.00  0.00    -0.278 N 
HETATM   18  C   UNL     1     -44.290  58.629 -51.389  1.00  0.00     0.013 A 
HETATM   19  H   UNL     1     -44.964  60.934 -49.301  1.00  0.00     0.189 HD
HETATM   20  N   UNL     1     -45.950  59.284 -49.955  1.00  0.00    -0.186 NA
HETATM   21  C   UNL     1     -45.568  58.366 -50.849  1.00  0.00     0.152 A 
HETATM   22  C   UNL     1     -43.438  58.017 -52.325  1.00  0.00     0.044 A 
ENDBRANCH  11  13
ENDBRANCH   8  11
BRANCH   6  23
HETATM   23  C   UNL     1     -40.527  53.259 -53.330  1.00  0.00     0.012 A 
HETATM   24  C   UNL     1     -40.399  53.254 -51.927  1.00  0.00     0.015 A 
HETATM   25  C   UNL     1     -39.885  52.148 -51.243  1.00  0.00     0.001 A 
HETATM   26  C   UNL     1     -39.483  51.017 -51.946  1.00  0.00     0.000 A 
HETATM   27  C   UNL     1     -39.597  50.991 -53.333  1.00  0.00     0.001 A 
HETATM   28  C   UNL     1     -40.114  52.098 -54.014  1.00  0.00     0.015 A 
ENDBRANCH   6  23
BRANCH   1  29
HETATM   29  O   UNL     1     -43.834  58.562 -57.883  1.00  0.00    -0.349 OA
BRANCH  29  30
HETATM   30  C   UNL     1     -45.132  58.983 -57.446  1.00  0.00     0.206 C 
BRANCH  30  31
HETATM   31  C   UNL     1     -46.178  58.420 -58.423  1.00  0.00     0.299 C 
BRANCH  31  32
HETATM   32  N   UNL     1     -45.689  58.271 -59.806  1.00  0.00     0.094 N 
HETATM   33  C   UNL     1     -45.858  56.908 -60.355  1.00  0.00     0.298 C 
HETATM   34  C   UNL     1     -47.314  56.542 -60.692  1.00  0.00     0.198 C 
HETATM   35  O   UNL     1     -47.891  57.489 -61.599  1.00  0.00    -0.388 OA
HETATM   36  C   UNL     1     -47.826  58.815 -61.059  1.00  0.00     0.198 C 
HETATM   37  C   UNL     1     -46.378  59.215 -60.719  1.00  0.00     0.298 C 
ENDBRANCH  31  32
ENDBRANCH  30  31
ENDBRANCH  29  30
ENDBRANCH   1  29
TORSDOF 7
ENDMDL
MODEL 6
REMARK VINA RESULT:      -8.7      1.655      2.114
REMARK  7 active torsions:
REMARK  status: ('A' for Active; 'I' for Inactive)
REMARK    1  A    between atoms: C_1  and  C_2 
REMARK    2  A    between atoms: C_1  and  O_9 
REMARK    3  A    between atoms: C_2  and  N_3 
REMARK    4  A    between atoms: O_9  and  C_10 
REMARK    5  A    between atoms: C_15  and  C_31 
REMARK    6  A    between atoms: C_17  and  N_18 
REMARK    7  A    between atoms: N_18  and  C_19 
ROOT
HETATM    1  C   UNL     1     -41.684  58.444 -51.685  1.00  0.00     0.069 A 
HETATM    2  C   UNL     1     -41.569  57.674 -50.535  1.00  0.00     0.039 A 
HETATM    3  C   UNL     1     -41.273  56.309 -50.635  1.00  0.00     0.035 A 
HETATM    4  C   UNL     1     -41.089  55.682 -51.860  1.00  0.00     0.073 A 
HETATM    5  N   UNL     1     -40.804  54.378 -51.867  1.00  0.00    -0.228 NA
HETATM    6  C   UNL     1     -40.639  53.786 -53.061  1.00  0.00     0.162 A 
HETATM    7  N   UNL     1     -40.747  54.420 -54.237  1.00  0.00    -0.210 NA
HETATM    8  C   UNL     1     -41.027  55.734 -54.224  1.00  0.00     0.143 A 
HETATM    9  C   UNL     1     -41.210  56.444 -53.026  1.00  0.00     0.041 A 
HETATM   10  C   UNL     1     -41.515  57.826 -52.925  1.00  0.00     0.054 A 
ENDROOT
BRANCH   8  11
HETATM   11  N   UNL     1     -41.117  56.424 -55.464  1.00  0.00    -0.340 N 
HETATM   12  H   UNL     1     -40.278  56.244 -56.004  1.00  0.00     0.167 HD
BRANCH  11  13
HETATM   13  C   UNL     1     -42.266  56.549 -56.282  1.00  0.00     0.034 A 
HETATM   14  C   UNL     1     -42.523  55.575 -57.261  1.00  0.00     0.032 A 
HETATM   15  C   UNL     1     -43.616  55.665 -58.135  1.00  0.00     0.034 A 
HETATM   16  C   UNL     1     -44.433  56.791 -58.013  1.00  0.00     0.062 A 
HETATM   17  N   UNL     1     -45.555  57.188 -58.693  1.00  0.00    -0.278 N 
HETATM   18  C   UNL     1     -44.197  57.794 -57.083  1.00  0.00     0.013 A 
HETATM   19  H   UNL     1     -46.024  56.702 -59.448  1.00  0.00     0.189 HD
HETATM   20  N   UNL     1     -46.058  58.367 -58.286  1.00  0.00    -0.186 NA
HETATM   21  C   UNL     1     -45.227  58.734 -57.306  1.00  0.00     0.152 A 
HETATM   22  C   UNL     1     -43.097  57.681 -56.215  1.00  0.00     0.044 A 
ENDBRANCH  11  13
ENDBRANCH   8  11
BRANCH   6  23
HETATM   23  C   UNL     1     -40.292  52.351 -53.084  1.00  0.00     0.012 A 
HETATM   24  C   UNL     1     -39.819  51.688 -51.934  1.00  0.00     0.015 A 
HETATM   25  C   UNL     1     -39.483  50.331 -51.958  1.00  0.00     0.001 A 
HETATM   26  C   UNL     1     -39.609  49.602 -53.136  1.00  0.00     0.000 A 
HETATM   27  C   UNL     1     -40.073  50.228 -54.289  1.00  0.00     0.001 A 
HETATM   28  C   UNL     1     -40.411  51.584 -54.261  1.00  0.00     0.015 A 
ENDBRANCH   6  23
BRANCH   1  29
HETATM   29  O   UNL     1     -41.951  59.782 -51.737  1.00  0.00    -0.349 OA
BRANCH  29  30
HETATM   30  C   UNL     1     -42.852  60.222 -52.761  1.00  0.00     0.206 C 
BRANCH  30  31
HETATM   31  C   UNL     1     -43.658  61.414 -52.218  1.00  0.00     0.299 C 
BRANCH  31  32
HETATM   32  N   UNL     1     -45.119  61.216 -52.250  1.00  0.00     0.094 N 
HETATM   33  C   UNL     1     -45.549  59.873 -51.801  1.00  0.00     0.298 C 
HETATM   34  C   UNL     1     -45.421  59.648 -50.284  1.00  0.00     0.198 C 
HETATM   35  O   UNL     1     -46.141  60.643 -49.548  1.00  0.00    -0.388 OA
HETATM   36  C   UNL     1     -45.688  61.959 -49.894  1.00  0.00     0.198 C 
HETATM   37  C   UNL     1     -45.811  62.219 -51.406  1.00  0.00     0.298 C 
ENDBRANCH  31  32
ENDBRANCH  30  31
ENDBRANCH  29  30
ENDBRANCH   1  29
TORSDOF 7
ENDMDL
MODEL 7
REMARK VINA RESULT:      -8.7      3.525      8.109
REMARK  7 active torsions:
REMARK  status: ('A' for Active; 'I' for Inactive)
REMARK    1  A    between atoms: C_1  and  C_2 
REMARK    2  A    between atoms: C_1  and  O_9 
REMARK    3  A    between atoms: C_2  and  N_3 
REMARK    4  A    between atoms: O_9  and  C_10 
REMARK    5  A    between atoms: C_15  and  C_31 
REMARK    6  A    between atoms: C_17  and  N_18 
REMARK    7  A    between atoms: N_18  and  C_19 
ROOT
HETATM    1  C   UNL     1     -42.976  57.200 -53.698  1.00  0.00     0.069 A 
HETATM    2  C   UNL     1     -42.466  58.428 -53.296  1.00  0.00     0.039 A 
HETATM    3  C   UNL     1     -42.046  59.357 -54.256  1.00  0.00     0.035 A 
HETATM    4  C   UNL     1     -42.117  59.096 -55.617  1.00  0.00     0.073 A 
HETATM    5  N   UNL     1     -41.701  60.038 -56.466  1.00  0.00    -0.228 NA
HETATM    6  C   UNL     1     -41.769  59.764 -57.778  1.00  0.00     0.162 A 
HETATM    7  N   UNL     1     -42.221  58.608 -58.284  1.00  0.00    -0.210 NA
HETATM    8  C   UNL     1     -42.646  57.665 -57.426  1.00  0.00     0.143 A 
HETATM    9  C   UNL     1     -42.621  57.860 -56.035  1.00  0.00     0.041 A 
HETATM   10  C   UNL     1     -43.043  56.916 -55.063  1.00  0.00     0.054 A 
ENDROOT
BRANCH   8  11
HETATM   11  N   UNL     1     -43.153  56.445 -57.950  1.00  0.00    -0.340 N 
HETATM   12  H   UNL     1     -43.247  55.775 -57.195  1.00  0.00     0.167 HD
BRANCH  11  13
HETATM   13  C   UNL     1     -44.168  56.298 -58.926  1.00  0.00     0.034 A 
HETATM   14  C   UNL     1     -44.093  55.238 -59.845  1.00  0.00     0.032 A 
HETATM   15  C   UNL     1     -45.039  55.065 -60.865  1.00  0.00     0.034 A 
HETATM   16  C   UNL     1     -46.057  56.018 -60.952  1.00  0.00     0.062 A 
HETATM   17  N   UNL     1     -47.117  56.151 -61.811  1.00  0.00    -0.278 N 
HETATM   18  C   UNL     1     -46.151  57.099 -60.087  1.00  0.00     0.013 A 
HETATM   19  H   UNL     1     -47.370  55.541 -62.579  1.00  0.00     0.189 HD
HETATM   20  N   UNL     1     -47.881  57.232 -61.579  1.00  0.00    -0.186 NA
HETATM   21  C   UNL     1     -47.289  57.809 -60.529  1.00  0.00     0.152 A 
HETATM   22  C   UNL     1     -45.192  57.250 -59.070  1.00  0.00     0.044 A 
ENDBRANCH  11  13
ENDBRANCH   8  11
BRANCH   6  23
HETATM   23  C   UNL     1     -41.342  60.809 -58.730  1.00  0.00     0.012 A 
HETATM   24  C   UNL     1     -41.734  60.779 -60.083  1.00  0.00     0.015 A 
HETATM   25  C   UNL     1     -41.321  61.765 -60.986  1.00  0.00     0.001 A 
HETATM   26  C   UNL     1     -40.504  62.805 -60.558  1.00  0.00     0.000 A 
HETATM   27  C   UNL     1     -40.101  62.863 -59.228  1.00  0.00     0.001 A 
HETATM   28  C   UNL     1     -40.516  61.878 -58.327  1.00  0.00     0.015 A 
ENDBRANCH   6  23
BRANCH   1  29
HETATM   29  O   UNL     1     -43.435  56.210 -52.877  1.00  0.00    -0.349 OA
BRANCH  29  30
HETATM   30  C   UNL     1     -43.228  54.861 -53.315  1.00  0.00     0.206 C 
BRANCH  30  31
HETATM   31  C   UNL     1     -42.357  54.141 -52.271  1.00  0.00     0.299 C 
BRANCH  31  32
HETATM   32  N   UNL     1     -40.908  54.341 -52.457  1.00  0.00     0.094 N 
HETATM   33  C   UNL     1     -40.072  53.563 -51.517  1.00  0.00     0.298 C 
HETATM   34  C   UNL     1     -40.034  52.053 -51.811  1.00  0.00     0.198 C 
HETATM   35  O   UNL     1     -39.598  51.796 -53.151  1.00  0.00    -0.388 OA
HETATM   36  C   UNL     1     -40.442  52.465 -54.098  1.00  0.00     0.198 C 
HETATM   37  C   UNL     1     -40.494  53.981 -53.835  1.00  0.00     0.298 C 
ENDBRANCH  31  32
ENDBRANCH  30  31
ENDBRANCH  29  30
ENDBRANCH   1  29
TORSDOF 7
ENDMDL
MODEL 8
REMARK VINA RESULT:      -8.7      2.866      7.253
REMARK  7 active torsions:
REMARK  status: ('A' for Active; 'I' for Inactive)
REMARK    1  A    between atoms: C_1  and  C_2 
REMARK    2  A    between atoms: C_1  and  O_9 
REMARK    3  A    between atoms: C_2  and  N_3 
REMARK    4  A    between atoms: O_9  and  C_10 
REMARK    5  A    between atoms: C_15  and  C_31 
REMARK    6  A    between atoms: C_17  and  N_18 
REMARK    7  A    between atoms: N_18  and  C_19 
ROOT
HETATM    1  C   UNL     1     -43.957  57.294 -56.000  1.00  0.00     0.069 A 
HETATM    2  C   UNL     1     -43.154  56.654 -56.935  1.00  0.00     0.039 A 
HETATM    3  C   UNL     1     -42.382  55.551 -56.551  1.00  0.00     0.035 A 
HETATM    4  C   UNL     1     -42.384  55.064 -55.251  1.00  0.00     0.073 A 
HETATM    5  N   UNL     1     -41.624  54.004 -54.970  1.00  0.00    -0.228 NA
HETATM    6  C   UNL     1     -41.632  53.552 -53.707  1.00  0.00     0.162 A 
HETATM    7  N   UNL     1     -42.348  54.100 -52.715  1.00  0.00    -0.210 NA
HETATM    8  C   UNL     1     -43.119  55.163 -53.005  1.00  0.00     0.143 A 
HETATM    9  C   UNL     1     -43.183  55.705 -54.300  1.00  0.00     0.041 A 
HETATM   10  C   UNL     1     -43.962  56.826 -54.686  1.00  0.00     0.054 A 
ENDROOT
BRANCH   8  11
HETATM   11  N   UNL     1     -43.905  55.738 -51.969  1.00  0.00    -0.340 N 
HETATM   12  H   UNL     1     -43.946  55.092 -51.188  1.00  0.00     0.167 HD
BRANCH  11  13
HETATM   13  C   UNL     1     -43.893  57.089 -51.546  1.00  0.00     0.034 A 
HETATM   14  C   UNL     1     -45.111  57.764 -51.363  1.00  0.00     0.032 A 
HETATM   15  C   UNL     1     -45.167  59.116 -50.992  1.00  0.00     0.034 A 
HETATM   16  C   UNL     1     -43.949  59.781 -50.840  1.00  0.00     0.062 A 
HETATM   17  N   UNL     1     -43.648  61.074 -50.498  1.00  0.00    -0.278 N 
HETATM   18  C   UNL     1     -42.724  59.163 -51.043  1.00  0.00     0.013 A 
HETATM   19  H   UNL     1     -44.294  61.821 -50.275  1.00  0.00     0.189 HD
HETATM   20  N   UNL     1     -42.330  61.344 -50.473  1.00  0.00    -0.186 NA
HETATM   21  C   UNL     1     -41.771  60.178 -50.808  1.00  0.00     0.152 A 
HETATM   22  C   UNL     1     -42.691  57.806 -51.411  1.00  0.00     0.044 A 
ENDBRANCH  11  13
ENDBRANCH   8  11
BRANCH   6  23
HETATM   23  C   UNL     1     -40.819  52.361 -53.388  1.00  0.00     0.012 A 
HETATM   24  C   UNL     1     -40.200  52.205 -52.132  1.00  0.00     0.015 A 
HETATM   25  C   UNL     1     -39.423  51.081 -51.834  1.00  0.00     0.001 A 
HETATM   26  C   UNL     1     -39.245  50.083 -52.787  1.00  0.00     0.000 A 
HETATM   27  C   UNL     1     -39.843  50.208 -54.036  1.00  0.00     0.001 A 
HETATM   28  C   UNL     1     -40.621  51.332 -54.331  1.00  0.00     0.015 A 
ENDBRANCH   6  23
BRANCH   1  29
HETATM   29  O   UNL     1     -44.771  58.366 -56.236  1.00  0.00    -0.349 OA
BRANCH  29  30
HETATM   30  C   UNL     1     -44.760  58.906 -57.563  1.00  0.00     0.206 C 
BRANCH  30  31
HETATM   31  C   UNL     1     -45.912  58.265 -58.356  1.00  0.00     0.299 C 
BRANCH  31  32
HETATM   32  N   UNL     1     -45.752  58.344 -59.819  1.00  0.00     0.094 N 
HETATM   33  C   UNL     1     -44.576  57.606 -60.332  1.00  0.00     0.298 C 
HETATM   34  C   UNL     1     -44.732  56.076 -60.301  1.00  0.00     0.198 C 
HETATM   35  O   UNL     1     -45.899  55.659 -61.019  1.00  0.00    -0.388 OA
HETATM   36  C   UNL     1     -47.074  56.287 -60.491  1.00  0.00     0.198 C 
HETATM   37  C   UNL     1     -46.952  57.822 -60.516  1.00  0.00     0.298 C 
ENDBRANCH  31  32
ENDBRANCH  30  31
ENDBRANCH  29  30
ENDBRANCH   1  29
TORSDOF 7
ENDMDL
MODEL 9
REMARK VINA RESULT:      -8.6      3.047      7.267
REMARK  7 active torsions:
REMARK  status: ('A' for Active; 'I' for Inactive)
REMARK    1  A    between atoms: C_1  and  C_2 
REMARK    2  A    between atoms: C_1  and  O_9 
REMARK    3  A    between atoms: C_2  and  N_3 
REMARK    4  A    between atoms: O_9  and  C_10 
REMARK    5  A    between atoms: C_15  and  C_31 
REMARK    6  A    between atoms: C_17  and  N_18 
REMARK    7  A    between atoms: N_18  and  C_19 
ROOT
HETATM    1  C   UNL     1     -43.721  57.519 -57.982  1.00  0.00     0.069 A 
HETATM    2  C   UNL     1     -43.695  56.194 -58.398  1.00  0.00     0.039 A 
HETATM    3  C   UNL     1     -43.077  55.225 -57.598  1.00  0.00     0.035 A 
HETATM    4  C   UNL     1     -42.478  55.539 -56.386  1.00  0.00     0.073 A 
HETATM    5  N   UNL     1     -41.917  54.555 -55.683  1.00  0.00    -0.228 NA
HETATM    6  C   UNL     1     -41.334  54.879 -54.517  1.00  0.00     0.162 A 
HETATM    7  N   UNL     1     -41.277  56.124 -54.025  1.00  0.00    -0.210 NA
HETATM    8  C   UNL     1     -41.851  57.111 -54.733  1.00  0.00     0.143 A 
HETATM    9  C   UNL     1     -42.491  56.871 -55.961  1.00  0.00     0.041 A 
HETATM   10  C   UNL     1     -43.113  57.855 -56.773  1.00  0.00     0.054 A 
ENDROOT
BRANCH   8  11
HETATM   11  N   UNL     1     -41.822  58.433 -54.209  1.00  0.00    -0.340 N 
HETATM   12  H   UNL     1     -41.794  59.093 -54.979  1.00  0.00     0.167 HD
BRANCH  11  13
HETATM   13  C   UNL     1     -42.563  58.924 -53.108  1.00  0.00     0.034 A 
HETATM   14  C   UNL     1     -42.007  59.925 -52.294  1.00  0.00     0.032 A 
HETATM   15  C   UNL     1     -42.669  60.420 -51.161  1.00  0.00     0.034 A 
HETATM   16  C   UNL     1     -43.906  59.851 -50.852  1.00  0.00     0.062 A 
HETATM   17  N   UNL     1     -44.796  60.089 -49.838  1.00  0.00    -0.278 N 
HETATM   18  C   UNL     1     -44.477  58.837 -51.608  1.00  0.00     0.013 A 
HETATM   19  H   UNL     1     -44.714  60.767 -49.090  1.00  0.00     0.189 HD
HETATM   20  N   UNL     1     -45.890  59.308 -49.870  1.00  0.00    -0.186 NA
HETATM   21  C   UNL     1     -45.692  58.545 -50.949  1.00  0.00     0.152 A 
HETATM   22  C   UNL     1     -43.797  58.359 -52.742  1.00  0.00     0.044 A 
ENDBRANCH  11  13
ENDBRANCH   8  11
BRANCH   6  23
HETATM   23  C   UNL     1     -40.736  53.794 -53.713  1.00  0.00     0.012 A 
HETATM   24  C   UNL     1     -40.621  53.894 -52.312  1.00  0.00     0.015 A 
HETATM   25  C   UNL     1     -40.046  52.870 -51.551  1.00  0.00     0.001 A 
HETATM   26  C   UNL     1     -39.571  51.721 -52.173  1.00  0.00     0.000 A 
HETATM   27  C   UNL     1     -39.671  51.593 -53.555  1.00  0.00     0.001 A 
HETATM   28  C   UNL     1     -40.247  52.617 -54.313  1.00  0.00     0.015 A 
ENDBRANCH   6  23
BRANCH   1  29
HETATM   29  O   UNL     1     -44.299  58.562 -58.649  1.00  0.00    -0.349 OA
BRANCH  29  30
HETATM   30  C   UNL     1     -44.299  59.832 -57.985  1.00  0.00     0.206 C 
BRANCH  30  31
HETATM   31  C   UNL     1     -43.558  60.844 -58.877  1.00  0.00     0.299 C 
BRANCH  31  32
HETATM   32  N   UNL     1     -42.213  60.406 -59.294  1.00  0.00     0.094 N 
HETATM   33  C   UNL     1     -41.808  60.910 -60.624  1.00  0.00     0.298 C 
HETATM   34  C   UNL     1     -41.469  62.411 -60.652  1.00  0.00     0.198 C 
HETATM   35  O   UNL     1     -40.451  62.731 -59.697  1.00  0.00    -0.388 OA
HETATM   36  C   UNL     1     -40.849  62.336 -58.377  1.00  0.00     0.198 C 
HETATM   37  C   UNL     1     -41.186  60.835 -58.315  1.00  0.00     0.298 C 
ENDBRANCH  31  32
ENDBRANCH  30  31
ENDBRANCH  29  30
ENDBRANCH   1  29
TORSDOF 7
ENDMDL
MODEL 10
REMARK VINA RESULT:      -8.6      2.384      6.148
REMARK  7 active torsions:
REMARK  status: ('A' for Active; 'I' for Inactive)
REMARK    1  A    between atoms: C_1  and  C_2 
REMARK    2  A    between atoms: C_1  and  O_9 
REMARK    3  A    between atoms: C_2  and  N_3 
REMARK    4  A    between atoms: O_9  and  C_10 
REMARK    5  A    between atoms: C_15  and  C_31 
REMARK    6  A    between atoms: C_17  and  N_18 
REMARK    7  A    between atoms: N_18  and  C_19 
ROOT
HETATM    1  C   UNL     1     -44.368  57.561 -56.810  1.00  0.00     0.069 A 
HETATM    2  C   UNL     1     -43.525  56.826 -57.635  1.00  0.00     0.039 A 
HETATM    3  C   UNL     1     -42.715  55.824 -57.090  1.00  0.00     0.035 A 
HETATM    4  C   UNL     1     -42.716  55.530 -55.733  1.00  0.00     0.073 A 
HETATM    5  N   UNL     1     -41.917  54.555 -55.295  1.00  0.00    -0.228 NA
HETATM    6  C   UNL     1     -41.925  54.291 -53.979  1.00  0.00     0.162 A 
HETATM    7  N   UNL     1     -42.678  54.946 -53.084  1.00  0.00    -0.210 NA
HETATM    8  C   UNL     1     -43.487  55.922 -53.531  1.00  0.00     0.143 A 
HETATM    9  C   UNL     1     -43.554  56.267 -54.891  1.00  0.00     0.041 A 
HETATM   10  C   UNL     1     -44.373  57.287 -55.442  1.00  0.00     0.054 A 
ENDROOT
BRANCH   8  11
HETATM   11  N   UNL     1     -44.310  56.606 -52.596  1.00  0.00    -0.340 N 
HETATM   12  H   UNL     1     -44.712  55.932 -51.954  1.00  0.00     0.167 HD
BRANCH  11  13
HETATM   13  C   UNL     1     -44.032  57.844 -51.968  1.00  0.00     0.034 A 
HETATM   14  C   UNL     1     -42.704  58.168 -51.642  1.00  0.00     0.032 A 
HETATM   15  C   UNL     1     -42.367  59.356 -50.977  1.00  0.00     0.034 A 
HETATM   16  C   UNL     1     -43.419  60.202 -50.619  1.00  0.00     0.062 A 
HETATM   17  N   UNL     1     -43.445  61.409 -49.972  1.00  0.00    -0.278 N 
HETATM   18  C   UNL     1     -44.747  59.906 -50.891  1.00  0.00     0.013 A 
HETATM   19  H   UNL     1     -42.656  61.939 -49.621  1.00  0.00     0.189 HD
HETATM   20  N   UNL     1     -44.679  61.913 -49.794  1.00  0.00    -0.186 NA
HETATM   21  C   UNL     1     -45.470  60.993 -50.354  1.00  0.00     0.152 A 
HETATM   22  C   UNL     1     -45.062  58.711 -51.562  1.00  0.00     0.044 A 
ENDBRANCH  11  13
ENDBRANCH   8  11
BRANCH   6  23
HETATM   23  C   UNL     1     -41.070  53.193 -53.484  1.00  0.00     0.012 A 
HETATM   24  C   UNL     1     -40.659  52.142 -54.327  1.00  0.00     0.015 A 
HETATM   25  C   UNL     1     -39.855  51.098 -53.855  1.00  0.00     0.001 A 
HETATM   26  C   UNL     1     -39.445  51.079 -52.527  1.00  0.00     0.000 A 
HETATM   27  C   UNL     1     -39.834  52.104 -51.670  1.00  0.00     0.001 A 
HETATM   28  C   UNL     1     -40.635  53.147 -52.144  1.00  0.00     0.015 A 
ENDBRANCH   6  23
BRANCH   1  29
HETATM   29  O   UNL     1     -45.221  58.552 -57.206  1.00  0.00    -0.349 OA
BRANCH  29  30
HETATM   30  C   UNL     1     -44.624  59.754 -57.709  1.00  0.00     0.206 C 
BRANCH  30  31
HETATM   31  C   UNL     1     -44.667  60.817 -56.597  1.00  0.00     0.299 C 
BRANCH  31  32
HETATM   32  N   UNL     1     -43.417  61.586 -56.454  1.00  0.00     0.094 N 
HETATM   33  C   UNL     1     -43.411  62.503 -55.292  1.00  0.00     0.298 C 
HETATM   34  C   UNL     1     -43.284  61.794 -53.932  1.00  0.00     0.198 C 
HETATM   35  O   UNL     1     -42.116  60.967 -53.886  1.00  0.00    -0.388 OA
HETATM   36  C   UNL     1     -42.130  60.004 -54.947  1.00  0.00     0.198 C 
HETATM   37  C   UNL     1     -42.248  60.683 -56.324  1.00  0.00     0.298 C 
ENDBRANCH  31  32
ENDBRANCH  30  31
ENDBRANCH  29  30
ENDBRANCH   1  29
TORSDOF 7
ENDMDL
