MODEL 1
REMARK VINA RESULT:      -9.7      0.000      0.000
REMARK  7 active torsions:
REMARK  status: ('A' for Active; 'I' for Inactive)
REMARK    1  A    between atoms: C_5  and  N_6 
REMARK       I    between atoms: N_6  and  C_7 
REMARK    2  A    between atoms: C_7  and  C_8 
REMARK    3  A    between atoms: C_8  and  N_9 
REMARK    4  A    between atoms: N_12  and  C_13 
REMARK    5  A    between atoms: C_13  and  C_14 
REMARK    6  A    between atoms: C_29  and  C_30 
REMARK       I    between atoms: C_30  and  N_31 
REMARK    7  A    between atoms: N_31  and  C_32 
ROOT
HETATM    1  N   UNL     1     -42.354  59.578 -52.359  1.00  0.00    -0.290 N 
HETATM    2  C   UNL     1     -41.827  59.855 -53.610  1.00  0.00     0.332 C 
HETATM    3  O   UNL     1     -40.687  59.483 -53.902  1.00  0.00    -0.246 OA
HETATM    4  N   UNL     1     -42.636  60.554 -54.490  1.00  0.00    -0.261 N 
HETATM    5  C   UNL     1     -43.819  61.184 -54.139  1.00  0.00     0.264 C 
HETATM    6  O   UNL     1     -44.517  61.826 -54.919  1.00  0.00    -0.267 OA
HETATM    7  C   UNL     1     -44.253  61.044 -52.739  1.00  0.00     0.059 A 
HETATM    8  C   UNL     1     -43.526  60.219 -51.879  1.00  0.00     0.056 A 
HETATM    9  C   UNL     1     -45.418  61.698 -52.308  1.00  0.00     0.020 A 
HETATM   10  C   UNL     1     -45.873  61.527 -51.001  1.00  0.00     0.018 A 
HETATM   11  C   UNL     1     -45.162  60.699 -50.129  1.00  0.00     0.034 A 
HETATM   12  C   UNL     1     -43.983  60.064 -50.564  1.00  0.00     0.048 A 
ENDROOT
BRANCH   1  13
HETATM   13  C   UNL     1     -41.726  58.498 -51.591  1.00  0.00     0.237 C 
BRANCH  13  14
HETATM   14  C   UNL     1     -41.997  57.080 -52.090  1.00  0.00     0.240 C 
HETATM   15  N   UNL     1     -40.858  56.306 -52.223  1.00  0.00    -0.326 N 
HETATM   16  H   UNL     1     -39.984  56.734 -51.925  1.00  0.00     0.169 HD
HETATM   17  O   UNL     1     -43.134  56.768 -52.434  1.00  0.00    -0.271 OA
BRANCH  15  18
HETATM   18  C   UNL     1     -40.759  55.028 -52.811  1.00  0.00     0.034 A 
HETATM   19  C   UNL     1     -40.744  54.802 -54.188  1.00  0.00     0.030 A 
HETATM   20  C   UNL     1     -40.597  53.506 -54.698  1.00  0.00     0.009 A 
HETATM   21  C   UNL     1     -40.461  52.413 -53.838  1.00  0.00    -0.062 A 
HETATM   22  C   UNL     1     -40.328  51.026 -54.392  1.00  0.00     0.048 C 
HETATM   23  C   UNL     1     -40.507  52.633 -52.458  1.00  0.00     0.009 A 
HETATM   24  C   UNL     1     -40.644  53.930 -51.950  1.00  0.00     0.030 A 
ENDBRANCH  15  18
ENDBRANCH  13  14
ENDBRANCH   1  13
BRANCH   4  25
HETATM   25  C   UNL     1     -42.262  60.536 -55.901  1.00  0.00     0.175 C 
BRANCH  25  26
HETATM   26  C   UNL     1     -42.529  59.162 -56.492  1.00  0.00    -0.037 A 
HETATM   27  C   UNL     1     -42.078  58.847 -57.786  1.00  0.00     0.048 A 
HETATM   28  C   UNL     1     -42.453  57.636 -58.328  1.00  0.00     0.105 A 
HETATM   29  C   UNL     1     -43.235  56.742 -57.637  1.00  0.00     0.105 A 
HETATM   30  O   UNL     1     -42.138  57.192 -59.575  1.00  0.00    -0.323 OA
HETATM   31  O   UNL     1     -43.509  55.624 -58.360  1.00  0.00    -0.323 OA
HETATM   32  C   UNL     1     -43.681  57.004 -56.361  1.00  0.00     0.040 A 
HETATM   33  C   UNL     1     -42.829  55.925 -59.596  1.00  0.00     0.352 A 
HETATM   34  C   UNL     1     -43.326  58.228 -55.787  1.00  0.00     0.012 A 
ENDBRANCH  25  26
ENDBRANCH   4  25
BRANCH  11  35
HETATM   35  C   UNL     1     -45.596  60.474 -48.726  1.00  0.00     0.252 C 
HETATM   36  N   UNL     1     -45.400  61.526 -47.861  1.00  0.00    -0.352 N 
HETATM   37  H   UNL     1     -45.109  62.406 -48.264  1.00  0.00     0.163 HD
HETATM   38  O   UNL     1     -46.126  59.412 -48.441  1.00  0.00    -0.268 OA
BRANCH  36  39
HETATM   39  C   UNL     1     -45.872  61.604 -46.477  1.00  0.00     0.084 C 
HETATM   40  C   UNL     1     -44.871  62.289 -45.539  1.00  0.00     0.025 C 
HETATM   41  C   UNL     1     -45.073  63.792 -45.385  1.00  0.00     0.002 C 
HETATM   42  C   UNL     1     -46.515  64.130 -45.033  1.00  0.00     0.000 C 
HETATM   43  C   UNL     1     -47.495  63.586 -46.063  1.00  0.00     0.002 C 
HETATM   44  C   UNL     1     -47.320  62.090 -46.313  1.00  0.00     0.025 C 
ENDBRANCH  36  39
ENDBRANCH  11  35
TORSDOF 7
ENDMDL
MODEL 2
REMARK VINA RESULT:      -9.6      2.152      9.150
REMARK  7 active torsions:
REMARK  status: ('A' for Active; 'I' for Inactive)
REMARK    1  A    between atoms: C_5  and  N_6 
REMARK       I    between atoms: N_6  and  C_7 
REMARK    2  A    between atoms: C_7  and  C_8 
REMARK    3  A    between atoms: C_8  and  N_9 
REMARK    4  A    between atoms: N_12  and  C_13 
REMARK    5  A    between atoms: C_13  and  C_14 
REMARK    6  A    between atoms: C_29  and  C_30 
REMARK       I    between atoms: C_30  and  N_31 
REMARK    7  A    between atoms: N_31  and  C_32 
ROOT
HETATM    1  N   UNL     1     -42.633  58.450 -52.736  1.00  0.00    -0.290 N 
HETATM    2  C   UNL     1     -43.576  59.447 -52.543  1.00  0.00     0.332 C 
HETATM    3  O   UNL     1     -43.361  60.594 -52.944  1.00  0.00    -0.246 OA
HETATM    4  N   UNL     1     -44.744  59.087 -51.893  1.00  0.00    -0.261 N 
HETATM    5  C   UNL     1     -44.936  57.885 -51.231  1.00  0.00     0.264 C 
HETATM    6  O   UNL     1     -45.965  57.583 -50.632  1.00  0.00    -0.267 OA
HETATM    7  C   UNL     1     -43.826  56.918 -51.279  1.00  0.00     0.059 A 
HETATM    8  C   UNL     1     -42.703  57.208 -52.055  1.00  0.00     0.056 A 
HETATM    9  C   UNL     1     -43.940  55.701 -50.588  1.00  0.00     0.020 A 
HETATM   10  C   UNL     1     -42.922  54.752 -50.672  1.00  0.00     0.018 A 
HETATM   11  C   UNL     1     -41.794  55.022 -51.450  1.00  0.00     0.034 A 
HETATM   12  C   UNL     1     -41.680  56.253 -52.123  1.00  0.00     0.048 A 
ENDROOT
BRANCH   1  13
HETATM   13  C   UNL     1     -41.620  58.678 -53.772  1.00  0.00     0.237 C 
BRANCH  13  14
HETATM   14  C   UNL     1     -42.119  58.634 -55.215  1.00  0.00     0.240 C 
HETATM   15  N   UNL     1     -42.949  57.561 -55.488  1.00  0.00    -0.326 N 
HETATM   16  H   UNL     1     -43.183  56.960 -54.701  1.00  0.00     0.169 HD
HETATM   17  O   UNL     1     -41.683  59.443 -56.030  1.00  0.00    -0.271 OA
BRANCH  15  18
HETATM   18  C   UNL     1     -43.430  57.154 -56.750  1.00  0.00     0.034 A 
HETATM   19  C   UNL     1     -44.391  57.854 -57.480  1.00  0.00     0.030 A 
HETATM   20  C   UNL     1     -44.787  57.412 -58.749  1.00  0.00     0.009 A 
HETATM   21  C   UNL     1     -44.226  56.261 -59.308  1.00  0.00    -0.062 A 
HETATM   22  C   UNL     1     -44.672  55.781 -60.657  1.00  0.00     0.048 C 
HETATM   23  C   UNL     1     -43.286  55.540 -58.566  1.00  0.00     0.009 A 
HETATM   24  C   UNL     1     -42.884  55.990 -57.302  1.00  0.00     0.030 A 
ENDBRANCH  15  18
ENDBRANCH  13  14
ENDBRANCH   1  13
BRANCH   4  25
HETATM   25  C   UNL     1     -45.879  59.997 -52.003  1.00  0.00     0.175 C 
BRANCH  25  26
HETATM   26  C   UNL     1     -45.870  60.980 -50.845  1.00  0.00    -0.037 A 
HETATM   27  C   UNL     1     -45.190  60.669 -49.654  1.00  0.00     0.048 A 
HETATM   28  C   UNL     1     -45.316  61.534 -48.588  1.00  0.00     0.105 A 
HETATM   29  C   UNL     1     -46.071  62.680 -48.667  1.00  0.00     0.105 A 
HETATM   30  O   UNL     1     -44.758  61.366 -47.359  1.00  0.00    -0.323 OA
HETATM   31  O   UNL     1     -46.083  63.376 -47.500  1.00  0.00    -0.323 OA
HETATM   32  C   UNL     1     -46.738  63.030 -49.819  1.00  0.00     0.040 A 
HETATM   33  C   UNL     1     -45.266  62.527 -46.668  1.00  0.00     0.352 A 
HETATM   34  C   UNL     1     -46.637  62.169 -50.916  1.00  0.00     0.012 A 
ENDBRANCH  25  26
ENDBRANCH   4  25
BRANCH  11  35
HETATM   35  C   UNL     1     -40.677  54.050 -51.583  1.00  0.00     0.252 C 
HETATM   36  N   UNL     1     -40.662  53.309 -52.742  1.00  0.00    -0.352 N 
HETATM   37  H   UNL     1     -41.318  53.570 -53.465  1.00  0.00     0.163 HD
HETATM   38  O   UNL     1     -39.838  54.000 -50.699  1.00  0.00    -0.268 OA
BRANCH  36  39
HETATM   39  C   UNL     1     -39.597  52.400 -53.169  1.00  0.00     0.084 C 
HETATM   40  C   UNL     1     -39.035  51.551 -52.023  1.00  0.00     0.025 C 
HETATM   41  C   UNL     1     -39.716  50.200 -51.839  1.00  0.00     0.002 C 
HETATM   42  C   UNL     1     -39.782  49.425 -53.148  1.00  0.00     0.000 C 
HETATM   43  C   UNL     1     -40.494  50.212 -54.240  1.00  0.00     0.002 C 
HETATM   44  C   UNL     1     -39.901  51.603 -54.449  1.00  0.00     0.025 C 
ENDBRANCH  36  39
ENDBRANCH  11  35
TORSDOF 7
ENDMDL
MODEL 3
REMARK VINA RESULT:      -9.6      1.885      2.741
REMARK  7 active torsions:
REMARK  status: ('A' for Active; 'I' for Inactive)
REMARK    1  A    between atoms: C_5  and  N_6 
REMARK       I    between atoms: N_6  and  C_7 
REMARK    2  A    between atoms: C_7  and  C_8 
REMARK    3  A    between atoms: C_8  and  N_9 
REMARK    4  A    between atoms: N_12  and  C_13 
REMARK    5  A    between atoms: C_13  and  C_14 
REMARK    6  A    between atoms: C_29  and  C_30 
REMARK       I    between atoms: C_30  and  N_31 
REMARK    7  A    between atoms: N_31  and  C_32 
ROOT
HETATM    1  N   UNL     1     -42.807  57.698 -53.046  1.00  0.00    -0.290 N 
HETATM    2  C   UNL     1     -42.499  57.407 -54.364  1.00  0.00     0.332 C 
HETATM    3  O   UNL     1     -41.447  56.825 -54.645  1.00  0.00    -0.246 OA
HETATM    4  N   UNL     1     -43.419  57.796 -55.324  1.00  0.00    -0.261 N 
HETATM    5  C   UNL     1     -44.490  58.642 -55.087  1.00  0.00     0.264 C 
HETATM    6  O   UNL     1     -45.286  59.006 -55.949  1.00  0.00    -0.267 OA
HETATM    7  C   UNL     1     -44.673  59.106 -53.701  1.00  0.00     0.059 A 
HETATM    8  C   UNL     1     -43.844  58.603 -52.699  1.00  0.00     0.056 A 
HETATM    9  C   UNL     1     -45.713  60.003 -53.405  1.00  0.00     0.020 A 
HETATM   10  C   UNL     1     -45.935  60.404 -52.088  1.00  0.00     0.018 A 
HETATM   11  C   UNL     1     -45.118  59.905 -51.071  1.00  0.00     0.034 A 
HETATM   12  C   UNL     1     -44.066  59.023 -51.381  1.00  0.00     0.048 A 
ENDROOT
BRANCH   1  13
HETATM   13  C   UNL     1     -42.102  56.937 -52.009  1.00  0.00     0.237 C 
BRANCH  13  14
HETATM   14  C   UNL     1     -42.093  55.419 -52.184  1.00  0.00     0.240 C 
HETATM   15  N   UNL     1     -40.847  54.897 -52.481  1.00  0.00    -0.326 N 
HETATM   16  H   UNL     1     -40.072  55.556 -52.491  1.00  0.00     0.169 HD
HETATM   17  O   UNL     1     -43.157  54.805 -52.169  1.00  0.00    -0.271 OA
BRANCH  15  18
HETATM   18  C   UNL     1     -40.546  53.572 -52.859  1.00  0.00     0.034 A 
HETATM   19  C   UNL     1     -40.768  53.057 -54.137  1.00  0.00     0.030 A 
HETATM   20  C   UNL     1     -40.400  51.743 -54.451  1.00  0.00     0.009 A 
HETATM   21  C   UNL     1     -39.802  50.922 -53.492  1.00  0.00    -0.062 A 
HETATM   22  C   UNL     1     -39.433  49.508 -53.830  1.00  0.00     0.048 C 
HETATM   23  C   UNL     1     -39.608  51.425 -52.202  1.00  0.00     0.009 A 
HETATM   24  C   UNL     1     -39.966  52.742 -51.893  1.00  0.00     0.030 A 
ENDBRANCH  15  18
ENDBRANCH  13  14
ENDBRANCH   1  13
BRANCH   4  25
HETATM   25  C   UNL     1     -43.303  57.191 -56.646  1.00  0.00     0.175 C 
BRANCH  25  26
HETATM   26  C   UNL     1     -42.739  58.200 -57.632  1.00  0.00    -0.037 A 
HETATM   27  C   UNL     1     -41.954  59.274 -57.177  1.00  0.00     0.048 A 
HETATM   28  C   UNL     1     -41.571  60.233 -58.091  1.00  0.00     0.105 A 
HETATM   29  C   UNL     1     -41.926  60.155 -59.417  1.00  0.00     0.105 A 
HETATM   30  O   UNL     1     -40.846  61.350 -57.814  1.00  0.00    -0.323 OA
HETATM   31  O   UNL     1     -41.469  61.212 -60.140  1.00  0.00    -0.323 OA
HETATM   32  C   UNL     1     -42.678  59.111 -59.906  1.00  0.00     0.040 A 
HETATM   33  C   UNL     1     -40.804  61.976 -59.114  1.00  0.00     0.352 A 
HETATM   34  C   UNL     1     -43.089  58.127 -59.002  1.00  0.00     0.012 A 
ENDBRANCH  25  26
ENDBRANCH   4  25
BRANCH  11  35
HETATM   35  C   UNL     1     -45.306  60.292 -49.648  1.00  0.00     0.252 C 
HETATM   36  N   UNL     1     -44.634  61.421 -49.240  1.00  0.00    -0.352 N 
HETATM   37  H   UNL     1     -44.181  61.972 -49.956  1.00  0.00     0.163 HD
HETATM   38  O   UNL     1     -46.059  59.627 -48.956  1.00  0.00    -0.268 OA
BRANCH  36  39
HETATM   39  C   UNL     1     -44.769  62.083 -47.942  1.00  0.00     0.084 C 
HETATM   40  C   UNL     1     -45.954  63.054 -47.883  1.00  0.00     0.025 C 
HETATM   41  C   UNL     1     -47.254  62.439 -47.378  1.00  0.00     0.002 C 
HETATM   42  C   UNL     1     -47.050  61.702 -46.062  1.00  0.00     0.000 C 
HETATM   43  C   UNL     1     -45.984  60.621 -46.174  1.00  0.00     0.002 C 
HETATM   44  C   UNL     1     -44.662  61.150 -46.725  1.00  0.00     0.025 C 
ENDBRANCH  36  39
ENDBRANCH  11  35
TORSDOF 7
ENDMDL
MODEL 4
REMARK VINA RESULT:      -9.5      3.773      4.616
REMARK  7 active torsions:
REMARK  status: ('A' for Active; 'I' for Inactive)
REMARK    1  A    between atoms: C_5  and  N_6 
REMARK       I    between atoms: N_6  and  C_7 
REMARK    2  A    between atoms: C_7  and  C_8 
REMARK    3  A    between atoms: C_8  and  N_9 
REMARK    4  A    between atoms: N_12  and  C_13 
REMARK    5  A    between atoms: C_13  and  C_14 
REMARK    6  A    between atoms: C_29  and  C_30 
REMARK       I    between atoms: C_30  and  N_31 
REMARK    7  A    between atoms: N_31  and  C_32 
ROOT
HETATM    1  N   UNL     1     -43.501  59.981 -54.749  1.00  0.00    -0.290 N 
HETATM    2  C   UNL     1     -42.511  59.700 -55.676  1.00  0.00     0.332 C 
HETATM    3  O   UNL     1     -41.406  59.296 -55.304  1.00  0.00    -0.246 OA
HETATM    4  N   UNL     1     -42.828  59.893 -57.010  1.00  0.00    -0.261 N 
HETATM    5  C   UNL     1     -43.960  60.553 -57.461  1.00  0.00     0.264 C 
HETATM    6  O   UNL     1     -44.221  60.745 -58.645  1.00  0.00    -0.267 OA
HETATM    7  C   UNL     1     -44.903  61.027 -56.433  1.00  0.00     0.059 A 
HETATM    8  C   UNL     1     -44.670  60.708 -55.095  1.00  0.00     0.056 A 
HETATM    9  C   UNL     1     -46.045  61.744 -56.823  1.00  0.00     0.020 A 
HETATM   10  C   UNL     1     -46.976  62.149 -55.867  1.00  0.00     0.018 A 
HETATM   11  C   UNL     1     -46.763  61.831 -54.524  1.00  0.00     0.034 A 
HETATM   12  C   UNL     1     -45.604  61.130 -54.140  1.00  0.00     0.048 A 
ENDROOT
BRANCH   1  13
HETATM   13  C   UNL     1     -43.358  59.388 -53.416  1.00  0.00     0.237 C 
BRANCH  13  14
HETATM   14  C   UNL     1     -43.240  57.865 -53.371  1.00  0.00     0.240 C 
HETATM   15  N   UNL     1     -41.942  57.408 -53.221  1.00  0.00    -0.326 N 
HETATM   16  H   UNL     1     -41.225  58.120 -53.098  1.00  0.00     0.169 HD
HETATM   17  O   UNL     1     -44.235  57.176 -53.579  1.00  0.00    -0.271 OA
BRANCH  15  18
HETATM   18  C   UNL     1     -41.492  56.075 -53.312  1.00  0.00     0.034 A 
HETATM   19  C   UNL     1     -41.698  55.113 -52.323  1.00  0.00     0.030 A 
HETATM   20  C   UNL     1     -41.260  53.796 -52.505  1.00  0.00     0.009 A 
HETATM   21  C   UNL     1     -40.608  53.418 -53.681  1.00  0.00    -0.062 A 
HETATM   22  C   UNL     1     -40.121  52.011 -53.858  1.00  0.00     0.048 C 
HETATM   23  C   UNL     1     -40.372  54.387 -54.661  1.00  0.00     0.009 A 
HETATM   24  C   UNL     1     -40.820  55.701 -54.482  1.00  0.00     0.030 A 
ENDBRANCH  15  18
ENDBRANCH  13  14
ENDBRANCH   1  13
BRANCH   4  25
HETATM   25  C   UNL     1     -41.958  59.270 -58.002  1.00  0.00     0.175 C 
BRANCH  25  26
HETATM   26  C   UNL     1     -42.498  57.902 -58.381  1.00  0.00    -0.037 A 
HETATM   27  C   UNL     1     -43.062  57.689 -59.652  1.00  0.00     0.048 A 
HETATM   28  C   UNL     1     -43.653  56.469 -59.905  1.00  0.00     0.105 A 
HETATM   29  C   UNL     1     -43.692  55.471 -58.961  1.00  0.00     0.105 A 
HETATM   30  O   UNL     1     -44.275  56.112 -61.061  1.00  0.00    -0.323 OA
HETATM   31  O   UNL     1     -44.342  54.362 -59.403  1.00  0.00    -0.323 OA
HETATM   32  C   UNL     1     -43.136  55.633 -57.712  1.00  0.00     0.040 A 
HETATM   33  C   UNL     1     -44.727  54.783 -60.728  1.00  0.00     0.352 A 
HETATM   34  C   UNL     1     -42.537  56.862 -57.421  1.00  0.00     0.012 A 
ENDBRANCH  25  26
ENDBRANCH   4  25
BRANCH  11  35
HETATM   35  C   UNL     1     -47.718  62.231 -53.458  1.00  0.00     0.252 C 
HETATM   36  N   UNL     1     -49.051  62.178 -53.797  1.00  0.00    -0.352 N 
HETATM   37  H   UNL     1     -49.285  61.749 -54.681  1.00  0.00     0.163 HD
HETATM   38  O   UNL     1     -47.278  62.533 -52.361  1.00  0.00    -0.268 OA
BRANCH  36  39
HETATM   39  C   UNL     1     -50.180  62.380 -52.887  1.00  0.00     0.084 C 
HETATM   40  C   UNL     1     -50.571  63.855 -52.733  1.00  0.00     0.025 C 
HETATM   41  C   UNL     1     -51.644  64.333 -53.704  1.00  0.00     0.002 C 
HETATM   42  C   UNL     1     -52.857  63.413 -53.694  1.00  0.00     0.000 C 
HETATM   43  C   UNL     1     -52.482  61.972 -54.015  1.00  0.00     0.002 C 
HETATM   44  C   UNL     1     -51.372  61.436 -53.115  1.00  0.00     0.025 C 
ENDBRANCH  36  39
ENDBRANCH  11  35
TORSDOF 7
ENDMDL
MODEL 5
REMARK VINA RESULT:      -9.4      4.298      8.817
REMARK  7 active torsions:
REMARK  status: ('A' for Active; 'I' for Inactive)
REMARK    1  A    between atoms: C_5  and  N_6 
REMARK       I    between atoms: N_6  and  C_7 
REMARK    2  A    between atoms: C_7  and  C_8 
REMARK    3  A    between atoms: C_8  and  N_9 
REMARK    4  A    between atoms: N_12  and  C_13 
REMARK    5  A    between atoms: C_13  and  C_14 
REMARK    6  A    between atoms: C_29  and  C_30 
REMARK       I    between atoms: C_30  and  N_31 
REMARK    7  A    between atoms: N_31  and  C_32 
ROOT
HETATM    1  N   UNL     1     -43.116  56.479 -55.552  1.00  0.00    -0.290 N 
HETATM    2  C   UNL     1     -43.706  56.243 -54.321  1.00  0.00     0.332 C 
HETATM    3  O   UNL     1     -43.919  55.088 -53.943  1.00  0.00    -0.246 OA
HETATM    4  N   UNL     1     -44.031  57.353 -53.559  1.00  0.00    -0.261 N 
HETATM    5  C   UNL     1     -44.023  58.657 -54.028  1.00  0.00     0.264 C 
HETATM    6  O   UNL     1     -44.340  59.634 -53.355  1.00  0.00    -0.267 OA
HETATM    7  C   UNL     1     -43.584  58.858 -55.419  1.00  0.00     0.059 A 
HETATM    8  C   UNL     1     -43.111  57.766 -56.149  1.00  0.00     0.056 A 
HETATM    9  C   UNL     1     -43.597  60.150 -55.968  1.00  0.00     0.020 A 
HETATM   10  C   UNL     1     -43.130  60.363 -57.264  1.00  0.00     0.018 A 
HETATM   11  C   UNL     1     -42.646  59.284 -58.006  1.00  0.00     0.034 A 
HETATM   12  C   UNL     1     -42.655  57.989 -57.455  1.00  0.00     0.048 A 
ENDROOT
BRANCH   1  13
HETATM   13  C   UNL     1     -42.379  55.368 -56.165  1.00  0.00     0.237 C 
BRANCH  13  14
HETATM   14  C   UNL     1     -41.322  54.702 -55.287  1.00  0.00     0.240 C 
HETATM   15  N   UNL     1     -41.681  53.446 -54.833  1.00  0.00    -0.326 N 
HETATM   16  H   UNL     1     -42.568  53.080 -55.173  1.00  0.00     0.169 HD
HETATM   17  O   UNL     1     -40.322  55.337 -54.959  1.00  0.00    -0.271 OA
BRANCH  15  18
HETATM   18  C   UNL     1     -41.003  52.657 -53.881  1.00  0.00     0.034 A 
HETATM   19  C   UNL     1     -40.831  53.022 -52.545  1.00  0.00     0.030 A 
HETATM   20  C   UNL     1     -40.185  52.163 -51.647  1.00  0.00     0.009 A 
HETATM   21  C   UNL     1     -39.701  50.923 -52.070  1.00  0.00    -0.062 A 
HETATM   22  C   UNL     1     -38.990  50.020 -51.108  1.00  0.00     0.048 C 
HETATM   23  C   UNL     1     -39.843  50.568 -53.415  1.00  0.00     0.009 A 
HETATM   24  C   UNL     1     -40.499  51.423 -54.309  1.00  0.00     0.030 A 
ENDBRANCH  15  18
ENDBRANCH  13  14
ENDBRANCH   1  13
BRANCH   4  25
HETATM   25  C   UNL     1     -44.304  57.136 -52.143  1.00  0.00     0.175 C 
BRANCH  25  26
HETATM   26  C   UNL     1     -43.078  56.551 -51.461  1.00  0.00    -0.037 A 
HETATM   27  C   UNL     1     -43.197  55.416 -50.639  1.00  0.00     0.048 A 
HETATM   28  C   UNL     1     -42.083  54.999 -49.942  1.00  0.00     0.105 A 
HETATM   29  C   UNL     1     -40.878  55.653 -50.040  1.00  0.00     0.105 A 
HETATM   30  O   UNL     1     -42.033  53.949 -49.079  1.00  0.00    -0.323 OA
HETATM   31  O   UNL     1     -39.919  55.096 -49.254  1.00  0.00    -0.323 OA
HETATM   32  C   UNL     1     -40.715  56.756 -50.847  1.00  0.00     0.040 A 
HETATM   33  C   UNL     1     -40.664  54.029 -48.631  1.00  0.00     0.352 A 
HETATM   34  C   UNL     1     -41.828  57.209 -51.560  1.00  0.00     0.012 A 
ENDBRANCH  25  26
ENDBRANCH   4  25
BRANCH  11  35
HETATM   35  C   UNL     1     -42.131  59.447 -59.391  1.00  0.00     0.252 C 
HETATM   36  N   UNL     1     -42.044  60.741 -59.850  1.00  0.00    -0.352 N 
HETATM   37  H   UNL     1     -42.203  61.480 -59.180  1.00  0.00     0.163 HD
HETATM   38  O   UNL     1     -41.784  58.452 -60.006  1.00  0.00    -0.268 OA
BRANCH  36  39
HETATM   39  C   UNL     1     -41.438  61.169 -61.112  1.00  0.00     0.084 C 
HETATM   40  C   UNL     1     -42.374  61.000 -62.316  1.00  0.00     0.025 C 
HETATM   41  C   UNL     1     -43.217  62.227 -62.641  1.00  0.00     0.002 C 
HETATM   42  C   UNL     1     -42.361  63.481 -62.750  1.00  0.00     0.000 C 
HETATM   43  C   UNL     1     -41.558  63.735 -61.482  1.00  0.00     0.002 C 
HETATM   44  C   UNL     1     -40.723  62.528 -61.059  1.00  0.00     0.025 C 
ENDBRANCH  36  39
ENDBRANCH  11  35
TORSDOF 7
ENDMDL
MODEL 6
REMARK VINA RESULT:      -9.3      3.020      6.414
REMARK  7 active torsions:
REMARK  status: ('A' for Active; 'I' for Inactive)
REMARK    1  A    between atoms: C_5  and  N_6 
REMARK       I    between atoms: N_6  and  C_7 
REMARK    2  A    between atoms: C_7  and  C_8 
REMARK    3  A    between atoms: C_8  and  N_9 
REMARK    4  A    between atoms: N_12  and  C_13 
REMARK    5  A    between atoms: C_13  and  C_14 
REMARK    6  A    between atoms: C_29  and  C_30 
REMARK       I    between atoms: C_30  and  N_31 
REMARK    7  A    between atoms: N_31  and  C_32 
ROOT
HETATM    1  N   UNL     1     -44.102  57.279 -53.676  1.00  0.00    -0.290 N 
HETATM    2  C   UNL     1     -43.171  56.367 -54.146  1.00  0.00     0.332 C 
HETATM    3  O   UNL     1     -43.533  55.394 -54.814  1.00  0.00    -0.246 OA
HETATM    4  N   UNL     1     -41.844  56.608 -53.832  1.00  0.00    -0.261 N 
HETATM    5  C   UNL     1     -41.413  57.545 -52.907  1.00  0.00     0.264 C 
HETATM    6  O   UNL     1     -40.236  57.734 -52.612  1.00  0.00    -0.267 OA
HETATM    7  C   UNL     1     -42.453  58.367 -52.265  1.00  0.00     0.059 A 
HETATM    8  C   UNL     1     -43.778  58.238 -52.682  1.00  0.00     0.056 A 
HETATM    9  C   UNL     1     -42.086  59.302 -51.284  1.00  0.00     0.020 A 
HETATM   10  C   UNL     1     -43.052  60.128 -50.709  1.00  0.00     0.018 A 
HETATM   11  C   UNL     1     -44.382  60.017 -51.120  1.00  0.00     0.034 A 
HETATM   12  C   UNL     1     -44.743  59.062 -52.089  1.00  0.00     0.048 A 
ENDROOT
BRANCH   1  13
HETATM   13  C   UNL     1     -45.410  57.301 -54.338  1.00  0.00     0.237 C 
BRANCH  13  14
HETATM   14  C   UNL     1     -45.474  58.057 -55.665  1.00  0.00     0.240 C 
HETATM   15  N   UNL     1     -46.585  57.750 -56.431  1.00  0.00    -0.326 N 
HETATM   16  H   UNL     1     -47.259  57.112 -56.013  1.00  0.00     0.169 HD
HETATM   17  O   UNL     1     -44.528  58.764 -56.003  1.00  0.00    -0.271 OA
BRANCH  15  18
HETATM   18  C   UNL     1     -46.841  58.149 -57.759  1.00  0.00     0.034 A 
HETATM   19  C   UNL     1     -46.532  57.375 -58.879  1.00  0.00     0.030 A 
HETATM   20  C   UNL     1     -46.859  57.819 -60.166  1.00  0.00     0.009 A 
HETATM   21  C   UNL     1     -47.502  59.045 -60.355  1.00  0.00    -0.062 A 
HETATM   22  C   UNL     1     -47.828  59.523 -61.738  1.00  0.00     0.048 C 
HETATM   23  C   UNL     1     -47.785  59.836 -59.238  1.00  0.00     0.009 A 
HETATM   24  C   UNL     1     -47.467  59.386 -57.951  1.00  0.00     0.030 A 
ENDBRANCH  15  18
ENDBRANCH  13  14
ENDBRANCH   1  13
BRANCH   4  25
HETATM   25  C   UNL     1     -40.833  55.892 -54.603  1.00  0.00     0.175 C 
BRANCH  25  26
HETATM   26  C   UNL     1     -40.626  54.502 -54.026  1.00  0.00    -0.037 A 
HETATM   27  C   UNL     1     -40.658  54.300 -52.634  1.00  0.00     0.048 A 
HETATM   28  C   UNL     1     -40.339  53.047 -52.152  1.00  0.00     0.105 A 
HETATM   29  C   UNL     1     -40.007  52.010 -52.990  1.00  0.00     0.105 A 
HETATM   30  O   UNL     1     -40.284  52.692 -50.841  1.00  0.00    -0.323 OA
HETATM   31  O   UNL     1     -39.703  50.871 -52.311  1.00  0.00    -0.323 OA
HETATM   32  C   UNL     1     -39.982  52.161 -54.358  1.00  0.00     0.040 A 
HETATM   33  C   UNL     1     -39.860  51.317 -50.949  1.00  0.00     0.352 A 
HETATM   34  C   UNL     1     -40.291  53.422 -54.878  1.00  0.00     0.012 A 
ENDBRANCH  25  26
ENDBRANCH   4  25
BRANCH  11  35
HETATM   35  C   UNL     1     -45.457  60.870 -50.549  1.00  0.00     0.252 C 
HETATM   36  N   UNL     1     -45.291  61.244 -49.235  1.00  0.00    -0.352 N 
HETATM   37  H   UNL     1     -44.402  61.032 -48.804  1.00  0.00     0.163 HD
HETATM   38  O   UNL     1     -46.377  61.213 -51.273  1.00  0.00    -0.268 OA
BRANCH  36  39
HETATM   39  C   UNL     1     -46.128  62.191 -48.496  1.00  0.00     0.084 C 
HETATM   40  C   UNL     1     -46.418  61.742 -47.058  1.00  0.00     0.025 C 
HETATM   41  C   UNL     1     -45.427  62.257 -46.022  1.00  0.00     0.002 C 
HETATM   42  C   UNL     1     -45.240  63.765 -46.127  1.00  0.00     0.000 C 
HETATM   43  C   UNL     1     -44.789  64.187 -47.518  1.00  0.00     0.002 C 
HETATM   44  C   UNL     1     -45.705  63.663 -48.621  1.00  0.00     0.025 C 
ENDBRANCH  36  39
ENDBRANCH  11  35
TORSDOF 7
ENDMDL
MODEL 7
REMARK VINA RESULT:      -9.1      2.761      9.064
REMARK  7 active torsions:
REMARK  status: ('A' for Active; 'I' for Inactive)
REMARK    1  A    between atoms: C_5  and  N_6 
REMARK       I    between atoms: N_6  and  C_7 
REMARK    2  A    between atoms: C_7  and  C_8 
REMARK    3  A    between atoms: C_8  and  N_9 
REMARK    4  A    between atoms: N_12  and  C_13 
REMARK    5  A    between atoms: C_13  and  C_14 
REMARK    6  A    between atoms: C_29  and  C_30 
REMARK       I    between atoms: C_30  and  N_31 
REMARK    7  A    between atoms: N_31  and  C_32 
ROOT
HETATM    1  N   UNL     1     -41.851  58.199 -54.788  1.00  0.00    -0.290 N 
HETATM    2  C   UNL     1     -41.859  57.171 -53.859  1.00  0.00     0.332 C 
HETATM    3  O   UNL     1     -41.289  57.308 -52.773  1.00  0.00    -0.246 OA
HETATM    4  N   UNL     1     -42.529  56.012 -54.212  1.00  0.00    -0.261 N 
HETATM    5  C   UNL     1     -42.983  55.726 -55.489  1.00  0.00     0.264 C 
HETATM    6  O   UNL     1     -43.552  54.683 -55.802  1.00  0.00    -0.267 OA
HETATM    7  C   UNL     1     -42.774  56.762 -56.514  1.00  0.00     0.059 A 
HETATM    8  C   UNL     1     -42.236  57.994 -56.138  1.00  0.00     0.056 A 
HETATM    9  C   UNL     1     -43.170  56.514 -57.838  1.00  0.00     0.020 A 
HETATM   10  C   UNL     1     -43.032  57.508 -58.807  1.00  0.00     0.018 A 
HETATM   11  C   UNL     1     -42.502  58.749 -58.446  1.00  0.00     0.034 A 
HETATM   12  C   UNL     1     -42.089  58.981 -57.121  1.00  0.00     0.048 A 
ENDROOT
BRANCH   1  13
HETATM   13  C   UNL     1     -41.549  59.546 -54.293  1.00  0.00     0.237 C 
BRANCH  13  14
HETATM   14  C   UNL     1     -42.670  60.240 -53.520  1.00  0.00     0.240 C 
HETATM   15  N   UNL     1     -42.514  60.195 -52.146  1.00  0.00    -0.326 N 
HETATM   16  H   UNL     1     -41.657  59.766 -51.804  1.00  0.00     0.169 HD
HETATM   17  O   UNL     1     -43.646  60.670 -54.129  1.00  0.00    -0.271 OA
BRANCH  15  18
HETATM   18  C   UNL     1     -43.448  60.593 -51.168  1.00  0.00     0.034 A 
HETATM   19  C   UNL     1     -44.561  59.836 -50.800  1.00  0.00     0.030 A 
HETATM   20  C   UNL     1     -45.421  60.276 -49.786  1.00  0.00     0.009 A 
HETATM   21  C   UNL     1     -45.181  61.482 -49.123  1.00  0.00    -0.062 A 
HETATM   22  C   UNL     1     -46.120  61.958 -48.054  1.00  0.00     0.048 C 
HETATM   23  C   UNL     1     -44.085  62.258 -49.511  1.00  0.00     0.009 A 
HETATM   24  C   UNL     1     -43.220  61.811 -50.518  1.00  0.00     0.030 A 
ENDBRANCH  15  18
ENDBRANCH  13  14
ENDBRANCH   1  13
BRANCH   4  25
HETATM   25  C   UNL     1     -42.863  55.079 -53.141  1.00  0.00     0.175 C 
BRANCH  25  26
HETATM   26  C   UNL     1     -41.758  54.047 -52.987  1.00  0.00    -0.037 A 
HETATM   27  C   UNL     1     -41.539  53.087 -53.990  1.00  0.00     0.048 A 
HETATM   28  C   UNL     1     -40.611  52.095 -53.749  1.00  0.00     0.105 A 
HETATM   29  C   UNL     1     -39.902  52.034 -52.573  1.00  0.00     0.105 A 
HETATM   30  O   UNL     1     -40.305  51.072 -54.591  1.00  0.00    -0.323 OA
HETATM   31  O   UNL     1     -39.061  50.967 -52.528  1.00  0.00    -0.323 OA
HETATM   32  C   UNL     1     -40.073  52.966 -51.574  1.00  0.00     0.040 A 
HETATM   33  C   UNL     1     -39.337  50.349 -53.802  1.00  0.00     0.352 A 
HETATM   34  C   UNL     1     -41.013  53.978 -51.784  1.00  0.00     0.012 A 
ENDBRANCH  25  26
ENDBRANCH   4  25
BRANCH  11  35
HETATM   35  C   UNL     1     -42.333  59.850 -59.430  1.00  0.00     0.252 C 
HETATM   36  N   UNL     1     -42.180  61.110 -58.900  1.00  0.00    -0.352 N 
HETATM   37  H   UNL     1     -42.057  61.178 -57.899  1.00  0.00     0.163 HD
HETATM   38  O   UNL     1     -42.298  59.572 -60.618  1.00  0.00    -0.268 OA
BRANCH  36  39
HETATM   39  C   UNL     1     -41.855  62.326 -59.648  1.00  0.00     0.084 C 
HETATM   40  C   UNL     1     -42.263  63.610 -58.914  1.00  0.00     0.025 C 
HETATM   41  C   UNL     1     -41.174  64.210 -58.033  1.00  0.00     0.002 C 
HETATM   42  C   UNL     1     -39.866  64.374 -58.793  1.00  0.00     0.000 C 
HETATM   43  C   UNL     1     -39.379  63.057 -59.380  1.00  0.00     0.002 C 
HETATM   44  C   UNL     1     -40.436  62.365 -60.237  1.00  0.00     0.025 C 
ENDBRANCH  36  39
ENDBRANCH  11  35
TORSDOF 7
ENDMDL
MODEL 8
REMARK VINA RESULT:      -9.0      3.920      7.187
REMARK  7 active torsions:
REMARK  status: ('A' for Active; 'I' for Inactive)
REMARK    1  A    between atoms: C_5  and  N_6 
REMARK       I    between atoms: N_6  and  C_7 
REMARK    2  A    between atoms: C_7  and  C_8 
REMARK    3  A    between atoms: C_8  and  N_9 
REMARK    4  A    between atoms: N_12  and  C_13 
REMARK    5  A    between atoms: C_13  and  C_14 
REMARK    6  A    between atoms: C_29  and  C_30 
REMARK       I    between atoms: C_30  and  N_31 
REMARK    7  A    between atoms: N_31  and  C_32 
ROOT
HETATM    1  N   UNL     1     -44.553  58.745 -56.207  1.00  0.00    -0.290 N 
HETATM    2  C   UNL     1     -44.988  59.445 -57.320  1.00  0.00     0.332 C 
HETATM    3  O   UNL     1     -45.718  60.431 -57.190  1.00  0.00    -0.246 OA
HETATM    4  N   UNL     1     -44.562  58.986 -58.555  1.00  0.00    -0.261 N 
HETATM    5  C   UNL     1     -43.937  57.768 -58.767  1.00  0.00     0.264 C 
HETATM    6  O   UNL     1     -43.587  57.354 -59.870  1.00  0.00    -0.267 OA
HETATM    7  C   UNL     1     -43.671  56.944 -57.576  1.00  0.00     0.059 A 
HETATM    8  C   UNL     1     -43.959  57.460 -56.312  1.00  0.00     0.056 A 
HETATM    9  C   UNL     1     -43.083  55.678 -57.728  1.00  0.00     0.020 A 
HETATM   10  C   UNL     1     -42.772  54.912 -56.606  1.00  0.00     0.018 A 
HETATM   11  C   UNL     1     -43.047  55.416 -55.333  1.00  0.00     0.034 A 
HETATM   12  C   UNL     1     -43.655  56.677 -55.190  1.00  0.00     0.048 A 
ENDROOT
BRANCH   1  13
HETATM   13  C   UNL     1     -44.613  59.436 -54.915  1.00  0.00     0.237 C 
BRANCH  13  14
HETATM   14  C   UNL     1     -43.269  59.834 -54.307  1.00  0.00     0.240 C 
HETATM   15  N   UNL     1     -42.860  59.015 -53.269  1.00  0.00    -0.326 N 
HETATM   16  H   UNL     1     -43.455  58.215 -53.064  1.00  0.00     0.169 HD
HETATM   17  O   UNL     1     -42.722  60.869 -54.677  1.00  0.00    -0.271 OA
BRANCH  15  18
HETATM   18  C   UNL     1     -41.762  59.216 -52.406  1.00  0.00     0.034 A 
HETATM   19  C   UNL     1     -41.869  59.745 -51.120  1.00  0.00     0.030 A 
HETATM   20  C   UNL     1     -40.738  59.872 -50.304  1.00  0.00     0.009 A 
HETATM   21  C   UNL     1     -39.481  59.470 -50.761  1.00  0.00    -0.062 A 
HETATM   22  C   UNL     1     -38.271  59.631 -49.889  1.00  0.00     0.048 C 
HETATM   23  C   UNL     1     -39.366  58.969 -52.061  1.00  0.00     0.009 A 
HETATM   24  C   UNL     1     -40.499  58.832 -52.872  1.00  0.00     0.030 A 
ENDBRANCH  15  18
ENDBRANCH  13  14
ENDBRANCH   1  13
BRANCH   4  25
HETATM   25  C   UNL     1     -44.693  59.895 -59.689  1.00  0.00     0.175 C 
BRANCH  25  26
HETATM   26  C   UNL     1     -43.356  60.550 -59.988  1.00  0.00    -0.037 A 
HETATM   27  C   UNL     1     -42.581  61.090 -58.945  1.00  0.00     0.048 A 
HETATM   28  C   UNL     1     -41.438  61.786 -59.278  1.00  0.00     0.105 A 
HETATM   29  C   UNL     1     -41.042  61.951 -60.584  1.00  0.00     0.105 A 
HETATM   30  O   UNL     1     -40.600  62.401 -58.402  1.00  0.00    -0.323 OA
HETATM   31  O   UNL     1     -39.905  62.688 -60.693  1.00  0.00    -0.323 OA
HETATM   32  C   UNL     1     -41.762  61.423 -61.632  1.00  0.00     0.040 A 
HETATM   33  C   UNL     1     -39.642  62.989 -59.307  1.00  0.00     0.352 A 
HETATM   34  C   UNL     1     -42.931  60.719 -61.328  1.00  0.00     0.012 A 
ENDBRANCH  25  26
ENDBRANCH   4  25
BRANCH  11  35
HETATM   35  C   UNL     1     -42.736  54.651 -54.097  1.00  0.00     0.252 C 
HETATM   36  N   UNL     1     -42.850  55.346 -52.916  1.00  0.00    -0.352 N 
HETATM   37  H   UNL     1     -43.262  56.268 -52.961  1.00  0.00     0.163 HD
HETATM   38  O   UNL     1     -42.447  53.469 -54.199  1.00  0.00    -0.268 OA
BRANCH  36  39
HETATM   39  C   UNL     1     -42.741  54.782 -51.570  1.00  0.00     0.084 C 
HETATM   40  C   UNL     1     -41.745  53.619 -51.484  1.00  0.00     0.025 C 
HETATM   41  C   UNL     1     -40.324  54.026 -51.114  1.00  0.00     0.002 C 
HETATM   42  C   UNL     1     -40.298  54.896 -49.865  1.00  0.00     0.000 C 
HETATM   43  C   UNL     1     -41.162  56.140 -50.020  1.00  0.00     0.002 C 
HETATM   44  C   UNL     1     -42.593  55.818 -50.443  1.00  0.00     0.025 C 
ENDBRANCH  36  39
ENDBRANCH  11  35
TORSDOF 7
ENDMDL
MODEL 9
REMARK VINA RESULT:      -9.0      3.652      5.894
REMARK  7 active torsions:
REMARK  status: ('A' for Active; 'I' for Inactive)
REMARK    1  A    between atoms: C_5  and  N_6 
REMARK       I    between atoms: N_6  and  C_7 
REMARK    2  A    between atoms: C_7  and  C_8 
REMARK    3  A    between atoms: C_8  and  N_9 
REMARK    4  A    between atoms: N_12  and  C_13 
REMARK    5  A    between atoms: C_13  and  C_14 
REMARK    6  A    between atoms: C_29  and  C_30 
REMARK       I    between atoms: C_30  and  N_31 
REMARK    7  A    between atoms: N_31  and  C_32 
ROOT
HETATM    1  N   UNL     1     -44.110  59.388 -56.624  1.00  0.00    -0.290 N 
HETATM    2  C   UNL     1     -43.884  60.265 -57.672  1.00  0.00     0.332 C 
HETATM    3  O   UNL     1     -43.729  59.839 -58.820  1.00  0.00    -0.246 OA
HETATM    4  N   UNL     1     -43.845  61.614 -57.362  1.00  0.00    -0.261 N 
HETATM    5  C   UNL     1     -43.786  62.123 -56.075  1.00  0.00     0.264 C 
HETATM    6  O   UNL     1     -43.723  63.321 -55.808  1.00  0.00    -0.267 OA
HETATM    7  C   UNL     1     -43.820  61.145 -54.974  1.00  0.00     0.059 A 
HETATM    8  C   UNL     1     -44.010  59.794 -55.269  1.00  0.00     0.056 A 
HETATM    9  C   UNL     1     -43.716  61.594 -53.648  1.00  0.00     0.020 A 
HETATM   10  C   UNL     1     -43.805  60.685 -52.594  1.00  0.00     0.018 A 
HETATM   11  C   UNL     1     -44.002  59.331 -52.870  1.00  0.00     0.034 A 
HETATM   12  C   UNL     1     -44.085  58.888 -54.203  1.00  0.00     0.048 A 
ENDROOT
BRANCH   1  13
HETATM   13  C   UNL     1     -44.584  58.043 -56.968  1.00  0.00     0.237 C 
BRANCH  13  14
HETATM   14  C   UNL     1     -43.531  56.936 -56.939  1.00  0.00     0.240 C 
HETATM   15  N   UNL     1     -43.497  56.225 -55.753  1.00  0.00    -0.326 N 
HETATM   16  H   UNL     1     -44.203  56.470 -55.061  1.00  0.00     0.169 HD
HETATM   17  O   UNL     1     -42.743  56.829 -57.876  1.00  0.00    -0.271 OA
BRANCH  15  18
HETATM   18  C   UNL     1     -42.540  55.267 -55.359  1.00  0.00     0.034 A 
HETATM   19  C   UNL     1     -41.211  55.569 -55.063  1.00  0.00     0.030 A 
HETATM   20  C   UNL     1     -40.329  54.570 -54.634  1.00  0.00     0.009 A 
HETATM   21  C   UNL     1     -40.764  53.250 -54.493  1.00  0.00    -0.062 A 
HETATM   22  C   UNL     1     -39.808  52.180 -54.055  1.00  0.00     0.048 C 
HETATM   23  C   UNL     1     -42.087  52.938 -54.819  1.00  0.00     0.009 A 
HETATM   24  C   UNL     1     -42.970  53.941 -55.238  1.00  0.00     0.030 A 
ENDBRANCH  15  18
ENDBRANCH  13  14
ENDBRANCH   1  13
BRANCH   4  25
HETATM   25  C   UNL     1     -43.977  62.559 -58.466  1.00  0.00     0.175 C 
BRANCH  25  26
HETATM   26  C   UNL     1     -42.629  62.768 -59.135  1.00  0.00    -0.037 A 
HETATM   27  C   UNL     1     -42.544  62.908 -60.532  1.00  0.00     0.048 A 
HETATM   28  C   UNL     1     -41.290  62.968 -61.104  1.00  0.00     0.105 A 
HETATM   29  C   UNL     1     -40.144  62.904 -60.350  1.00  0.00     0.105 A 
HETATM   30  O   UNL     1     -41.029  63.065 -62.436  1.00  0.00    -0.323 OA
HETATM   31  O   UNL     1     -39.018  62.954 -61.110  1.00  0.00    -0.323 OA
HETATM   32  C   UNL     1     -40.183  62.785 -58.979  1.00  0.00     0.040 A 
HETATM   33  C   UNL     1     -39.587  63.035 -62.433  1.00  0.00     0.352 A 
HETATM   34  C   UNL     1     -41.439  62.713 -58.369  1.00  0.00     0.012 A 
ENDBRANCH  25  26
ENDBRANCH   4  25
BRANCH  11  35
HETATM   35  C   UNL     1     -44.109  58.314 -51.791  1.00  0.00     0.252 C 
HETATM   36  N   UNL     1     -43.057  57.433 -51.690  1.00  0.00    -0.352 N 
HETATM   37  H   UNL     1     -42.241  57.623 -52.255  1.00  0.00     0.163 HD
HETATM   38  O   UNL     1     -45.079  58.347 -51.051  1.00  0.00    -0.268 OA
BRANCH  36  39
HETATM   39  C   UNL     1     -42.860  56.443 -50.630  1.00  0.00     0.084 C 
HETATM   40  C   UNL     1     -43.785  55.227 -50.764  1.00  0.00     0.025 C 
HETATM   41  C   UNL     1     -43.197  54.067 -51.557  1.00  0.00     0.002 C 
HETATM   42  C   UNL     1     -41.814  53.683 -51.046  1.00  0.00     0.000 C 
HETATM   43  C   UNL     1     -40.850  54.861 -51.073  1.00  0.00     0.002 C 
HETATM   44  C   UNL     1     -41.393  56.087 -50.342  1.00  0.00     0.025 C 
ENDBRANCH  36  39
ENDBRANCH  11  35
TORSDOF 7
ENDMDL
MODEL 10
REMARK VINA RESULT:      -9.0      2.172      8.707
REMARK  7 active torsions:
REMARK  status: ('A' for Active; 'I' for Inactive)
REMARK    1  A    between atoms: C_5  and  N_6 
REMARK       I    between atoms: N_6  and  C_7 
REMARK    2  A    between atoms: C_7  and  C_8 
REMARK    3  A    between atoms: C_8  and  N_9 
REMARK    4  A    between atoms: N_12  and  C_13 
REMARK    5  A    between atoms: C_13  and  C_14 
REMARK    6  A    between atoms: C_29  and  C_30 
REMARK       I    between atoms: C_30  and  N_31 
REMARK    7  A    between atoms: N_31  and  C_32 
ROOT
HETATM    1  N   UNL     1     -42.902  60.021 -53.401  1.00  0.00    -0.290 N 
HETATM    2  C   UNL     1     -42.715  60.517 -52.121  1.00  0.00     0.332 C 
HETATM    3  O   UNL     1     -41.917  59.974 -51.353  1.00  0.00    -0.246 OA
HETATM    4  N   UNL     1     -43.457  61.631 -51.766  1.00  0.00    -0.261 N 
HETATM    5  C   UNL     1     -44.519  62.134 -52.501  1.00  0.00     0.264 C 
HETATM    6  O   UNL     1     -45.191  63.106 -52.165  1.00  0.00    -0.267 OA
HETATM    7  C   UNL     1     -44.828  61.452 -53.769  1.00  0.00     0.059 A 
HETATM    8  C   UNL     1     -43.995  60.423 -54.210  1.00  0.00     0.056 A 
HETATM    9  C   UNL     1     -45.922  61.884 -54.536  1.00  0.00     0.020 A 
HETATM   10  C   UNL     1     -46.192  61.286 -55.767  1.00  0.00     0.018 A 
HETATM   11  C   UNL     1     -45.364  60.260 -56.228  1.00  0.00     0.034 A 
HETATM   12  C   UNL     1     -44.282  59.820 -55.442  1.00  0.00     0.048 A 
ENDROOT
BRANCH   1  13
HETATM   13  C   UNL     1     -41.851  59.153 -53.943  1.00  0.00     0.237 C 
BRANCH  13  14
HETATM   14  C   UNL     1     -42.039  57.654 -53.715  1.00  0.00     0.240 C 
HETATM   15  N   UNL     1     -40.867  56.924 -53.793  1.00  0.00    -0.326 N 
HETATM   16  H   UNL     1     -40.011  57.458 -53.931  1.00  0.00     0.169 HD
HETATM   17  O   UNL     1     -43.175  57.200 -53.600  1.00  0.00    -0.271 OA
BRANCH  15  18
HETATM   18  C   UNL     1     -40.735  55.520 -53.795  1.00  0.00     0.034 A 
HETATM   19  C   UNL     1     -40.984  54.711 -52.685  1.00  0.00     0.030 A 
HETATM   20  C   UNL     1     -40.876  53.318 -52.777  1.00  0.00     0.009 A 
HETATM   21  C   UNL     1     -40.516  52.710 -53.983  1.00  0.00    -0.062 A 
HETATM   22  C   UNL     1     -40.379  51.219 -54.066  1.00  0.00     0.048 C 
HETATM   23  C   UNL     1     -40.235  53.519 -55.087  1.00  0.00     0.009 A 
HETATM   24  C   UNL     1     -40.354  54.911 -54.996  1.00  0.00     0.030 A 
ENDBRANCH  15  18
ENDBRANCH  13  14
ENDBRANCH   1  13
BRANCH   4  25
HETATM   25  C   UNL     1     -43.023  62.378 -50.591  1.00  0.00     0.175 C 
BRANCH  25  26
HETATM   26  C   UNL     1     -44.057  62.255 -49.485  1.00  0.00    -0.037 A 
HETATM   27  C   UNL     1     -44.382  63.369 -48.691  1.00  0.00     0.048 A 
HETATM   28  C   UNL     1     -45.231  63.179 -47.620  1.00  0.00     0.105 A 
HETATM   29  C   UNL     1     -45.763  61.946 -47.325  1.00  0.00     0.105 A 
HETATM   30  O   UNL     1     -45.616  64.135 -46.733  1.00  0.00    -0.323 OA
HETATM   31  O   UNL     1     -46.551  61.972 -46.217  1.00  0.00    -0.323 OA
HETATM   32  C   UNL     1     -45.484  60.835 -48.088  1.00  0.00     0.040 A 
HETATM   33  C   UNL     1     -46.436  63.358 -45.835  1.00  0.00     0.352 A 
HETATM   34  C   UNL     1     -44.620  60.993 -49.176  1.00  0.00     0.012 A 
ENDBRANCH  25  26
ENDBRANCH   4  25
BRANCH  11  35
HETATM   35  C   UNL     1     -45.596  59.586 -57.532  1.00  0.00     0.252 C 
HETATM   36  N   UNL     1     -44.470  59.146 -58.188  1.00  0.00    -0.352 N 
HETATM   37  H   UNL     1     -43.596  59.189 -57.684  1.00  0.00     0.163 HD
HETATM   38  O   UNL     1     -46.745  59.429 -57.912  1.00  0.00    -0.268 OA
BRANCH  36  39
HETATM   39  C   UNL     1     -44.444  58.333 -59.405  1.00  0.00     0.084 C 
HETATM   40  C   UNL     1     -43.186  58.559 -60.253  1.00  0.00     0.025 C 
HETATM   41  C   UNL     1     -42.034  57.612 -59.944  1.00  0.00     0.002 C 
HETATM   42  C   UNL     1     -42.485  56.157 -59.963  1.00  0.00     0.000 C 
HETATM   43  C   UNL     1     -43.629  55.904 -58.991  1.00  0.00     0.002 C 
HETATM   44  C   UNL     1     -44.806  56.853 -59.203  1.00  0.00     0.025 C 
ENDBRANCH  36  39
ENDBRANCH  11  35
TORSDOF 7
ENDMDL
