MODEL 1
REMARK VINA RESULT:      -8.0      0.000      0.000
REMARK  3 active torsions:
REMARK  status: ('A' for Active; 'I' for Inactive)
REMARK    1  A    between atoms: C_6  and  N_7 
REMARK       I    between atoms: N_7  and  C_8 
REMARK    2  A    between atoms: C_8  and  C_9 
REMARK    3  A    between atoms: C_9  and  C_10 
ROOT
HETATM    1  C   UNL     1     -42.723  54.699 -52.803  1.00  0.00     0.286 C 
HETATM    2  N   UNL     1     -41.520  54.732 -53.738  1.00  0.00    -0.056 N 
HETATM    3  H   UNL     1     -40.755  55.172 -53.182  1.00  0.00     0.278 HD
HETATM    4  H   UNL     1     -41.193  53.785 -53.960  1.00  0.00     0.278 HD
HETATM    5  C   UNL     1     -41.709  55.552 -54.985  1.00  0.00     0.209 C 
HETATM    6  C   UNL     1     -42.207  56.969 -54.606  1.00  0.00     0.115 C 
HETATM    7  N   UNL     1     -43.318  56.953 -53.657  1.00  0.00    -0.353 N 
HETATM    8  C   UNL     1     -43.376  56.079 -52.596  1.00  0.00     0.249 C 
HETATM    9  O   UNL     1     -44.019  56.371 -51.595  1.00  0.00    -0.271 OA
HETATM   10  C   UNL     1     -42.635  54.815 -55.955  1.00  0.00     0.035 C 
HETATM   11  C   UNL     1     -42.927  55.666 -57.188  1.00  0.00     0.002 C 
HETATM   12  C   UNL     1     -43.503  57.025 -56.800  1.00  0.00     0.002 C 
HETATM   13  C   UNL     1     -42.569  57.781 -55.855  1.00  0.00     0.027 C 
HETATM   14  H   UNL     1     -43.751  57.848 -53.430  1.00  0.00     0.163 HD
ENDROOT
BRANCH   1  15
HETATM   15  C   UNL     1     -42.385  54.028 -51.461  1.00  0.00     0.146 C 
BRANCH  15  16
HETATM   16  C   UNL     1     -40.974  54.321 -51.027  1.00  0.00     0.224 C 
HETATM   17  N   UNL     1     -39.969  53.414 -51.121  1.00  0.00    -0.327 N 
HETATM   18  H   UNL     1     -39.093  53.804 -50.781  1.00  0.00     0.169 HD
HETATM   19  O   UNL     1     -40.702  55.468 -50.643  1.00  0.00    -0.273 OA
BRANCH  17  20
HETATM   20  C   UNL     1     -39.874  52.082 -51.580  1.00  0.00     0.036 A 
HETATM   21  C   UNL     1     -39.762  51.677 -52.909  1.00  0.00     0.053 A 
HETATM   22  C   UNL     1     -39.685  50.315 -53.230  1.00  0.00     0.036 A 
HETATM   23  C   UNL     1     -39.702  49.342 -52.238  1.00  0.00     0.024 A 
HETATM   24 CL   UNL     1     -39.563  49.845 -54.883  1.00  0.00    -0.084 Cl
HETATM   25  C   UNL     1     -39.800  49.732 -50.908  1.00  0.00     0.004 A 
HETATM   26  C   UNL     1     -39.886  51.090 -50.585  1.00  0.00     0.029 A 
ENDBRANCH  17  20
ENDBRANCH  15  16
ENDBRANCH   1  15
TORSDOF 3
ENDMDL
MODEL 2
REMARK VINA RESULT:      -8.0      2.626      3.135
REMARK  3 active torsions:
REMARK  status: ('A' for Active; 'I' for Inactive)
REMARK    1  A    between atoms: C_6  and  N_7 
REMARK       I    between atoms: N_7  and  C_8 
REMARK    2  A    between atoms: C_8  and  C_9 
REMARK    3  A    between atoms: C_9  and  C_10 
ROOT
HETATM    1  C   UNL     1     -42.564  55.929 -51.061  1.00  0.00     0.286 C 
HETATM    2  N   UNL     1     -41.235  56.644 -50.845  1.00  0.00    -0.056 N 
HETATM    3  H   UNL     1     -41.153  56.758 -49.811  1.00  0.00     0.278 HD
HETATM    4  H   UNL     1     -40.444  56.053 -51.124  1.00  0.00     0.278 HD
HETATM    5  C   UNL     1     -41.142  58.011 -51.465  1.00  0.00     0.209 C 
HETATM    6  C   UNL     1     -42.356  58.867 -51.023  1.00  0.00     0.115 C 
HETATM    7  N   UNL     1     -43.632  58.169 -51.163  1.00  0.00    -0.353 N 
HETATM    8  C   UNL     1     -43.790  56.839 -50.848  1.00  0.00     0.249 C 
HETATM    9  O   UNL     1     -44.891  56.411 -50.526  1.00  0.00    -0.271 OA
HETATM   10  C   UNL     1     -41.001  57.884 -52.983  1.00  0.00     0.035 C 
HETATM   11  C   UNL     1     -41.005  59.256 -53.651  1.00  0.00     0.002 C 
HETATM   12  C   UNL     1     -42.252  60.051 -53.278  1.00  0.00     0.002 C 
HETATM   13  C   UNL     1     -42.385  60.209 -51.764  1.00  0.00     0.027 C 
HETATM   14  H   UNL     1     -44.480  58.702 -50.972  1.00  0.00     0.163 HD
ENDROOT
BRANCH   1  15
HETATM   15  C   UNL     1     -42.664  54.643 -50.225  1.00  0.00     0.146 C 
BRANCH  15  16
HETATM   16  C   UNL     1     -41.360  54.309 -49.551  1.00  0.00     0.224 C 
HETATM   17  N   UNL     1     -40.369  53.613 -50.165  1.00  0.00    -0.327 N 
HETATM   18  H   UNL     1     -39.571  53.495 -49.546  1.00  0.00     0.169 HD
HETATM   19  O   UNL     1     -41.152  54.759 -48.415  1.00  0.00    -0.273 OA
BRANCH  17  20
HETATM   20  C   UNL     1     -40.206  53.038 -51.443  1.00  0.00     0.036 A 
HETATM   21  C   UNL     1     -40.381  53.685 -52.664  1.00  0.00     0.053 A 
HETATM   22  C   UNL     1     -40.195  52.991 -53.867  1.00  0.00     0.036 A 
HETATM   23  C   UNL     1     -39.819  51.652 -53.873  1.00  0.00     0.024 A 
HETATM   24 CL   UNL     1     -40.433  53.815 -55.361  1.00  0.00    -0.084 Cl
HETATM   25  C   UNL     1     -39.628  50.998 -52.662  1.00  0.00     0.004 A 
HETATM   26  C   UNL     1     -39.822  51.686 -51.460  1.00  0.00     0.029 A 
ENDBRANCH  17  20
ENDBRANCH  15  16
ENDBRANCH   1  15
TORSDOF 3
ENDMDL
MODEL 3
REMARK VINA RESULT:      -7.6      1.947      2.638
REMARK  3 active torsions:
REMARK  status: ('A' for Active; 'I' for Inactive)
REMARK    1  A    between atoms: C_6  and  N_7 
REMARK       I    between atoms: N_7  and  C_8 
REMARK    2  A    between atoms: C_8  and  C_9 
REMARK    3  A    between atoms: C_9  and  C_10 
ROOT
HETATM    1  C   UNL     1     -43.236  55.018 -55.157  1.00  0.00     0.286 C 
HETATM    2  N   UNL     1     -42.164  55.192 -56.227  1.00  0.00    -0.056 N 
HETATM    3  H   UNL     1     -41.407  55.742 -55.766  1.00  0.00     0.278 HD
HETATM    4  H   UNL     1     -41.741  54.292 -56.481  1.00  0.00     0.278 HD
HETATM    5  C   UNL     1     -42.605  55.953 -57.447  1.00  0.00     0.209 C 
HETATM    6  C   UNL     1     -43.242  57.299 -57.020  1.00  0.00     0.115 C 
HETATM    7  N   UNL     1     -44.224  57.154 -55.947  1.00  0.00    -0.353 N 
HETATM    8  C   UNL     1     -44.041  56.303 -54.883  1.00  0.00     0.249 C 
HETATM    9  O   UNL     1     -44.598  56.527 -53.814  1.00  0.00    -0.271 OA
HETATM   10  C   UNL     1     -43.529  55.079 -58.298  1.00  0.00     0.035 C 
HETATM   11  C   UNL     1     -44.073  55.858 -59.493  1.00  0.00     0.002 C 
HETATM   12  C   UNL     1     -44.778  57.136 -59.047  1.00  0.00     0.002 C 
HETATM   13  C   UNL     1     -43.852  58.029 -58.222  1.00  0.00     0.027 C 
HETATM   14  H   UNL     1     -44.745  57.988 -55.675  1.00  0.00     0.163 HD
ENDROOT
BRANCH   1  15
HETATM   15  C   UNL     1     -42.658  54.426 -53.861  1.00  0.00     0.146 C 
BRANCH  15  16
HETATM   16  C   UNL     1     -41.260  54.916 -53.594  1.00  0.00     0.224 C 
HETATM   17  N   UNL     1     -40.222  54.081 -53.335  1.00  0.00    -0.327 N 
HETATM   18  H   UNL     1     -39.362  54.604 -53.188  1.00  0.00     0.169 HD
HETATM   19  O   UNL     1     -41.032  56.130 -53.697  1.00  0.00    -0.273 OA
BRANCH  17  20
HETATM   20  C   UNL     1     -40.077  52.680 -53.234  1.00  0.00     0.036 A 
HETATM   21  C   UNL     1     -39.832  51.962 -52.065  1.00  0.00     0.053 A 
HETATM   22  C   UNL     1     -39.699  50.567 -52.106  1.00  0.00     0.036 A 
HETATM   23  C   UNL     1     -39.822  49.869 -53.302  1.00  0.00     0.024 A 
HETATM   24 CL   UNL     1     -39.382  49.709 -50.647  1.00  0.00    -0.084 Cl
HETATM   25  C   UNL     1     -40.079  50.572 -54.473  1.00  0.00     0.004 A 
HETATM   26  C   UNL     1     -40.203  51.964 -54.436  1.00  0.00     0.029 A 
ENDBRANCH  17  20
ENDBRANCH  15  16
ENDBRANCH   1  15
TORSDOF 3
ENDMDL
MODEL 4
REMARK VINA RESULT:      -7.6      2.644      3.951
REMARK  3 active torsions:
REMARK  status: ('A' for Active; 'I' for Inactive)
REMARK    1  A    between atoms: C_6  and  N_7 
REMARK       I    between atoms: N_7  and  C_8 
REMARK    2  A    between atoms: C_8  and  C_9 
REMARK    3  A    between atoms: C_9  and  C_10 
ROOT
HETATM    1  C   UNL     1     -43.158  56.299 -52.403  1.00  0.00     0.286 C 
HETATM    2  N   UNL     1     -42.252  57.207 -53.225  1.00  0.00    -0.056 N 
HETATM    3  H   UNL     1     -41.409  56.631 -53.438  1.00  0.00     0.278 HD
HETATM    4  H   UNL     1     -42.673  57.431 -54.133  1.00  0.00     0.278 HD
HETATM    5  C   UNL     1     -41.788  58.450 -52.515  1.00  0.00     0.209 C 
HETATM    6  C   UNL     1     -41.165  58.068 -51.148  1.00  0.00     0.115 C 
HETATM    7  N   UNL     1     -41.994  57.143 -50.378  1.00  0.00    -0.353 N 
HETATM    8  C   UNL     1     -42.669  56.093 -50.956  1.00  0.00     0.249 C 
HETATM    9  O   UNL     1     -42.949  55.102 -50.290  1.00  0.00    -0.271 OA
HETATM   10  C   UNL     1     -42.944  59.447 -52.406  1.00  0.00     0.035 C 
HETATM   11  C   UNL     1     -42.532  60.678 -51.602  1.00  0.00     0.002 C 
HETATM   12  C   UNL     1     -42.007  60.289 -50.224  1.00  0.00     0.002 C 
HETATM   13  C   UNL     1     -40.832  59.317 -50.325  1.00  0.00     0.027 C 
HETATM   14  H   UNL     1     -41.687  56.917 -49.433  1.00  0.00     0.163 HD
ENDROOT
BRANCH   1  15
HETATM   15  C   UNL     1     -43.413  54.956 -53.108  1.00  0.00     0.146 C 
BRANCH  15  16
HETATM   16  C   UNL     1     -42.720  54.883 -54.442  1.00  0.00     0.224 C 
HETATM   17  N   UNL     1     -41.653  54.079 -54.677  1.00  0.00    -0.327 N 
HETATM   18  H   UNL     1     -41.333  54.169 -55.638  1.00  0.00     0.169 HD
HETATM   19  O   UNL     1     -43.198  55.524 -55.390  1.00  0.00    -0.273 OA
BRANCH  17  20
HETATM   20  C   UNL     1     -40.911  53.163 -53.899  1.00  0.00     0.036 A 
HETATM   21  C   UNL     1     -40.504  51.890 -54.295  1.00  0.00     0.053 A 
HETATM   22  C   UNL     1     -39.776  51.075 -53.417  1.00  0.00     0.036 A 
HETATM   23  C   UNL     1     -39.431  51.518 -52.145  1.00  0.00     0.024 A 
HETATM   24 CL   UNL     1     -39.299  49.501 -53.929  1.00  0.00    -0.084 Cl
HETATM   25  C   UNL     1     -39.820  52.790 -51.743  1.00  0.00     0.004 A 
HETATM   26  C   UNL     1     -40.554  53.602 -52.613  1.00  0.00     0.029 A 
ENDBRANCH  17  20
ENDBRANCH  15  16
ENDBRANCH   1  15
TORSDOF 3
ENDMDL
MODEL 5
REMARK VINA RESULT:      -7.4      3.226      6.056
REMARK  3 active torsions:
REMARK  status: ('A' for Active; 'I' for Inactive)
REMARK    1  A    between atoms: C_6  and  N_7 
REMARK       I    between atoms: N_7  and  C_8 
REMARK    2  A    between atoms: C_8  and  C_9 
REMARK    3  A    between atoms: C_9  and  C_10 
ROOT
HETATM    1  C   UNL     1     -42.041  53.688 -51.022  1.00  0.00     0.286 C 
HETATM    2  N   UNL     1     -40.519  53.625 -50.965  1.00  0.00    -0.056 N 
HETATM    3  H   UNL     1     -40.202  54.615 -51.057  1.00  0.00     0.278 HD
HETATM    4  H   UNL     1     -40.192  53.312 -50.044  1.00  0.00     0.278 HD
HETATM    5  C   UNL     1     -39.876  52.835 -52.072  1.00  0.00     0.209 C 
HETATM    6  C   UNL     1     -40.400  53.334 -53.442  1.00  0.00     0.115 C 
HETATM    7  N   UNL     1     -41.855  53.463 -53.488  1.00  0.00    -0.353 N 
HETATM    8  C   UNL     1     -42.590  53.958 -52.436  1.00  0.00     0.249 C 
HETATM    9  O   UNL     1     -43.679  54.482 -52.641  1.00  0.00    -0.271 OA
HETATM   10  C   UNL     1     -40.098  51.339 -51.837  1.00  0.00     0.035 C 
HETATM   11  C   UNL     1     -39.543  50.514 -52.996  1.00  0.00     0.002 C 
HETATM   12  C   UNL     1     -40.139  50.958 -54.328  1.00  0.00     0.002 C 
HETATM   13  C   UNL     1     -39.894  52.445 -54.584  1.00  0.00     0.027 C 
HETATM   14  H   UNL     1     -42.274  53.704 -54.385  1.00  0.00     0.163 HD
ENDROOT
BRANCH   1  15
HETATM   15  C   UNL     1     -42.610  54.682 -49.996  1.00  0.00     0.146 C 
BRANCH  15  16
HETATM   16  C   UNL     1     -41.582  55.692 -49.562  1.00  0.00     0.224 C 
HETATM   17  N   UNL     1     -41.363  56.854 -50.227  1.00  0.00    -0.327 N 
HETATM   18  H   UNL     1     -40.634  57.401 -49.775  1.00  0.00     0.169 HD
HETATM   19  O   UNL     1     -40.966  55.489 -48.505  1.00  0.00    -0.273 OA
BRANCH  17  20
HETATM   20  C   UNL     1     -41.916  57.459 -51.377  1.00  0.00     0.036 A 
HETATM   21  C   UNL     1     -43.144  58.113 -51.452  1.00  0.00     0.053 A 
HETATM   22  C   UNL     1     -43.580  58.664 -52.664  1.00  0.00     0.036 A 
HETATM   23  C   UNL     1     -42.797  58.587 -53.811  1.00  0.00     0.024 A 
HETATM   24 CL   UNL     1     -45.110  59.453 -52.729  1.00  0.00    -0.084 Cl
HETATM   25  C   UNL     1     -41.564  57.950 -53.747  1.00  0.00     0.004 A 
HETATM   26  C   UNL     1     -41.131  57.391 -52.540  1.00  0.00     0.029 A 
ENDBRANCH  17  20
ENDBRANCH  15  16
ENDBRANCH   1  15
TORSDOF 3
ENDMDL
MODEL 6
REMARK VINA RESULT:      -7.3     13.719     15.217
REMARK  3 active torsions:
REMARK  status: ('A' for Active; 'I' for Inactive)
REMARK    1  A    between atoms: C_6  and  N_7 
REMARK       I    between atoms: N_7  and  C_8 
REMARK    2  A    between atoms: C_8  and  C_9 
REMARK    3  A    between atoms: C_9  and  C_10 
ROOT
HETATM    1  C   UNL     1     -36.936  41.148 -53.237  1.00  0.00     0.286 C 
HETATM    2  N   UNL     1     -36.884  39.927 -54.148  1.00  0.00    -0.056 N 
HETATM    3  H   UNL     1     -36.101  39.345 -53.780  1.00  0.00     0.278 HD
HETATM    4  H   UNL     1     -37.729  39.352 -54.051  1.00  0.00     0.278 HD
HETATM    5  C   UNL     1     -36.590  40.227 -55.593  1.00  0.00     0.209 C 
HETATM    6  C   UNL     1     -35.314  41.100 -55.695  1.00  0.00     0.115 C 
HETATM    7  N   UNL     1     -35.321  42.237 -54.777  1.00  0.00    -0.353 N 
HETATM    8  C   UNL     1     -35.790  42.148 -53.487  1.00  0.00     0.249 C 
HETATM    9  O   UNL     1     -35.376  42.917 -52.628  1.00  0.00    -0.271 OA
HETATM   10  C   UNL     1     -37.819  40.858 -56.252  1.00  0.00     0.035 C 
HETATM   11  C   UNL     1     -37.520  41.266 -57.693  1.00  0.00     0.002 C 
HETATM   12  C   UNL     1     -36.315  42.198 -57.765  1.00  0.00     0.002 C 
HETATM   13  C   UNL     1     -35.075  41.564 -57.136  1.00  0.00     0.027 C 
HETATM   14  H   UNL     1     -34.552  42.902 -54.851  1.00  0.00     0.163 HD
ENDROOT
BRANCH   1  15
HETATM   15  C   UNL     1     -37.024  40.750 -51.754  1.00  0.00     0.146 C 
BRANCH  15  16
HETATM   16  C   UNL     1     -36.869  39.265 -51.561  1.00  0.00     0.224 C 
HETATM   17  N   UNL     1     -35.680  38.679 -51.270  1.00  0.00    -0.327 N 
HETATM   18  H   UNL     1     -35.785  37.672 -51.173  1.00  0.00     0.169 HD
HETATM   19  O   UNL     1     -37.887  38.558 -51.589  1.00  0.00    -0.273 OA
BRANCH  17  20
HETATM   20  C   UNL     1     -34.364  39.150 -51.070  1.00  0.00     0.036 A 
HETATM   21  C   UNL     1     -33.725  39.307 -49.842  1.00  0.00     0.053 A 
HETATM   22  C   UNL     1     -32.412  39.795 -49.784  1.00  0.00     0.036 A 
HETATM   23  C   UNL     1     -31.715  40.119 -50.943  1.00  0.00     0.024 A 
HETATM   24 CL   UNL     1     -31.654  39.993 -48.250  1.00  0.00    -0.084 Cl
HETATM   25  C   UNL     1     -32.336  39.955 -52.175  1.00  0.00     0.004 A 
HETATM   26  C   UNL     1     -33.649  39.476 -52.235  1.00  0.00     0.029 A 
ENDBRANCH  17  20
ENDBRANCH  15  16
ENDBRANCH   1  15
TORSDOF 3
ENDMDL
MODEL 7
REMARK VINA RESULT:      -7.3      1.624      2.103
REMARK  3 active torsions:
REMARK  status: ('A' for Active; 'I' for Inactive)
REMARK    1  A    between atoms: C_6  and  N_7 
REMARK       I    between atoms: N_7  and  C_8 
REMARK    2  A    between atoms: C_8  and  C_9 
REMARK    3  A    between atoms: C_9  and  C_10 
ROOT
HETATM    1  C   UNL     1     -43.275  55.499 -54.154  1.00  0.00     0.286 C 
HETATM    2  N   UNL     1     -42.042  55.614 -55.043  1.00  0.00    -0.056 N 
HETATM    3  H   UNL     1     -41.339  56.128 -54.467  1.00  0.00     0.278 HD
HETATM    4  H   UNL     1     -41.629  54.694 -55.231  1.00  0.00     0.278 HD
HETATM    5  C   UNL     1     -42.247  56.392 -56.314  1.00  0.00     0.209 C 
HETATM    6  C   UNL     1     -42.876  57.770 -55.987  1.00  0.00     0.115 C 
HETATM    7  N   UNL     1     -44.019  57.679 -55.081  1.00  0.00    -0.353 N 
HETATM    8  C   UNL     1     -44.048  56.823 -54.005  1.00  0.00     0.249 C 
HETATM    9  O   UNL     1     -44.753  57.079 -53.035  1.00  0.00    -0.271 OA
HETATM   10  C   UNL     1     -43.070  55.561 -57.303  1.00  0.00     0.035 C 
HETATM   11  C   UNL     1     -43.380  56.362 -58.565  1.00  0.00     0.002 C 
HETATM   12  C   UNL     1     -44.082  57.674 -58.230  1.00  0.00     0.002 C 
HETATM   13  C   UNL     1     -43.253  58.524 -57.267  1.00  0.00     0.027 C 
HETATM   14  H   UNL     1     -44.534  58.538 -54.891  1.00  0.00     0.163 HD
ENDROOT
BRANCH   1  15
HETATM   15  C   UNL     1     -42.937  54.884 -52.786  1.00  0.00     0.146 C 
BRANCH  15  16
HETATM   16  C   UNL     1     -41.605  55.358 -52.271  1.00  0.00     0.224 C 
HETATM   17  N   UNL     1     -40.520  54.548 -52.174  1.00  0.00    -0.327 N 
HETATM   18  H   UNL     1     -39.718  55.056 -51.810  1.00  0.00     0.169 HD
HETATM   19  O   UNL     1     -41.471  56.561 -52.001  1.00  0.00    -0.273 OA
BRANCH  17  20
HETATM   20  C   UNL     1     -40.267  53.190 -52.466  1.00  0.00     0.036 A 
HETATM   21  C   UNL     1     -39.969  52.192 -51.541  1.00  0.00     0.053 A 
HETATM   22  C   UNL     1     -39.728  50.879 -51.968  1.00  0.00     0.036 A 
HETATM   23  C   UNL     1     -39.795  50.539 -53.314  1.00  0.00     0.024 A 
HETATM   24 CL   UNL     1     -39.348  49.670 -50.802  1.00  0.00    -0.084 Cl
HETATM   25  C   UNL     1     -40.103  51.522 -54.247  1.00  0.00     0.004 A 
HETATM   26  C   UNL     1     -40.335  52.834 -53.824  1.00  0.00     0.029 A 
ENDBRANCH  17  20
ENDBRANCH  15  16
ENDBRANCH   1  15
TORSDOF 3
ENDMDL
MODEL 8
REMARK VINA RESULT:      -7.3      3.126      7.081
REMARK  3 active torsions:
REMARK  status: ('A' for Active; 'I' for Inactive)
REMARK    1  A    between atoms: C_6  and  N_7 
REMARK       I    between atoms: N_7  and  C_8 
REMARK    2  A    between atoms: C_8  and  C_9 
REMARK    3  A    between atoms: C_9  and  C_10 
ROOT
HETATM    1  C   UNL     1     -41.608  56.137 -54.083  1.00  0.00     0.286 C 
HETATM    2  N   UNL     1     -42.342  54.828 -54.354  1.00  0.00    -0.056 N 
HETATM    3  H   UNL     1     -43.328  55.004 -54.063  1.00  0.00     0.278 HD
HETATM    4  H   UNL     1     -42.380  54.622 -55.358  1.00  0.00     0.278 HD
HETATM    5  C   UNL     1     -41.838  53.646 -53.571  1.00  0.00     0.209 C 
HETATM    6  C   UNL     1     -41.791  54.001 -52.063  1.00  0.00     0.115 C 
HETATM    7  N   UNL     1     -41.149  55.287 -51.796  1.00  0.00    -0.353 N 
HETATM    8  C   UNL     1     -41.347  56.394 -52.586  1.00  0.00     0.249 C 
HETATM    9  O   UNL     1     -41.205  57.517 -52.117  1.00  0.00    -0.271 OA
HETATM   10  C   UNL     1     -40.492  53.185 -54.135  1.00  0.00     0.035 C 
HETATM   11  C   UNL     1     -39.907  52.050 -53.299  1.00  0.00     0.002 C 
HETATM   12  C   UNL     1     -39.783  52.449 -51.832  1.00  0.00     0.002 C 
HETATM   13  C   UNL     1     -41.129  52.882 -51.252  1.00  0.00     0.027 C 
HETATM   14  H   UNL     1     -41.007  55.543 -50.819  1.00  0.00     0.163 HD
ENDROOT
BRANCH   1  15
HETATM   15  C   UNL     1     -42.309  57.333 -54.748  1.00  0.00     0.146 C 
BRANCH  15  16
HETATM   16  C   UNL     1     -43.722  57.003 -55.149  1.00  0.00     0.224 C 
HETATM   17  N   UNL     1     -44.125  56.930 -56.443  1.00  0.00    -0.327 N 
HETATM   18  H   UNL     1     -45.112  56.690 -56.504  1.00  0.00     0.169 HD
HETATM   19  O   UNL     1     -44.533  56.706 -54.259  1.00  0.00    -0.273 OA
BRANCH  17  20
HETATM   20  C   UNL     1     -43.489  57.102 -57.691  1.00  0.00     0.036 A 
HETATM   21  C   UNL     1     -43.084  58.314 -58.247  1.00  0.00     0.053 A 
HETATM   22  C   UNL     1     -42.469  58.346 -59.505  1.00  0.00     0.036 A 
HETATM   23  C   UNL     1     -42.234  57.176 -60.219  1.00  0.00     0.024 A 
HETATM   24 CL   UNL     1     -41.994  59.861 -60.173  1.00  0.00    -0.084 Cl
HETATM   25  C   UNL     1     -42.620  55.959 -59.671  1.00  0.00     0.004 A 
HETATM   26  C   UNL     1     -43.243  55.926 -58.419  1.00  0.00     0.029 A 
ENDBRANCH  17  20
ENDBRANCH  15  16
ENDBRANCH   1  15
TORSDOF 3
ENDMDL
MODEL 9
REMARK VINA RESULT:      -7.3      2.220      3.289
REMARK  3 active torsions:
REMARK  status: ('A' for Active; 'I' for Inactive)
REMARK    1  A    between atoms: C_6  and  N_7 
REMARK       I    between atoms: N_7  and  C_8 
REMARK    2  A    between atoms: C_8  and  C_9 
REMARK    3  A    between atoms: C_9  and  C_10 
ROOT
HETATM    1  C   UNL     1     -43.151  57.586 -52.990  1.00  0.00     0.286 C 
HETATM    2  N   UNL     1     -44.378  56.861 -53.528  1.00  0.00    -0.056 N 
HETATM    3  H   UNL     1     -44.348  55.913 -53.093  1.00  0.00     0.278 HD
HETATM    4  H   UNL     1     -45.246  57.294 -53.192  1.00  0.00     0.278 HD
HETATM    5  C   UNL     1     -44.402  56.677 -55.021  1.00  0.00     0.209 C 
HETATM    6  C   UNL     1     -43.075  56.027 -55.487  1.00  0.00     0.115 C 
HETATM    7  N   UNL     1     -41.890  56.671 -54.924  1.00  0.00    -0.353 N 
HETATM    8  C   UNL     1     -41.829  57.103 -53.620  1.00  0.00     0.249 C 
HETATM    9  O   UNL     1     -40.747  57.194 -53.053  1.00  0.00    -0.271 OA
HETATM   10  C   UNL     1     -44.703  58.014 -55.703  1.00  0.00     0.035 C 
HETATM   11  C   UNL     1     -44.635  57.881 -57.223  1.00  0.00     0.002 C 
HETATM   12  C   UNL     1     -43.287  57.325 -57.671  1.00  0.00     0.002 C 
HETATM   13  C   UNL     1     -42.992  55.974 -57.017  1.00  0.00     0.027 C 
HETATM   14  H   UNL     1     -40.982  56.349 -55.256  1.00  0.00     0.163 HD
ENDROOT
BRANCH   1  15
HETATM   15  C   UNL     1     -43.091  57.545 -51.454  1.00  0.00     0.146 C 
BRANCH  15  16
HETATM   16  C   UNL     1     -43.965  56.459 -50.887  1.00  0.00     0.224 C 
HETATM   17  N   UNL     1     -43.525  55.192 -50.676  1.00  0.00    -0.327 N 
HETATM   18  H   UNL     1     -44.263  54.611 -50.284  1.00  0.00     0.169 HD
HETATM   19  O   UNL     1     -45.111  56.756 -50.520  1.00  0.00    -0.273 OA
BRANCH  17  20
HETATM   20  C   UNL     1     -42.298  54.522 -50.872  1.00  0.00     0.036 A 
HETATM   21  C   UNL     1     -41.907  53.844 -52.025  1.00  0.00     0.053 A 
HETATM   22  C   UNL     1     -40.658  53.211 -52.085  1.00  0.00     0.036 A 
HETATM   23  C   UNL     1     -39.778  53.255 -51.009  1.00  0.00     0.024 A 
HETATM   24 CL   UNL     1     -40.209  52.368 -53.518  1.00  0.00    -0.084 Cl
HETATM   25  C   UNL     1     -40.151  53.939 -49.858  1.00  0.00     0.004 A 
HETATM   26  C   UNL     1     -41.400  54.564 -49.793  1.00  0.00     0.029 A 
ENDBRANCH  17  20
ENDBRANCH  15  16
ENDBRANCH   1  15
TORSDOF 3
ENDMDL
MODEL 10
REMARK VINA RESULT:      -7.2     13.497     16.280
REMARK  3 active torsions:
REMARK  status: ('A' for Active; 'I' for Inactive)
REMARK    1  A    between atoms: C_6  and  N_7 
REMARK       I    between atoms: N_7  and  C_8 
REMARK    2  A    between atoms: C_8  and  C_9 
REMARK    3  A    between atoms: C_9  and  C_10 
ROOT
HETATM    1  C   UNL     1     -34.245  40.816 -53.941  1.00  0.00     0.286 C 
HETATM    2  N   UNL     1     -34.508  41.472 -52.591  1.00  0.00    -0.056 N 
HETATM    3  H   UNL     1     -34.130  42.440 -52.680  1.00  0.00     0.278 HD
HETATM    4  H   UNL     1     -35.514  41.581 -52.418  1.00  0.00     0.278 HD
HETATM    5  C   UNL     1     -33.820  40.818 -51.424  1.00  0.00     0.209 C 
HETATM    6  C   UNL     1     -32.308  40.668 -51.728  1.00  0.00     0.115 C 
HETATM    7  N   UNL     1     -32.041  40.102 -53.049  1.00  0.00    -0.353 N 
HETATM    8  C   UNL     1     -32.766  40.448 -54.165  1.00  0.00     0.249 C 
HETATM    9  O   UNL     1     -32.263  40.349 -55.278  1.00  0.00    -0.271 OA
HETATM   10  C   UNL     1     -34.513  39.495 -51.088  1.00  0.00     0.035 C 
HETATM   11  C   UNL     1     -33.776  38.758 -49.972  1.00  0.00     0.002 C 
HETATM   12  C   UNL     1     -32.309  38.538 -50.327  1.00  0.00     0.002 C 
HETATM   13  C   UNL     1     -31.602  39.858 -50.635  1.00  0.00     0.027 C 
HETATM   14  H   UNL     1     -31.070  39.896 -53.281  1.00  0.00     0.163 HD
ENDROOT
BRANCH   1  15
HETATM   15  C   UNL     1     -34.799  41.658 -55.103  1.00  0.00     0.146 C 
BRANCH  15  16
HETATM   16  C   UNL     1     -36.176  42.189 -54.805  1.00  0.00     0.224 C 
HETATM   17  N   UNL     1     -37.220  42.056 -55.661  1.00  0.00    -0.327 N 
HETATM   18  H   UNL     1     -38.063  42.475 -55.276  1.00  0.00     0.169 HD
HETATM   19  O   UNL     1     -36.383  42.698 -53.693  1.00  0.00    -0.273 OA
BRANCH  17  20
HETATM   20  C   UNL     1     -37.390  41.472 -56.935  1.00  0.00     0.036 A 
HETATM   21  C   UNL     1     -37.892  40.198 -57.195  1.00  0.00     0.053 A 
HETATM   22  C   UNL     1     -38.001  39.735 -58.513  1.00  0.00     0.036 A 
HETATM   23  C   UNL     1     -37.626  40.534 -59.588  1.00  0.00     0.024 A 
HETATM   24 CL   UNL     1     -38.612  38.151 -58.802  1.00  0.00    -0.084 Cl
HETATM   25  C   UNL     1     -37.136  41.811 -59.344  1.00  0.00     0.004 A 
HETATM   26  C   UNL     1     -37.018  42.272 -58.029  1.00  0.00     0.029 A 
ENDBRANCH  17  20
ENDBRANCH  15  16
ENDBRANCH   1  15
TORSDOF 3
ENDMDL
