MODEL 1
REMARK VINA RESULT:      -9.8      0.000      0.000
REMARK  4 active torsions:
REMARK  status: ('A' for Active; 'I' for Inactive)
REMARK    1  A    between atoms: N_4  and  C_5 
REMARK    2  A    between atoms: C_16  and  N_17 
REMARK       I    between atoms: N_17  and  C_18 
REMARK    3  A    between atoms: C_18  and  C_19 
REMARK       I    between atoms: C_19  and  N_20 
REMARK    4  A    between atoms: N_20  and  C_21 
ROOT
HETATM    1  N   UNL     1     -43.803  56.848 -58.029  1.00  0.00    -0.303 N 
HETATM    2  C   UNL     1     -43.994  57.317 -56.742  1.00  0.00     0.315 C 
HETATM    3  O   UNL     1     -44.992  57.860 -56.282  1.00  0.00    -0.262 OA
HETATM    4  H   UNL     1     -43.095  56.127 -58.142  1.00  0.00     0.171 HD
ENDROOT
BRANCH   1   5
HETATM    5  C   UNL     1     -44.731  57.090 -59.024  1.00  0.00     0.152 C 
HETATM    6  N   UNL     1     -44.865  58.265 -59.763  1.00  0.00    -0.045 N 
HETATM    7  N   UNL     1     -46.022  58.247 -60.508  1.00  0.00    -0.156 NA
HETATM    8  C   UNL     1     -46.458  56.985 -60.410  1.00  0.00     0.055 C 
HETATM    9  C   UNL     1     -47.671  56.551 -61.147  1.00  0.00     0.072 C 
HETATM   10  C   UNL     1     -45.658  56.213 -59.539  1.00  0.00     0.079 C 
BRANCH   6  11
HETATM   11  C   UNL     1     -43.936  59.306 -59.990  1.00  0.00     0.732 A 
HETATM   12  N   UNL     1     -43.149  59.798 -59.085  1.00  0.00    -0.067 NA
HETATM   13  C   UNL     1     -42.283  60.787 -59.492  1.00  0.00     0.065 A 
HETATM   14  C   UNL     1     -42.172  61.220 -60.761  1.00  0.00     0.036 A 
HETATM   15  C   UNL     1     -41.420  61.364 -58.393  1.00  0.00     0.060 C 
HETATM   16  C   UNL     1     -41.229  62.297 -61.212  1.00  0.00     0.046 C 
HETATM   17  C   UNL     1     -43.046  60.597 -61.784  1.00  0.00     0.268 A 
HETATM   18  C   UNL     1     -40.633  63.090 -60.048  1.00  0.00     0.005 C 
HETATM   19  C   UNL     1     -40.224  62.168 -58.906  1.00  0.00     0.006 C 
HETATM   20  O   UNL     1     -42.966  60.881 -62.975  1.00  0.00    -0.267 OA
HETATM   21  N   UNL     1     -43.928  59.681 -61.306  1.00  0.00    -0.152 N 
HETATM   22  H   UNL     1     -44.534  59.191 -61.956  1.00  0.00     0.188 HD
ENDBRANCH   6  11
ENDBRANCH   1   5
BRANCH   2  23
HETATM   23  C   UNL     1     -42.803  57.014 -55.810  1.00  0.00     0.310 C 
HETATM   24  N   UNL     1     -42.852  55.752 -55.265  1.00  0.00    -0.348 N 
HETATM   25  H   UNL     1     -43.697  55.235 -55.501  1.00  0.00     0.163 HD
HETATM   26  O   UNL     1     -41.953  57.871 -55.619  1.00  0.00    -0.262 OA
BRANCH  24  27
HETATM   27  C   UNL     1     -42.049  55.311 -54.125  1.00  0.00     0.084 C 
HETATM   28  C   UNL     1     -42.702  55.871 -52.836  1.00  0.00     0.025 C 
HETATM   29  C   UNL     1     -41.787  55.829 -51.604  1.00  0.00     0.002 C 
HETATM   30  C   UNL     1     -42.254  54.822 -50.545  1.00  0.00     0.000 C 
HETATM   31  C   UNL     1     -41.143  54.429 -49.558  1.00  0.00     0.000 C 
HETATM   32  C   UNL     1     -40.579  53.026 -49.829  1.00  0.00     0.000 C 
HETATM   33  C   UNL     1     -39.808  52.924 -51.147  1.00  0.00     0.000 C 
HETATM   34  C   UNL     1     -39.881  51.522 -51.750  1.00  0.00     0.000 C 
HETATM   35  C   UNL     1     -39.285  51.438 -53.159  1.00  0.00     0.000 C 
HETATM   36  C   UNL     1     -40.249  51.806 -54.302  1.00  0.00     0.000 C 
HETATM   37  C   UNL     1     -40.481  53.310 -54.512  1.00  0.00     0.002 C 
HETATM   38  C   UNL     1     -41.888  53.770 -54.088  1.00  0.00     0.025 C 
ENDBRANCH  24  27
ENDBRANCH   2  23
TORSDOF 4
ENDMDL
MODEL 2
REMARK VINA RESULT:      -9.7      2.215      4.785
REMARK  4 active torsions:
REMARK  status: ('A' for Active; 'I' for Inactive)
REMARK    1  A    between atoms: N_4  and  C_5 
REMARK    2  A    between atoms: C_16  and  N_17 
REMARK       I    between atoms: N_17  and  C_18 
REMARK    3  A    between atoms: C_18  and  C_19 
REMARK       I    between atoms: C_19  and  N_20 
REMARK    4  A    between atoms: N_20  and  C_21 
ROOT
HETATM    1  N   UNL     1     -43.232  59.306 -55.532  1.00  0.00    -0.303 N 
HETATM    2  C   UNL     1     -44.302  58.651 -54.951  1.00  0.00     0.315 C 
HETATM    3  O   UNL     1     -45.491  58.764 -55.230  1.00  0.00    -0.262 OA
HETATM    4  H   UNL     1     -42.327  58.849 -55.446  1.00  0.00     0.171 HD
ENDROOT
BRANCH   1   5
HETATM    5  C   UNL     1     -43.426  60.323 -56.447  1.00  0.00     0.152 C 
HETATM    6  N   UNL     1     -43.654  60.174 -57.815  1.00  0.00    -0.045 N 
HETATM    7  N   UNL     1     -43.582  61.388 -58.459  1.00  0.00    -0.156 NA
HETATM    8  C   UNL     1     -43.553  62.286 -57.468  1.00  0.00     0.055 C 
HETATM    9  C   UNL     1     -43.540  63.739 -57.773  1.00  0.00     0.072 C 
HETATM   10  C   UNL     1     -43.507  61.674 -56.197  1.00  0.00     0.079 C 
BRANCH   6  11
HETATM   11  C   UNL     1     -44.118  59.054 -58.541  1.00  0.00     0.732 A 
HETATM   12  N   UNL     1     -43.598  57.869 -58.475  1.00  0.00    -0.067 NA
HETATM   13  C   UNL     1     -44.202  56.887 -59.227  1.00  0.00     0.065 A 
HETATM   14  C   UNL     1     -45.311  57.074 -59.965  1.00  0.00     0.036 A 
HETATM   15  C   UNL     1     -43.531  55.534 -59.157  1.00  0.00     0.060 C 
HETATM   16  C   UNL     1     -45.975  56.008 -60.786  1.00  0.00     0.046 C 
HETATM   17  C   UNL     1     -45.917  58.428 -59.974  1.00  0.00     0.268 A 
HETATM   18  C   UNL     1     -45.097  54.770 -60.974  1.00  0.00     0.005 C 
HETATM   19  C   UNL     1     -44.401  54.387 -59.674  1.00  0.00     0.006 C 
HETATM   20  O   UNL     1     -46.964  58.672 -60.563  1.00  0.00    -0.267 OA
HETATM   21  N   UNL     1     -45.233  59.368 -59.271  1.00  0.00    -0.152 N 
HETATM   22  H   UNL     1     -45.608  60.308 -59.207  1.00  0.00     0.188 HD
ENDBRANCH   6  11
ENDBRANCH   1   5
BRANCH   2  23
HETATM   23  C   UNL     1     -43.869  57.613 -53.896  1.00  0.00     0.310 C 
HETATM   24  N   UNL     1     -42.783  56.865 -54.288  1.00  0.00    -0.348 N 
HETATM   25  H   UNL     1     -42.472  57.060 -55.239  1.00  0.00     0.163 HD
HETATM   26  O   UNL     1     -44.493  57.519 -52.850  1.00  0.00    -0.262 OA
BRANCH  24  27
HETATM   27  C   UNL     1     -42.359  55.622 -53.647  1.00  0.00     0.084 C 
HETATM   28  C   UNL     1     -41.697  54.728 -54.726  1.00  0.00     0.025 C 
HETATM   29  C   UNL     1     -41.548  53.257 -54.314  1.00  0.00     0.002 C 
HETATM   30  C   UNL     1     -40.088  52.840 -54.098  1.00  0.00     0.000 C 
HETATM   31  C   UNL     1     -39.946  51.561 -53.257  1.00  0.00     0.000 C 
HETATM   32  C   UNL     1     -39.486  51.848 -51.818  1.00  0.00     0.000 C 
HETATM   33  C   UNL     1     -40.526  52.597 -50.984  1.00  0.00     0.000 C 
HETATM   34  C   UNL     1     -39.882  53.474 -49.912  1.00  0.00     0.000 C 
HETATM   35  C   UNL     1     -40.883  54.383 -49.191  1.00  0.00     0.000 C 
HETATM   36  C   UNL     1     -41.170  55.725 -49.887  1.00  0.00     0.000 C 
HETATM   37  C   UNL     1     -42.128  55.655 -51.085  1.00  0.00     0.002 C 
HETATM   38  C   UNL     1     -41.425  55.880 -52.437  1.00  0.00     0.025 C 
ENDBRANCH  24  27
ENDBRANCH   2  23
TORSDOF 4
ENDMDL
MODEL 3
REMARK VINA RESULT:      -9.6      2.191      4.320
REMARK  4 active torsions:
REMARK  status: ('A' for Active; 'I' for Inactive)
REMARK    1  A    between atoms: N_4  and  C_5 
REMARK    2  A    between atoms: C_16  and  N_17 
REMARK       I    between atoms: N_17  and  C_18 
REMARK    3  A    between atoms: C_18  and  C_19 
REMARK       I    between atoms: C_19  and  N_20 
REMARK    4  A    between atoms: N_20  and  C_21 
ROOT
HETATM    1  N   UNL     1     -42.120  60.506 -56.098  1.00  0.00    -0.303 N 
HETATM    2  C   UNL     1     -42.674  59.700 -55.121  1.00  0.00     0.315 C 
HETATM    3  O   UNL     1     -43.863  59.507 -54.894  1.00  0.00    -0.262 OA
HETATM    4  H   UNL     1     -41.170  60.280 -56.381  1.00  0.00     0.171 HD
ENDROOT
BRANCH   1   5
HETATM    5  C   UNL     1     -42.908  61.336 -56.873  1.00  0.00     0.152 C 
HETATM    6  N   UNL     1     -43.516  61.008 -58.084  1.00  0.00    -0.045 N 
HETATM    7  N   UNL     1     -44.038  62.128 -58.691  1.00  0.00    -0.156 NA
HETATM    8  C   UNL     1     -43.963  63.078 -57.751  1.00  0.00     0.055 C 
HETATM    9  C   UNL     1     -44.498  64.437 -58.013  1.00  0.00     0.072 C 
HETATM   10  C   UNL     1     -43.314  62.620 -56.584  1.00  0.00     0.079 C 
BRANCH   6  11
HETATM   11  C   UNL     1     -43.825  59.742 -58.631  1.00  0.00     0.732 A 
HETATM   12  N   UNL     1     -45.005  59.206 -58.621  1.00  0.00    -0.067 NA
HETATM   13  C   UNL     1     -45.130  57.979 -59.230  1.00  0.00     0.065 A 
HETATM   14  C   UNL     1     -44.130  57.346 -59.870  1.00  0.00     0.036 A 
HETATM   15  C   UNL     1     -46.513  57.370 -59.150  1.00  0.00     0.060 C 
HETATM   16  C   UNL     1     -44.260  56.008 -60.537  1.00  0.00     0.046 C 
HETATM   17  C   UNL     1     -42.806  58.012 -59.915  1.00  0.00     0.268 A 
HETATM   18  C   UNL     1     -45.543  55.272 -60.147  1.00  0.00     0.005 C 
HETATM   19  C   UNL     1     -46.737  56.219 -60.131  1.00  0.00     0.006 C 
HETATM   20  O   UNL     1     -41.857  57.541 -60.532  1.00  0.00    -0.267 OA
HETATM   21  N   UNL     1     -42.729  59.185 -59.233  1.00  0.00    -0.152 N 
HETATM   22  H   UNL     1     -41.862  59.711 -59.249  1.00  0.00     0.188 HD
ENDBRANCH   6  11
ENDBRANCH   1   5
BRANCH   2  23
HETATM   23  C   UNL     1     -41.615  58.921 -54.316  1.00  0.00     0.310 C 
HETATM   24  N   UNL     1     -41.893  57.577 -54.217  1.00  0.00    -0.348 N 
HETATM   25  H   UNL     1     -42.787  57.311 -54.628  1.00  0.00     0.163 HD
HETATM   26  O   UNL     1     -40.663  59.516 -53.835  1.00  0.00    -0.262 OA
BRANCH  24  27
HETATM   27  C   UNL     1     -41.254  56.666 -53.268  1.00  0.00     0.084 C 
HETATM   28  C   UNL     1     -41.728  57.050 -51.844  1.00  0.00     0.025 C 
HETATM   29  C   UNL     1     -40.868  56.457 -50.719  1.00  0.00     0.002 C 
HETATM   30  C   UNL     1     -41.606  55.390 -49.900  1.00  0.00     0.000 C 
HETATM   31  C   UNL     1     -40.656  54.477 -49.108  1.00  0.00     0.000 C 
HETATM   32  C   UNL     1     -40.510  53.084 -49.740  1.00  0.00     0.000 C 
HETATM   33  C   UNL     1     -39.793  53.100 -51.091  1.00  0.00     0.000 C 
HETATM   34  C   UNL     1     -40.258  51.965 -52.003  1.00  0.00     0.000 C 
HETATM   35  C   UNL     1     -39.704  52.068 -53.428  1.00  0.00     0.000 C 
HETATM   36  C   UNL     1     -40.519  52.955 -54.385  1.00  0.00     0.000 C 
HETATM   37  C   UNL     1     -40.315  54.469 -54.218  1.00  0.00     0.002 C 
HETATM   38  C   UNL     1     -41.535  55.180 -53.607  1.00  0.00     0.025 C 
ENDBRANCH  24  27
ENDBRANCH   2  23
TORSDOF 4
ENDMDL
MODEL 4
REMARK VINA RESULT:      -9.6      1.723      4.875
REMARK  4 active torsions:
REMARK  status: ('A' for Active; 'I' for Inactive)
REMARK    1  A    between atoms: N_4  and  C_5 
REMARK    2  A    between atoms: C_16  and  N_17 
REMARK       I    between atoms: N_17  and  C_18 
REMARK    3  A    between atoms: C_18  and  C_19 
REMARK       I    between atoms: C_19  and  N_20 
REMARK    4  A    between atoms: N_20  and  C_21 
ROOT
HETATM    1  N   UNL     1     -42.059  59.047 -56.783  1.00  0.00    -0.303 N 
HETATM    2  C   UNL     1     -43.145  59.102 -55.929  1.00  0.00     0.315 C 
HETATM    3  O   UNL     1     -44.159  59.780 -56.049  1.00  0.00    -0.262 OA
HETATM    4  H   UNL     1     -41.494  58.203 -56.737  1.00  0.00     0.171 HD
ENDROOT
BRANCH   1   5
HETATM    5  C   UNL     1     -41.944  59.916 -57.851  1.00  0.00     0.152 C 
HETATM    6  N   UNL     1     -42.469  59.730 -59.130  1.00  0.00    -0.045 N 
HETATM    7  N   UNL     1     -41.982  60.676 -60.003  1.00  0.00    -0.156 NA
HETATM    8  C   UNL     1     -41.365  61.565 -59.216  1.00  0.00     0.055 C 
HETATM    9  C   UNL     1     -40.758  62.788 -59.797  1.00  0.00     0.072 C 
HETATM   10  C   UNL     1     -41.359  61.162 -57.863  1.00  0.00     0.079 C 
BRANCH   6  11
HETATM   11  C   UNL     1     -43.516  58.887 -59.568  1.00  0.00     0.732 A 
HETATM   12  N   UNL     1     -44.710  59.293 -59.864  1.00  0.00    -0.067 NA
HETATM   13  C   UNL     1     -45.595  58.337 -60.306  1.00  0.00     0.065 A 
HETATM   14  C   UNL     1     -45.278  57.044 -60.498  1.00  0.00     0.036 A 
HETATM   15  C   UNL     1     -46.989  58.849 -60.592  1.00  0.00     0.060 C 
HETATM   16  C   UNL     1     -46.238  55.996 -60.981  1.00  0.00     0.046 C 
HETATM   17  C   UNL     1     -43.887  56.621 -60.206  1.00  0.00     0.268 A 
HETATM   18  C   UNL     1     -47.696  56.456 -60.927  1.00  0.00     0.005 C 
HETATM   19  C   UNL     1     -47.840  57.889 -61.426  1.00  0.00     0.006 C 
HETATM   20  O   UNL     1     -43.492  55.479 -60.415  1.00  0.00    -0.267 OA
HETATM   21  N   UNL     1     -43.084  57.596 -59.703  1.00  0.00    -0.152 N 
HETATM   22  H   UNL     1     -42.110  57.384 -59.512  1.00  0.00     0.188 HD
ENDBRANCH   6  11
ENDBRANCH   1   5
BRANCH   2  23
HETATM   23  C   UNL     1     -43.036  58.108 -54.755  1.00  0.00     0.310 C 
HETATM   24  N   UNL     1     -41.970  57.246 -54.876  1.00  0.00    -0.348 N 
HETATM   25  H   UNL     1     -41.457  57.346 -55.750  1.00  0.00     0.163 HD
HETATM   26  O   UNL     1     -43.863  58.141 -53.857  1.00  0.00    -0.262 OA
BRANCH  24  27
HETATM   27  C   UNL     1     -41.806  56.019 -54.098  1.00  0.00     0.084 C 
HETATM   28  C   UNL     1     -41.156  54.953 -55.016  1.00  0.00     0.025 C 
HETATM   29  C   UNL     1     -41.268  53.518 -54.484  1.00  0.00     0.002 C 
HETATM   30  C   UNL     1     -39.918  52.932 -54.053  1.00  0.00     0.000 C 
HETATM   31  C   UNL     1     -40.059  51.725 -53.110  1.00  0.00     0.000 C 
HETATM   32  C   UNL     1     -39.736  52.074 -51.649  1.00  0.00     0.000 C 
HETATM   33  C   UNL     1     -40.749  53.027 -51.012  1.00  0.00     0.000 C 
HETATM   34  C   UNL     1     -40.117  53.902 -49.930  1.00  0.00     0.000 C 
HETATM   35  C   UNL     1     -41.056  54.995 -49.411  1.00  0.00     0.000 C 
HETATM   36  C   UNL     1     -41.065  56.297 -50.233  1.00  0.00     0.000 C 
HETATM   37  C   UNL     1     -41.876  56.248 -51.537  1.00  0.00     0.002 C 
HETATM   38  C   UNL     1     -40.994  56.257 -52.799  1.00  0.00     0.025 C 
ENDBRANCH  24  27
ENDBRANCH   2  23
TORSDOF 4
ENDMDL
MODEL 5
REMARK VINA RESULT:      -9.5      3.245      4.647
REMARK  4 active torsions:
REMARK  status: ('A' for Active; 'I' for Inactive)
REMARK    1  A    between atoms: N_4  and  C_5 
REMARK    2  A    between atoms: C_16  and  N_17 
REMARK       I    between atoms: N_17  and  C_18 
REMARK    3  A    between atoms: C_18  and  C_19 
REMARK       I    between atoms: C_19  and  N_20 
REMARK    4  A    between atoms: N_20  and  C_21 
ROOT
HETATM    1  N   UNL     1     -43.724  59.431 -53.965  1.00  0.00    -0.303 N 
HETATM    2  C   UNL     1     -42.457  59.957 -53.794  1.00  0.00     0.315 C 
HETATM    3  O   UNL     1     -42.123  61.136 -53.839  1.00  0.00    -0.262 OA
HETATM    4  H   UNL     1     -43.890  58.517 -53.549  1.00  0.00     0.171 HD
ENDROOT
BRANCH   1   5
HETATM    5  C   UNL     1     -44.780  60.224 -54.370  1.00  0.00     0.152 C 
HETATM    6  N   UNL     1     -45.322  60.290 -55.654  1.00  0.00    -0.045 N 
HETATM    7  N   UNL     1     -46.209  61.336 -55.759  1.00  0.00    -0.156 NA
HETATM    8  C   UNL     1     -46.386  61.748 -54.498  1.00  0.00     0.055 C 
HETATM    9  C   UNL     1     -47.342  62.841 -54.192  1.00  0.00     0.072 C 
HETATM   10  C   UNL     1     -45.557  61.052 -53.592  1.00  0.00     0.079 C 
BRANCH   6  11
HETATM   11  C   UNL     1     -45.242  59.366 -56.721  1.00  0.00     0.732 A 
HETATM   12  N   UNL     1     -44.356  58.426 -56.814  1.00  0.00    -0.067 NA
HETATM   13  C   UNL     1     -44.448  57.595 -57.906  1.00  0.00     0.065 A 
HETATM   14  C   UNL     1     -45.422  57.668 -58.832  1.00  0.00     0.036 A 
HETATM   15  C   UNL     1     -43.363  56.546 -57.998  1.00  0.00     0.060 C 
HETATM   16  C   UNL     1     -45.531  56.766 -60.025  1.00  0.00     0.046 C 
HETATM   17  C   UNL     1     -46.457  58.718 -58.667  1.00  0.00     0.268 A 
HETATM   18  C   UNL     1     -44.255  55.961 -60.279  1.00  0.00     0.005 C 
HETATM   19  C   UNL     1     -43.681  55.414 -58.977  1.00  0.00     0.006 C 
HETATM   20  O   UNL     1     -47.417  58.816 -59.423  1.00  0.00    -0.267 OA
HETATM   21  N   UNL     1     -46.267  59.551 -57.610  1.00  0.00    -0.152 N 
HETATM   22  H   UNL     1     -46.955  60.272 -57.418  1.00  0.00     0.188 HD
ENDBRANCH   6  11
ENDBRANCH   1   5
BRANCH   2  23
HETATM   23  C   UNL     1     -41.408  58.889 -53.424  1.00  0.00     0.310 C 
HETATM   24  N   UNL     1     -41.947  57.631 -53.284  1.00  0.00    -0.348 N 
HETATM   25  H   UNL     1     -42.961  57.605 -53.376  1.00  0.00     0.163 HD
HETATM   26  O   UNL     1     -40.241  59.216 -53.275  1.00  0.00    -0.262 OA
BRANCH  24  27
HETATM   27  C   UNL     1     -41.267  56.507 -52.642  1.00  0.00     0.084 C 
HETATM   28  C   UNL     1     -41.668  56.497 -51.145  1.00  0.00     0.025 C 
HETATM   29  C   UNL     1     -40.757  55.634 -50.260  1.00  0.00     0.002 C 
HETATM   30  C   UNL     1     -41.460  54.383 -49.718  1.00  0.00     0.000 C 
HETATM   31  C   UNL     1     -40.478  53.300 -49.242  1.00  0.00     0.000 C 
HETATM   32  C   UNL     1     -40.372  52.124 -50.227  1.00  0.00     0.000 C 
HETATM   33  C   UNL     1     -39.722  52.502 -51.559  1.00  0.00     0.000 C 
HETATM   34  C   UNL     1     -40.236  51.645 -52.714  1.00  0.00     0.000 C 
HETATM   35  C   UNL     1     -39.752  52.126 -54.087  1.00  0.00     0.000 C 
HETATM   36  C   UNL     1     -40.608  53.228 -54.735  1.00  0.00     0.000 C 
HETATM   37  C   UNL     1     -40.388  54.645 -54.184  1.00  0.00     0.002 C 
HETATM   38  C   UNL     1     -41.573  55.161 -53.347  1.00  0.00     0.025 C 
ENDBRANCH  24  27
ENDBRANCH   2  23
TORSDOF 4
ENDMDL
MODEL 6
REMARK VINA RESULT:      -9.3      3.141      5.695
REMARK  4 active torsions:
REMARK  status: ('A' for Active; 'I' for Inactive)
REMARK    1  A    between atoms: N_4  and  C_5 
REMARK    2  A    between atoms: C_16  and  N_17 
REMARK       I    between atoms: N_17  and  C_18 
REMARK    3  A    between atoms: C_18  and  C_19 
REMARK       I    between atoms: C_19  and  N_20 
REMARK    4  A    between atoms: N_20  and  C_21 
ROOT
HETATM    1  N   UNL     1     -42.096  58.359 -56.752  1.00  0.00    -0.303 N 
HETATM    2  C   UNL     1     -43.200  57.549 -56.948  1.00  0.00     0.315 C 
HETATM    3  O   UNL     1     -44.187  57.782 -57.637  1.00  0.00    -0.262 OA
HETATM    4  H   UNL     1     -41.241  57.889 -56.466  1.00  0.00     0.171 HD
ENDROOT
BRANCH   1   5
HETATM    5  C   UNL     1     -42.064  59.653 -57.234  1.00  0.00     0.152 C 
HETATM    6  N   UNL     1     -42.466  60.802 -56.553  1.00  0.00    -0.045 N 
HETATM    7  N   UNL     1     -42.508  61.886 -57.400  1.00  0.00    -0.156 NA
HETATM    8  C   UNL     1     -41.909  61.455 -58.517  1.00  0.00     0.055 C 
HETATM    9  C   UNL     1     -41.702  62.378 -59.661  1.00  0.00     0.072 C 
HETATM   10  C   UNL     1     -41.568  60.087 -58.443  1.00  0.00     0.079 C 
BRANCH   6  11
HETATM   11  C   UNL     1     -42.624  61.026 -55.167  1.00  0.00     0.732 A 
HETATM   12  N   UNL     1     -42.298  60.176 -54.244  1.00  0.00    -0.067 NA
HETATM   13  C   UNL     1     -42.491  60.576 -52.941  1.00  0.00     0.065 A 
HETATM   14  C   UNL     1     -42.935  61.794 -52.581  1.00  0.00     0.036 A 
HETATM   15  C   UNL     1     -42.145  59.534 -51.901  1.00  0.00     0.060 C 
HETATM   16  C   UNL     1     -43.146  62.237 -51.164  1.00  0.00     0.046 C 
HETATM   17  C   UNL     1     -43.243  62.765 -53.659  1.00  0.00     0.268 A 
HETATM   18  C   UNL     1     -43.124  61.076 -50.169  1.00  0.00     0.005 C 
HETATM   19  C   UNL     1     -41.999  60.099 -50.487  1.00  0.00     0.006 C 
HETATM   20  O   UNL     1     -43.588  63.918 -53.423  1.00  0.00    -0.267 OA
HETATM   21  N   UNL     1     -43.102  62.285 -54.923  1.00  0.00    -0.152 N 
HETATM   22  H   UNL     1     -43.265  62.905 -55.709  1.00  0.00     0.188 HD
ENDBRANCH   6  11
ENDBRANCH   1   5
BRANCH   2  23
HETATM   23  C   UNL     1     -43.068  56.178 -56.256  1.00  0.00     0.310 C 
HETATM   24  N   UNL     1     -42.842  56.275 -54.903  1.00  0.00    -0.348 N 
HETATM   25  H   UNL     1     -42.727  57.233 -54.573  1.00  0.00     0.163 HD
HETATM   26  O   UNL     1     -43.153  55.156 -56.920  1.00  0.00    -0.262 OA
BRANCH  24  27
HETATM   27  C   UNL     1     -42.369  55.178 -54.061  1.00  0.00     0.084 C 
HETATM   28  C   UNL     1     -41.634  54.160 -54.970  1.00  0.00     0.025 C 
HETATM   29  C   UNL     1     -41.418  52.786 -54.321  1.00  0.00     0.002 C 
HETATM   30  C   UNL     1     -39.944  52.492 -54.017  1.00  0.00     0.000 C 
HETATM   31  C   UNL     1     -39.756  51.376 -52.976  1.00  0.00     0.000 C 
HETATM   32  C   UNL     1     -39.349  51.915 -51.596  1.00  0.00     0.000 C 
HETATM   33  C   UNL     1     -40.449  52.730 -50.912  1.00  0.00     0.000 C 
HETATM   34  C   UNL     1     -39.879  53.803 -49.985  1.00  0.00     0.000 C 
HETATM   35  C   UNL     1     -40.945  54.758 -49.438  1.00  0.00     0.000 C 
HETATM   36  C   UNL     1     -41.285  55.951 -50.348  1.00  0.00     0.000 C 
HETATM   37  C   UNL     1     -42.207  55.636 -51.535  1.00  0.00     0.002 C 
HETATM   38  C   UNL     1     -41.482  55.679 -52.893  1.00  0.00     0.025 C 
ENDBRANCH  24  27
ENDBRANCH   2  23
TORSDOF 4
ENDMDL
MODEL 7
REMARK VINA RESULT:      -9.3      2.886      5.363
REMARK  4 active torsions:
REMARK  status: ('A' for Active; 'I' for Inactive)
REMARK    1  A    between atoms: N_4  and  C_5 
REMARK    2  A    between atoms: C_16  and  N_17 
REMARK       I    between atoms: N_17  and  C_18 
REMARK    3  A    between atoms: C_18  and  C_19 
REMARK       I    between atoms: C_19  and  N_20 
REMARK    4  A    between atoms: N_20  and  C_21 
ROOT
HETATM    1  N   UNL     1     -43.051  58.350 -53.112  1.00  0.00    -0.303 N 
HETATM    2  C   UNL     1     -42.001  57.947 -52.307  1.00  0.00     0.315 C 
HETATM    3  O   UNL     1     -41.127  58.647 -51.810  1.00  0.00    -0.262 OA
HETATM    4  H   UNL     1     -43.859  57.734 -53.136  1.00  0.00     0.171 HD
ENDROOT
BRANCH   1   5
HETATM    5  C   UNL     1     -43.138  59.648 -53.578  1.00  0.00     0.152 C 
HETATM    6  N   UNL     1     -42.781  60.098 -54.849  1.00  0.00    -0.045 N 
HETATM    7  N   UNL     1     -42.786  61.473 -54.902  1.00  0.00    -0.156 NA
HETATM    8  C   UNL     1     -43.370  61.846 -53.757  1.00  0.00     0.055 C 
HETATM    9  C   UNL     1     -43.618  63.281 -53.474  1.00  0.00     0.072 C 
HETATM   10  C   UNL     1     -43.654  60.743 -52.923  1.00  0.00     0.079 C 
BRANCH   6  11
HETATM   11  C   UNL     1     -42.628  59.379 -56.056  1.00  0.00     0.732 A 
HETATM   12  N   UNL     1     -42.973  58.141 -56.223  1.00  0.00    -0.067 NA
HETATM   13  C   UNL     1     -42.782  57.611 -57.478  1.00  0.00     0.065 A 
HETATM   14  C   UNL     1     -42.321  58.308 -58.532  1.00  0.00     0.036 A 
HETATM   15  C   UNL     1     -43.151  56.150 -57.611  1.00  0.00     0.060 C 
HETATM   16  C   UNL     1     -42.111  57.737 -59.903  1.00  0.00     0.046 C 
HETATM   17  C   UNL     1     -41.990  59.739 -58.324  1.00  0.00     0.268 A 
HETATM   18  C   UNL     1     -42.157  56.208 -59.923  1.00  0.00     0.005 C 
HETATM   19  C   UNL     1     -43.297  55.681 -59.059  1.00  0.00     0.006 C 
HETATM   20  O   UNL     1     -41.629  60.467 -59.242  1.00  0.00    -0.267 OA
HETATM   21  N   UNL     1     -42.131  60.182 -57.047  1.00  0.00    -0.152 N 
HETATM   22  H   UNL     1     -41.954  61.159 -56.840  1.00  0.00     0.188 HD
ENDBRANCH   6  11
ENDBRANCH   1   5
BRANCH   2  23
HETATM   23  C   UNL     1     -42.046  56.443 -51.972  1.00  0.00     0.310 C 
HETATM   24  N   UNL     1     -41.051  55.722 -52.591  1.00  0.00    -0.348 N 
HETATM   25  H   UNL     1     -40.480  56.274 -53.229  1.00  0.00     0.163 HD
HETATM   26  O   UNL     1     -42.920  56.015 -51.233  1.00  0.00    -0.262 OA
BRANCH  24  27
HETATM   27  C   UNL     1     -41.038  54.265 -52.712  1.00  0.00     0.084 C 
HETATM   28  C   UNL     1     -40.515  53.907 -54.126  1.00  0.00     0.025 C 
HETATM   29  C   UNL     1     -40.800  52.458 -54.549  1.00  0.00     0.002 C 
HETATM   30  C   UNL     1     -39.531  51.602 -54.645  1.00  0.00     0.000 C 
HETATM   31  C   UNL     1     -39.819  50.093 -54.601  1.00  0.00     0.000 C 
HETATM   32  C   UNL     1     -39.462  49.461 -53.246  1.00  0.00     0.000 C 
HETATM   33  C   UNL     1     -40.358  49.934 -52.100  1.00  0.00     0.000 C 
HETATM   34  C   UNL     1     -39.631  49.918 -50.756  1.00  0.00     0.000 C 
HETATM   35  C   UNL     1     -40.436  50.566 -49.625  1.00  0.00     0.000 C 
HETATM   36  C   UNL     1     -40.287  52.093 -49.505  1.00  0.00     0.000 C 
HETATM   37  C   UNL     1     -41.091  52.917 -50.522  1.00  0.00     0.002 C 
HETATM   38  C   UNL     1     -40.209  53.595 -51.586  1.00  0.00     0.025 C 
ENDBRANCH  24  27
ENDBRANCH   2  23
TORSDOF 4
ENDMDL
MODEL 8
REMARK VINA RESULT:      -9.2      5.757      9.793
REMARK  4 active torsions:
REMARK  status: ('A' for Active; 'I' for Inactive)
REMARK    1  A    between atoms: N_4  and  C_5 
REMARK    2  A    between atoms: C_16  and  N_17 
REMARK       I    between atoms: N_17  and  C_18 
REMARK    3  A    between atoms: C_18  and  C_19 
REMARK       I    between atoms: C_19  and  N_20 
REMARK    4  A    between atoms: N_20  and  C_21 
ROOT
HETATM    1  N   UNL     1     -43.325  58.727 -53.354  1.00  0.00    -0.303 N 
HETATM    2  C   UNL     1     -42.408  59.664 -52.916  1.00  0.00     0.315 C 
HETATM    3  O   UNL     1     -41.350  59.983 -53.448  1.00  0.00    -0.262 OA
HETATM    4  H   UNL     1     -44.277  58.841 -53.017  1.00  0.00     0.171 HD
ENDROOT
BRANCH   1   5
HETATM    5  C   UNL     1     -43.050  57.905 -54.431  1.00  0.00     0.152 C 
HETATM    6  N   UNL     1     -42.171  56.822 -54.443  1.00  0.00    -0.045 N 
HETATM    7  N   UNL     1     -41.971  56.367 -55.726  1.00  0.00    -0.156 NA
HETATM    8  C   UNL     1     -42.898  57.005 -56.451  1.00  0.00     0.055 C 
HETATM    9  C   UNL     1     -43.042  56.722 -57.901  1.00  0.00     0.072 C 
HETATM   10  C   UNL     1     -43.629  57.934 -55.679  1.00  0.00     0.079 C 
BRANCH   6  11
HETATM   11  C   UNL     1     -41.659  56.057 -53.371  1.00  0.00     0.732 A 
HETATM   12  N   UNL     1     -41.751  56.389 -52.122  1.00  0.00    -0.067 NA
HETATM   13  C   UNL     1     -41.224  55.506 -51.208  1.00  0.00     0.065 A 
HETATM   14  C   UNL     1     -40.684  54.316 -51.530  1.00  0.00     0.036 A 
HETATM   15  C   UNL     1     -41.309  55.959 -49.767  1.00  0.00     0.060 C 
HETATM   16  C   UNL     1     -40.109  53.348 -50.539  1.00  0.00     0.046 C 
HETATM   17  C   UNL     1     -40.647  53.938 -52.963  1.00  0.00     0.268 A 
HETATM   18  C   UNL     1     -39.893  53.969 -49.158  1.00  0.00     0.005 C 
HETATM   19  C   UNL     1     -41.078  54.837 -48.753  1.00  0.00     0.006 C 
HETATM   20  O   UNL     1     -40.234  52.847 -53.342  1.00  0.00    -0.267 OA
HETATM   21  N   UNL     1     -41.115  54.884 -53.820  1.00  0.00    -0.152 N 
HETATM   22  H   UNL     1     -41.149  54.679 -54.813  1.00  0.00     0.188 HD
ENDBRANCH   6  11
ENDBRANCH   1   5
BRANCH   2  23
HETATM   23  C   UNL     1     -42.874  60.414 -51.652  1.00  0.00     0.310 C 
HETATM   24  N   UNL     1     -44.210  60.742 -51.681  1.00  0.00    -0.348 N 
HETATM   25  H   UNL     1     -44.672  60.504 -52.557  1.00  0.00     0.163 HD
HETATM   26  O   UNL     1     -42.069  60.665 -50.768  1.00  0.00    -0.262 OA
BRANCH  24  27
HETATM   27  C   UNL     1     -44.843  61.711 -50.788  1.00  0.00     0.084 C 
HETATM   28  C   UNL     1     -45.940  62.456 -51.591  1.00  0.00     0.025 C 
HETATM   29  C   UNL     1     -46.428  63.751 -50.927  1.00  0.00     0.002 C 
HETATM   30  C   UNL     1     -47.873  63.656 -50.420  1.00  0.00     0.000 C 
HETATM   31  C   UNL     1     -48.214  64.727 -49.371  1.00  0.00     0.000 C 
HETATM   32  C   UNL     1     -48.273  64.159 -47.944  1.00  0.00     0.000 C 
HETATM   33  C   UNL     1     -46.914  63.696 -47.416  1.00  0.00     0.000 C 
HETATM   34  C   UNL     1     -47.045  62.551 -46.412  1.00  0.00     0.000 C 
HETATM   35  C   UNL     1     -45.699  61.938 -46.014  1.00  0.00     0.000 C 
HETATM   36  C   UNL     1     -45.175  60.839 -46.955  1.00  0.00     0.000 C 
HETATM   37  C   UNL     1     -44.538  61.336 -48.262  1.00  0.00     0.002 C 
HETATM   38  C   UNL     1     -45.399  61.043 -49.504  1.00  0.00     0.025 C 
ENDBRANCH  24  27
ENDBRANCH   2  23
TORSDOF 4
ENDMDL
MODEL 9
REMARK VINA RESULT:      -9.1      5.424      8.030
REMARK  4 active torsions:
REMARK  status: ('A' for Active; 'I' for Inactive)
REMARK    1  A    between atoms: N_4  and  C_5 
REMARK    2  A    between atoms: C_16  and  N_17 
REMARK       I    between atoms: N_17  and  C_18 
REMARK    3  A    between atoms: C_18  and  C_19 
REMARK       I    between atoms: C_19  and  N_20 
REMARK    4  A    between atoms: N_20  and  C_21 
ROOT
HETATM    1  N   UNL     1     -42.763  61.165 -53.231  1.00  0.00    -0.303 N 
HETATM    2  C   UNL     1     -43.033  59.852 -53.568  1.00  0.00     0.315 C 
HETATM    3  O   UNL     1     -44.017  59.415 -54.154  1.00  0.00    -0.262 OA
HETATM    4  H   UNL     1     -41.784  61.399 -53.085  1.00  0.00     0.171 HD
ENDROOT
BRANCH   1   5
HETATM    5  C   UNL     1     -43.707  62.159 -53.411  1.00  0.00     0.152 C 
HETATM    6  N   UNL     1     -44.749  62.480 -52.541  1.00  0.00    -0.045 N 
HETATM    7  N   UNL     1     -45.625  63.363 -53.129  1.00  0.00    -0.156 NA
HETATM    8  C   UNL     1     -44.997  63.759 -54.243  1.00  0.00     0.055 C 
HETATM    9  C   UNL     1     -45.610  64.781 -55.127  1.00  0.00     0.072 C 
HETATM   10  C   UNL     1     -43.776  63.076 -54.435  1.00  0.00     0.079 C 
BRANCH   6  11
HETATM   11  C   UNL     1     -44.901  62.198 -51.165  1.00  0.00     0.732 A 
HETATM   12  N   UNL     1     -44.754  63.070 -50.216  1.00  0.00    -0.067 NA
HETATM   13  C   UNL     1     -44.974  62.627 -48.932  1.00  0.00     0.065 A 
HETATM   14  C   UNL     1     -45.380  61.383 -48.619  1.00  0.00     0.036 A 
HETATM   15  C   UNL     1     -44.742  63.665 -47.857  1.00  0.00     0.060 C 
HETATM   16  C   UNL     1     -45.622  60.894 -47.222  1.00  0.00     0.046 C 
HETATM   17  C   UNL     1     -45.596  60.425 -49.732  1.00  0.00     0.268 A 
HETATM   18  C   UNL     1     -45.055  61.834 -46.157  1.00  0.00     0.005 C 
HETATM   19  C   UNL     1     -45.341  63.291 -46.500  1.00  0.00     0.006 C 
HETATM   20  O   UNL     1     -46.029  59.293 -49.545  1.00  0.00    -0.267 OA
HETATM   21  N   UNL     1     -45.291  60.901 -50.967  1.00  0.00    -0.152 N 
HETATM   22  H   UNL     1     -45.446  60.310 -51.777  1.00  0.00     0.188 HD
ENDBRANCH   6  11
ENDBRANCH   1   5
BRANCH   2  23
HETATM   23  C   UNL     1     -41.882  58.891 -53.206  1.00  0.00     0.310 C 
HETATM   24  N   UNL     1     -42.261  57.569 -53.211  1.00  0.00    -0.348 N 
HETATM   25  H   UNL     1     -43.256  57.427 -53.383  1.00  0.00     0.163 HD
HETATM   26  O   UNL     1     -40.779  59.344 -52.940  1.00  0.00    -0.262 OA
BRANCH  24  27
HETATM   27  C   UNL     1     -41.487  56.483 -52.612  1.00  0.00     0.084 C 
HETATM   28  C   UNL     1     -41.823  56.434 -51.100  1.00  0.00     0.025 C 
HETATM   29  C   UNL     1     -40.823  55.621 -50.265  1.00  0.00     0.002 C 
HETATM   30  C   UNL     1     -41.424  54.323 -49.709  1.00  0.00     0.000 C 
HETATM   31  C   UNL     1     -40.357  53.299 -49.288  1.00  0.00     0.000 C 
HETATM   32  C   UNL     1     -40.220  52.142 -50.290  1.00  0.00     0.000 C 
HETATM   33  C   UNL     1     -39.652  52.573 -51.644  1.00  0.00     0.000 C 
HETATM   34  C   UNL     1     -40.162  51.696 -52.787  1.00  0.00     0.000 C 
HETATM   35  C   UNL     1     -39.767  52.220 -54.172  1.00  0.00     0.000 C 
HETATM   36  C   UNL     1     -40.716  53.273 -54.771  1.00  0.00     0.000 C 
HETATM   37  C   UNL     1     -40.561  54.695 -54.212  1.00  0.00     0.002 C 
HETATM   38  C   UNL     1     -41.739  55.128 -53.320  1.00  0.00     0.025 C 
ENDBRANCH  24  27
ENDBRANCH   2  23
TORSDOF 4
ENDMDL
MODEL 10
REMARK VINA RESULT:      -9.0      3.349     10.590
REMARK  4 active torsions:
REMARK  status: ('A' for Active; 'I' for Inactive)
REMARK    1  A    between atoms: N_4  and  C_5 
REMARK    2  A    between atoms: C_16  and  N_17 
REMARK       I    between atoms: N_17  and  C_18 
REMARK    3  A    between atoms: C_18  and  C_19 
REMARK       I    between atoms: C_19  and  N_20 
REMARK    4  A    between atoms: N_20  and  C_21 
ROOT
HETATM    1  N   UNL     1     -42.265  56.573 -53.546  1.00  0.00    -0.303 N 
HETATM    2  C   UNL     1     -41.496  56.285 -54.659  1.00  0.00     0.315 C 
HETATM    3  O   UNL     1     -40.276  56.183 -54.721  1.00  0.00    -0.262 OA
HETATM    4  H   UNL     1     -43.234  56.270 -53.580  1.00  0.00     0.171 HD
ENDROOT
BRANCH   1   5
HETATM    5  C   UNL     1     -41.680  56.937 -52.347  1.00  0.00     0.152 C 
HETATM    6  N   UNL     1     -41.234  56.073 -51.347  1.00  0.00    -0.045 N 
HETATM    7  N   UNL     1     -40.912  56.769 -50.205  1.00  0.00    -0.156 NA
HETATM    8  C   UNL     1     -40.932  58.053 -50.583  1.00  0.00     0.055 C 
HETATM    9  C   UNL     1     -40.567  59.124 -49.624  1.00  0.00     0.072 C 
HETATM   10  C   UNL     1     -41.353  58.205 -51.922  1.00  0.00     0.079 C 
BRANCH   6  11
HETATM   11  C   UNL     1     -40.897  54.702 -51.417  1.00  0.00     0.732 A 
HETATM   12  N   UNL     1     -40.614  54.070 -52.512  1.00  0.00    -0.067 NA
HETATM   13  C   UNL     1     -40.275  52.742 -52.388  1.00  0.00     0.065 A 
HETATM   14  C   UNL     1     -40.167  52.095 -51.213  1.00  0.00     0.036 A 
HETATM   15  C   UNL     1     -40.003  52.033 -53.696  1.00  0.00     0.060 C 
HETATM   16  C   UNL     1     -39.797  50.648 -51.070  1.00  0.00     0.046 C 
HETATM   17  C   UNL     1     -40.440  52.862 -49.973  1.00  0.00     0.268 A 
HETATM   18  C   UNL     1     -39.869  49.884 -52.393  1.00  0.00     0.005 C 
HETATM   19  C   UNL     1     -39.272  50.699 -53.534  1.00  0.00     0.006 C 
HETATM   20  O   UNL     1     -40.301  52.373 -48.857  1.00  0.00    -0.267 OA
HETATM   21  N   UNL     1     -40.840  54.146 -50.167  1.00  0.00    -0.152 N 
HETATM   22  H   UNL     1     -41.012  54.738 -49.362  1.00  0.00     0.188 HD
ENDBRANCH   6  11
ENDBRANCH   1   5
BRANCH   2  23
HETATM   23  C   UNL     1     -42.344  55.989 -55.912  1.00  0.00     0.310 C 
HETATM   24  N   UNL     1     -42.248  56.969 -56.873  1.00  0.00    -0.348 N 
HETATM   25  H   UNL     1     -41.690  57.772 -56.587  1.00  0.00     0.163 HD
HETATM   26  O   UNL     1     -43.017  54.970 -55.959  1.00  0.00    -0.262 OA
BRANCH  24  27
HETATM   27  C   UNL     1     -43.164  57.112 -58.003  1.00  0.00     0.084 C 
HETATM   28  C   UNL     1     -43.344  55.717 -58.654  1.00  0.00     0.025 C 
HETATM   29  C   UNL     1     -43.955  55.759 -60.061  1.00  0.00     0.002 C 
HETATM   30  C   UNL     1     -45.372  55.174 -60.116  1.00  0.00     0.000 C 
HETATM   31  C   UNL     1     -46.158  55.620 -61.360  1.00  0.00     0.000 C 
HETATM   32  C   UNL     1     -47.219  56.686 -61.039  1.00  0.00     0.000 C 
HETATM   33  C   UNL     1     -46.623  58.027 -60.610  1.00  0.00     0.000 C 
HETATM   34  C   UNL     1     -47.542  58.787 -59.654  1.00  0.00     0.000 C 
HETATM   35  C   UNL     1     -46.892  60.038 -59.056  1.00  0.00     0.000 C 
HETATM   36  C   UNL     1     -46.046  59.798 -57.794  1.00  0.00     0.000 C 
HETATM   37  C   UNL     1     -44.646  59.214 -58.038  1.00  0.00     0.002 C 
HETATM   38  C   UNL     1     -44.513  57.749 -57.583  1.00  0.00     0.025 C 
ENDBRANCH  24  27
ENDBRANCH   2  23
TORSDOF 4
ENDMDL
